# MOL2 file generated by ConQuest
# Please check atom types

@<TRIPOS>MOLECULE
BESVUS
    40    42     1
SMALL
NO_CHARGES
****
Generated from CSD

@<TRIPOS>ATOM
      1 O1        -1.3070    9.5182    7.0529 O.3       1 RES1    0.0000
      2 N1         0.0126   12.1128    6.5111 N.pl3     1 RES1    0.0000
      3 O2        -2.1767    9.2387    4.9915 O.2       1 RES1    0.0000
      4 O3         0.5345   11.2808    5.7773 O.2       1 RES1    0.0000
      5 O4         0.6098   12.7440    7.3783 O.2       1 RES1    0.0000
      6 C1        -1.9086    9.9250    5.9362 C.2       1 RES1    0.0000
      7 C2        -0.7733    8.1426    7.0782 C.3       1 RES1    0.0000
      8 H1        -1.1093    7.6516    6.2752 H         1 RES1    0.0000
      9 C3        -4.0443   13.0241    5.8675 C.ar      1 RES1    0.0000
     10 H2        -4.9563   13.2388    5.7137 H         1 RES1    0.0000
     11 C4         1.3960    8.5897    8.3768 C.3       1 RES1    0.0000
     12 C5         0.7407    8.2100    7.0152 C.3       1 RES1    0.0000
     13 H3         1.1155    8.6775    6.2150 H         1 RES1    0.0000
     14 C6        -2.2939   11.3745    6.0106 C.ar      1 RES1    0.0000
     15 C7        -3.6218   11.7152    5.7815 C.ar      1 RES1    0.0000
     16 H4        -4.2483   11.0348    5.5619 H         1 RES1    0.0000
     17 C8        -3.1398   14.0275    6.1778 C.ar      1 RES1    0.0000
     18 H5        -3.4325   14.9294    6.2293 H         1 RES1    0.0000
     19 C9        -1.4135   12.4033    6.3218 C.ar      1 RES1    0.0000
     20 C10       -1.8173   13.7191    6.4117 C.ar      1 RES1    0.0000
     21 H6        -1.1938   14.4014    6.6304 H         1 RES1    0.0000
     22 C11        1.1968    7.0933    8.7472 C.3       1 RES1    0.0000
     23 H7         1.9290    6.6902    9.2963 H         1 RES1    0.0000
     24 C12        0.7740    9.6556    9.2705 C.3       1 RES1    0.0000
     25 H8         0.8766   10.5341    8.8494 H         1 RES1    0.0000
     26 H9         1.2241    9.6556   10.1403 H         1 RES1    0.0000
     27 H10       -0.1788    9.4623    9.3946 H         1 RES1    0.0000
     28 C13        1.2513    6.7663    7.2367 C.3       1 RES1    0.0000
     29 H11        0.6186    6.0616    6.9493 H         1 RES1    0.0000
     30 H12        2.1630    6.5984    6.8891 H         1 RES1    0.0000
     31 C14       -1.3016    7.4437    8.3462 C.3       1 RES1    0.0000
     32 H13       -1.9257    6.7253    8.0731 H         1 RES1    0.0000
     33 H14       -1.8179    8.1007    8.8771 H         1 RES1    0.0000
     34 C15       -0.2089    6.8278    9.2533 C.3       1 RES1    0.0000
     35 H15       -0.2998    7.2017   10.1661 H         1 RES1    0.0000
     36 H16       -0.3515    5.8498    9.3115 H         1 RES1    0.0000
     37 C16        2.8775    8.9313    8.1887 C.3       1 RES1    0.0000
     38 H17        3.3293    8.9157    9.0576 H         1 RES1    0.0000
     39 H18        2.9585    9.8254    7.7943 H         1 RES1    0.0000
     40 H19        3.2917    8.2724    7.5928 H         1 RES1    0.0000
@<TRIPOS>BOND
     1    1    6 1
     2    2    4 2
     3    3    6 2
     4    5    2 2
     5    6   14 1
     6    7    1 1
     7    8    7 1
     8    9   10 1
     9   11   12 1
    10   12    7 1
    11   13   12 1
    12   14   15 ar
    13   15    9 ar
    14   16   15 1
    15   17    9 ar
    16   18   17 1
    17   19    2 1
    18   20   17 ar
    19   21   20 1
    20   22   11 1
    21   23   22 1
    22   24   11 1
    23   25   24 1
    24   26   24 1
    25   27   24 1
    26   28   12 1
    27   29   28 1
    28   30   28 1
    29   31    7 1
    30   32   31 1
    31   33   31 1
    32   34   22 1
    33   35   34 1
    34   36   34 1
    35   37   11 1
    36   38   37 1
    37   39   37 1
    38   40   37 1
    39   14   19 ar
    40   19   20 ar
    41   22   28 1
    42   31   34 1
@<TRIPOS>SUBSTRUCTURE
     1 RES1 1

@<TRIPOS>CRYSIN
   7.7048    9.7610    9.6507  90.0000  98.3520  90.0000   4 1

