# MOL2 file generated by ConQuest
# Please check atom types

@<TRIPOS>MOLECULE
BESWAZ
    84    88     2
SMALL
NO_CHARGES
****
Generated from CSD

@<TRIPOS>ATOM
      1 C1         0.7274   13.5515    5.8678 C.3       1 RES1    0.0000
      2 H1         1.4188   13.1697    5.2873 H         1 RES1    0.0000
      3 C2        -0.2450   14.3293    5.0186 C.3       1 RES1    0.0000
      4 H2        -0.7000   13.8148    4.3188 H         1 RES1    0.0000
      5 C3         0.5232   15.5844    4.5313 C.3       1 RES1    0.0000
      6 H3         1.4824   15.4606    4.4586 H         1 RES1    0.0000
      7 H4         0.1561   15.9906    3.7307 H         1 RES1    0.0000
      8 C4         0.0654   16.2496    5.8500 C.3       1 RES1    0.0000
      9 H5        -0.1592   17.2019    5.7808 H         1 RES1    0.0000
     10 C5         1.0475   15.8961    6.9521 C.3       1 RES1    0.0000
     11 H6         0.6629   16.1387    7.8089 H         1 RES1    0.0000
     12 H7         1.8579   16.4152    6.8329 H         1 RES1    0.0000
     13 C6         1.4090   14.3935    6.9658 C.3       1 RES1    0.0000
     14 H8         2.3699   14.3053    6.8699 H         1 RES1    0.0000
     15 H9         1.1673   14.0255    7.8308 H         1 RES1    0.0000
     16 C7        -1.1597   15.2763    5.8589 C.3       1 RES1    0.0000
     17 C8        -1.7298   14.8257    7.1948 C.3       1 RES1    0.0000
     18 H10       -1.0195   14.4962    7.7513 H         1 RES1    0.0000
     19 H11       -2.3714   14.1275    7.0495 H         1 RES1    0.0000
     20 H12       -2.1572   15.5693    7.6266 H         1 RES1    0.0000
     21 C9        -2.3158   15.7951    4.9877 C.3       1 RES1    0.0000
     22 H13       -1.9729   16.0860    4.1406 H         1 RES1    0.0000
     23 H14       -2.7445   16.5304    5.4305 H         1 RES1    0.0000
     24 H15       -2.9533   15.0920    4.8493 H         1 RES1    0.0000
     25 C10       -0.0244   11.2767    5.9453 C.2       1 RES1    0.0000
     26 C11       -0.6837   10.2530    6.8151 C.ar      1 RES1    0.0000
     27 C12       -0.5869    8.9133    6.4237 C.ar      1 RES1    0.0000
     28 H16       -0.1712    8.6865    5.6238 H         1 RES1    0.0000
     29 C13       -1.1134    7.9393    7.2359 C.ar      1 RES1    0.0000
     30 C14       -1.7529    8.2728    8.4326 C.ar      1 RES1    0.0000
     31 C15       -1.8558    9.6000    8.8233 C.ar      1 RES1    0.0000
     32 H17       -2.2751    9.8254    9.6218 H         1 RES1    0.0000
     33 C16       -1.3240   10.5871    8.0056 C.ar      1 RES1    0.0000
     34 H18       -1.3959   11.4811    8.2558 H         1 RES1    0.0000
     35 N1        -0.8732    6.5325    6.8678 N.pl3     1 RES1    0.0000
     36 N2        -2.4013    7.2451    9.2709 N.pl3     1 RES1    0.0000
     37 O1         0.0288   12.4538    6.5553 O.3       1 RES1    0.0000
     38 O2         0.4222   11.0246    4.8513 O.2       1 RES1    0.0000
     39 O3        -1.1588    6.2001    5.7321 O.2       1 RES1    0.0000
     40 O4        -0.3489    5.8209    7.7088 O.2       1 RES1    0.0000
     41 O5        -2.9048    6.2978    8.7047 O.2       1 RES1    0.0000
     42 O6        -2.4383    7.4561   10.4710 O.2       1 RES1    0.0000
     43 C17        2.2557    4.8390    5.4620 C.3       2 RES2    0.0000
     44 H19        1.6129    5.2567    6.0721 H         2 RES2    0.0000
     45 C18        1.4961    4.0348    4.4435 C.3       2 RES2    0.0000
     46 H20        0.8412    4.5391    3.9158 H         2 RES2    0.0000
     47 C19        0.9307    2.8031    5.2071 C.3       2 RES2    0.0000
     48 H21        0.7822    2.9526    6.1536 H         2 RES2    0.0000
     49 H22        0.1601    2.3930    4.7869 H         2 RES2    0.0000
     50 C20        2.2848    2.1181    4.8726 C.3       2 RES2    0.0000
     51 H23        2.2276    1.1619    4.6697 H         2 RES2    0.0000
     52 C21        3.3054    2.4924    5.9336 C.3       2 RES2    0.0000
     53 H24        4.1940    2.2745    5.6128 H         2 RES2    0.0000
     54 H25        3.1404    1.9684    6.7335 H         2 RES2    0.0000
     55 C22        3.2470    4.0036    6.2921 C.3       2 RES2    0.0000
     56 H26        3.0107    4.0882    7.2290 H         2 RES2    0.0000
     57 H27        4.1341    4.3811    6.1804 H         2 RES2    0.0000
     58 C23        2.3967    3.0523    3.6306 C.3       2 RES2    0.0000
     59 C24        3.7934    3.4670    3.1714 C.3       2 RES2    0.0000
     60 H28        3.7212    4.0388    2.4024 H         2 RES2    0.0000
     61 H29        4.3010    2.6859    2.9432 H         2 RES2    0.0000
     62 H30        4.2360    3.9400    3.8801 H         2 RES2    0.0000
     63 C25        1.6228    2.5217    2.4120 C.3       2 RES2    0.0000
     64 H31        0.7390    2.2613    2.6827 H         2 RES2    0.0000
     65 H32        2.0814    1.7610    2.0480 H         2 RES2    0.0000
     66 H33        1.5644    3.2093    1.7457 H         2 RES2    0.0000
     67 C26        2.9568    7.1148    5.2544 C.2       2 RES2    0.0000
     68 C27        3.5950    8.1197    4.3421 C.ar      2 RES2    0.0000
     69 C28        3.4881    9.4686    4.6999 C.ar      2 RES2    0.0000
     70 H34        3.0632    9.7135    5.4901 H         2 RES2    0.0000
     71 C29        4.0175   10.4235    3.8698 C.ar      2 RES2    0.0000
     72 C30        4.6537   10.0667    2.6806 C.ar      2 RES2    0.0000
     73 C31        4.7561    8.7280    2.3153 C.ar      2 RES2    0.0000
     74 H35        5.1735    8.4857    1.5196 H         2 RES2    0.0000
     75 C32        4.2298    7.7599    3.1529 C.ar      2 RES2    0.0000
     76 H36        4.2992    6.8630    2.9212 H         2 RES2    0.0000
     77 N3         5.3156   11.0743    1.8307 N.pl3     2 RES2    0.0000
     78 N4         3.7779   11.8438    4.2105 N.pl3     2 RES2    0.0000
     79 O7         2.9688    5.9028    4.7314 O.3       2 RES2    0.0000
     80 O8         2.4695    7.4179    6.3168 O.2       2 RES2    0.0000
     81 O9         4.0979   12.1944    5.3291 O.2       2 RES2    0.0000
     82 O10        3.2304   12.5367    3.3757 O.2       2 RES2    0.0000
     83 O11        5.8039   12.0420    2.3832 O.2       2 RES2    0.0000
     84 O12        5.3751   10.8356    0.6361 O.2       2 RES2    0.0000
@<TRIPOS>BOND
     1    1    2 1
     2    3    1 1
     3    4    3 1
     4    5    3 1
     5    6    5 1
     6    7    5 1
     7    8    5 1
     8    9    8 1
     9   10    8 1
    10   11   10 1
    11   12   10 1
    12   13    1 1
    13   14   13 1
    14   15   13 1
    15   16    3 1
    16   17   16 1
    17   18   17 1
    18   19   17 1
    19   20   17 1
    20   21   16 1
    21   22   21 1
    22   23   21 1
    23   24   21 1
    24   25   26 1
    25   26   27 ar
    26   27   28 1
    27   29   27 ar
    28   30   29 ar
    29   31   30 ar
    30   32   31 1
    31   33   26 ar
    32   34   33 1
    33   35   29 1
    34   36   30 1
    35   37    1 1
    36   38   25 2
    37   39   35 2
    38   40   35 2
    39   41   36 2
    40   42   36 2
    41   43   44 1
    42   45   43 1
    43   46   45 1
    44   47   45 1
    45   48   47 1
    46   49   47 1
    47   50   47 1
    48   51   50 1
    49   52   50 1
    50   53   52 1
    51   54   52 1
    52   55   43 1
    53   56   55 1
    54   57   55 1
    55   58   45 1
    56   59   58 1
    57   60   59 1
    58   61   59 1
    59   62   59 1
    60   63   58 1
    61   64   63 1
    62   65   63 1
    63   66   63 1
    64   67   68 1
    65   68   69 ar
    66   69   70 1
    67   71   69 ar
    68   72   71 ar
    69   73   72 ar
    70   74   73 1
    71   75   68 ar
    72   76   75 1
    73   77   72 1
    74   78   71 1
    75   79   43 1
    76   80   67 2
    77   81   78 2
    78   82   78 2
    79   83   77 2
    80   84   77 2
    81    8   16 1
    82   10   13 1
    83   25   37 1
    84   31   33 ar
    85   50   58 1
    86   52   55 1
    87   67   79 1
    88   73   75 ar
@<TRIPOS>SUBSTRUCTURE
     1 RES1 1
     2 RES2 43

@<TRIPOS>CRYSIN
   7.0798   32.9160    7.4809  90.0000 113.6210  90.0000   4 1

