# MOL2 file generated by ConQuest
# Please check atom types

@<TRIPOS>MOLECULE
BESWED
    84    88     2
SMALL
NO_CHARGES
****
Generated from CSD

@<TRIPOS>ATOM
      1 C1         5.5060    7.6049   26.2175 C.3       1 RES1    0.0000
      2 H1         5.0858    6.7229   26.4356 H         1 RES1    0.0000
      3 C2         4.5578    8.3956   25.3793 C.3       1 RES1    0.0000
      4 H2         3.6765    8.5849   25.8101 H         1 RES1    0.0000
      5 C3         5.2100    9.6192   24.6562 C.3       1 RES1    0.0000
      6 C4         5.6827    8.5572   23.6200 C.3       1 RES1    0.0000
      7 H3         5.6914    8.8712   22.6709 H         1 RES1    0.0000
      8 C5         6.9590    7.8704   24.0785 C.3       1 RES1    0.0000
      9 H4         7.7121    8.5087   24.0163 H         1 RES1    0.0000
     10 H5         7.1531    7.1096   23.4763 H         1 RES1    0.0000
     11 C6         6.8483    7.3532   25.5325 C.3       1 RES1    0.0000
     12 H6         7.0221    6.3789   25.5328 H         1 RES1    0.0000
     13 H7         7.5598    7.7815   26.0727 H         1 RES1    0.0000
     14 C7         4.4675    7.6903   24.0039 C.3       1 RES1    0.0000
     15 H8         4.6510    6.7183   24.0281 H         1 RES1    0.0000
     16 H9         3.6435    7.8923   23.4940 H         1 RES1    0.0000
     17 C8         4.1570   10.5531   24.0853 C.3       1 RES1    0.0000
     18 H10        3.4737   10.0290   23.6180 H         1 RES1    0.0000
     19 H11        4.5782   11.1753   23.4557 H         1 RES1    0.0000
     20 H12        3.7396   11.0587   24.8129 H         1 RES1    0.0000
     21 C9         6.2495   10.4642   25.3702 C.3       1 RES1    0.0000
     22 H13        6.9415    9.8812   25.7481 H         1 RES1    0.0000
     23 H14        5.8205   10.9698   26.0904 H         1 RES1    0.0000
     24 H15        6.6591   11.0852   24.7332 H         1 RES1    0.0000
     25 C10        5.2032    7.8669   28.5897 C.2       1 RES1    0.0000
     26 C11        5.5808    8.7211   29.7557 C.ar      1 RES1    0.0000
     27 C12        5.3352    8.2675   31.0388 C.ar      1 RES1    0.0000
     28 H16        4.9315    7.4190   31.1828 H         1 RES1    0.0000
     29 C13        5.6866    9.0674   32.0977 C.ar      1 RES1    0.0000
     30 C14        6.2456   10.3164   31.9537 C.ar      1 RES1    0.0000
     31 H17        6.4659   10.8555   32.7052 H         1 RES1    0.0000
     32 C15        6.4698   10.7458   30.6591 C.ar      1 RES1    0.0000
     33 C16        6.1699    9.9713   29.5639 C.ar      1 RES1    0.0000
     34 H18        6.3621   10.2829   28.6867 H         1 RES1    0.0000
     35 N1         7.0405   12.0872   30.4416 N.pl3     1 RES1    0.0000
     36 N2         5.4760    8.5734   33.4782 N.pl3     1 RES1    0.0000
     37 O1         5.7632    8.3264   27.4703 O.3       1 RES1    0.0000
     38 O2         4.5064    6.8941   28.6811 O.2       1 RES1    0.0000
     39 O3         7.2172   12.4545   29.2889 O.2       1 RES1    0.0000
     40 O4         7.2773   12.7717   31.4347 O.2       1 RES1    0.0000
     41 O5         5.8671    9.2821   34.4082 O.2       1 RES1    0.0000
     42 O6         4.9402    7.4883   33.6145 O.2       1 RES1    0.0000
     43 C17        9.5902    1.5918   25.6021 C.3       2 RES2    0.0000
     44 H19        9.3738    0.6349   25.7953 H         2 RES2    0.0000
     45 C18        8.6245    2.0928   24.5467 C.3       2 RES2    0.0000
     46 H20        7.6578    2.0524   24.8011 H         2 RES2    0.0000
     47 C19        9.0758    3.4111   23.8702 C.3       2 RES2    0.0000
     48 C20        9.9920    2.5165   23.0178 C.3       2 RES2    0.0000
     49 H21       10.0988    2.8028   22.0660 H         2 RES2    0.0000
     50 C21       11.0470    1.6773   25.1876 C.3       2 RES2    0.0000
     51 H22       11.4518    0.7780   25.2702 H         2 RES2    0.0000
     52 H23       11.5197    2.2775   25.8190 H         2 RES2    0.0000
     53 C22        8.9923    1.3552   23.2471 C.3       2 RES2    0.0000
     54 H24        8.2605    1.3079   22.5824 H         2 RES2    0.0000
     55 H25        9.4165    0.4721   23.3849 H         2 RES2    0.0000
     56 C23        7.9325    4.0010   23.0305 C.3       2 RES2    0.0000
     57 H26        7.5336    3.2957   22.4791 H         2 RES2    0.0000
     58 H27        8.2848    4.7086   22.4496 H         2 RES2    0.0000
     59 H28        7.2502    4.3761   23.6268 H         2 RES2    0.0000
     60 C24        9.6737    4.5274   24.7126 C.3       2 RES2    0.0000
     61 H29       10.4065    4.1695   25.2554 H         2 RES2    0.0000
     62 H30        8.9826    4.8991   25.2997 H         2 RES2    0.0000
     63 H31       10.0163    5.2315   24.1254 H         2 RES2    0.0000
     64 C25        9.8930    1.8862   27.9338 C.2       2 RES2    0.0000
     65 C26        9.5960    2.7520   29.1204 C.ar      2 RES2    0.0000
     66 C27       10.0192    2.3064   30.3576 C.ar      2 RES2    0.0000
     67 H32       10.4909    1.4856   30.4422 H         2 RES2    0.0000
     68 C28        9.7416    3.0775   31.4628 C.ar      2 RES2    0.0000
     69 C29        9.1039    4.2919   31.3899 C.ar      2 RES2    0.0000
     70 H33        8.9370    4.8113   32.1682 H         2 RES2    0.0000
     71 C30        8.7186    4.7259   30.1395 C.ar      2 RES2    0.0000
     72 C31        8.9380    3.9687   28.9980 C.ar      2 RES2    0.0000
     73 H34        8.6429    4.2757   28.1498 H         2 RES2    0.0000
     74 C32       11.2829    2.1944   23.7413 C.3       2 RES2    0.0000
     75 H35       11.8458    3.0082   23.7773 H         2 RES2    0.0000
     76 H36       11.7779    1.5064   23.2285 H         2 RES2    0.0000
     77 N3        10.1395    2.5857   32.7958 N.pl3     2 RES2    0.0000
     78 N4         8.1130    6.0511   30.0065 N.pl3     2 RES2    0.0000
     79 O7         9.3408    2.3790   26.8221 O.3       2 RES2    0.0000
     80 O8        10.5414    0.8794   28.0046 O.2       2 RES2    0.0000
     81 O9        10.8432    1.5861   32.8444 O.2       2 RES2    0.0000
     82 O10        9.7436    3.1883   33.7839 O.2       2 RES2    0.0000
     83 O11        8.1140    6.7758   30.9984 O.2       2 RES2    0.0000
     84 O12        7.6724    6.3815   28.9116 O.2       2 RES2    0.0000
@<TRIPOS>BOND
     1    1    2 1
     2    3    1 1
     3    4    3 1
     4    5    3 1
     5    6    5 1
     6    7    6 1
     7    8    6 1
     8    9    8 1
     9   10    8 1
    10   11    1 1
    11   12   11 1
    12   13   11 1
    13   14    3 1
    14   15   14 1
    15   16   14 1
    16   17    5 1
    17   18   17 1
    18   19   17 1
    19   20   17 1
    20   21    5 1
    21   22   21 1
    22   23   21 1
    23   24   21 1
    24   25   26 1
    25   26   27 ar
    26   27   28 1
    27   29   27 ar
    28   30   29 ar
    29   31   30 1
    30   32   30 ar
    31   33   26 ar
    32   34   33 1
    33   35   32 1
    34   36   29 1
    35   37    1 1
    36   38   25 2
    37   39   35 2
    38   40   35 2
    39   41   36 2
    40   42   36 2
    41   43   44 1
    42   45   43 1
    43   46   45 1
    44   47   45 1
    45   48   47 1
    46   49   48 1
    47   50   43 1
    48   51   50 1
    49   52   50 1
    50   53   45 1
    51   54   53 1
    52   55   53 1
    53   56   47 1
    54   57   56 1
    55   58   56 1
    56   59   56 1
    57   60   47 1
    58   61   60 1
    59   62   60 1
    60   63   60 1
    61   64   65 1
    62   65   66 ar
    63   66   67 1
    64   68   66 ar
    65   69   68 ar
    66   70   69 1
    67   71   69 ar
    68   72   65 ar
    69   73   72 1
    70   74   48 1
    71   75   74 1
    72   76   74 1
    73   77   68 1
    74   78   71 1
    75   79   43 1
    76   80   64 2
    77   81   77 2
    78   82   77 2
    79   83   78 2
    80   84   78 2
    81    6   14 1
    82    8   11 1
    83   25   37 1
    84   32   33 ar
    85   48   53 1
    86   50   74 1
    87   64   79 1
    88   71   72 ar
@<TRIPOS>SUBSTRUCTURE
     1 RES1 1
     2 RES2 43

@<TRIPOS>CRYSIN
   9.7057   11.5435   29.5040  90.0000  90.0000  90.0000  19 1

