# MOL2 file generated by ConQuest
# Please check atom types

@<TRIPOS>MOLECULE
BESZIK
    39    41     1
SMALL
NO_CHARGES
****
Generated from CSD

@<TRIPOS>ATOM
      1 O1         2.3643    1.8799    6.9379 O.3       1 RES1    0.0000
      2 C1         3.7882    3.0277    5.6112 C.ar      1 RES1    0.0000
      3 C2         3.3243    1.7662    5.9837 C.ar      1 RES1    0.0000
      4 C3         5.1820    1.9363    4.0555 C.ar      1 RES1    0.0000
      5 C4         1.1612    3.5614    8.1353 C.ar      1 RES1    0.0000
      6 C5         2.2047    3.2464    7.1663 C.2       1 RES1    0.0000
      7 C6         2.5862    6.1370    5.1728 C.3       1 RES1    0.0000
      8 N1         6.1781    2.0070    2.9822 N.pl3     1 RES1    0.0000
      9 C7         4.7538    3.1208    4.6142 C.ar      1 RES1    0.0000
     10 H1         5.0933    3.9417    4.3379 H         1 RES1    0.0000
     11 C8         3.0602    3.9773    6.4072 C.2       1 RES1    0.0000
     12 C9         3.2678    5.4593    6.3590 C.3       1 RES1    0.0000
     13 C10        0.5001    4.7863    8.1230 C.ar      1 RES1    0.0000
     14 H2         0.7299    5.4272    7.4905 H         1 RES1    0.0000
     15 C11        0.7737    2.6200    9.0841 C.ar      1 RES1    0.0000
     16 H3         1.2003    1.7937    9.1104 H         1 RES1    0.0000
     17 O2         6.5398    3.1008    2.5931 O.2       1 RES1    0.0000
     18 O3         6.5879    0.9626    2.5052 O.2       1 RES1    0.0000
     19 C12       -0.2289    2.8919    9.9827 C.ar      1 RES1    0.0000
     20 H4        -0.4805    2.2479   10.6043 H         1 RES1    0.0000
     21 C13        2.8042    7.6359    5.1446 C.3       1 RES1    0.0000
     22 H5         2.4252    8.0272    5.9468 H         1 RES1    0.0000
     23 H6         3.7571    7.8187    5.1463 H         1 RES1    0.0000
     24 C14       -0.4896    5.0563    9.0371 C.ar      1 RES1    0.0000
     25 H7        -0.9130    5.8846    9.0275 H         1 RES1    0.0000
     26 C15       -0.8604    4.1109    9.9673 C.ar      1 RES1    0.0000
     27 H8        -1.5340    4.2972   10.5811 H         1 RES1    0.0000
     28 C16        2.1762    8.2854    3.9316 C.3       1 RES1    0.0000
     29 H9         2.5668    7.9197    3.1349 H         1 RES1    0.0000
     30 H10        2.3317    9.2329    3.9587 H         1 RES1    0.0000
     31 H11        1.2315    8.1160    3.9310 H         1 RES1    0.0000
     32 H12        2.9754    5.8759    7.2019 H         1 RES1    0.0000
     33 H13        4.2003    5.6180    6.3372 H         1 RES1    0.0000
     34 H14        1.5990    5.9439    5.2181 H         1 RES1    0.0000
     35 H15        2.9453    5.7738    4.3501 H         1 RES1    0.0000
     36 C17        4.7139    0.6823    4.4351 C.ar      1 RES1    0.0000
     37 H16        5.0412   -0.0834    4.0217 H         1 RES1    0.0000
     38 C18        3.7638    0.5807    5.4267 C.ar      1 RES1    0.0000
     39 H17        3.4356   -0.2435    5.7069 H         1 RES1    0.0000
@<TRIPOS>BOND
     1    1    3 1
     2    2    3 ar
     3    3   38 ar
     4    4    8 1
     5    5    6 1
     6    6    1 1
     7    7   12 1
     8    8   17 2
     9    9    2 ar
    10   10    9 1
    11   11    2 1
    12   12   11 1
    13   13    5 ar
    14   14   13 1
    15   15    5 ar
    16   16   15 1
    17   18    8 2
    18   19   15 ar
    19   20   19 1
    20   21    7 1
    21   22   21 1
    22   23   21 1
    23   24   13 ar
    24   25   24 1
    25   26   19 ar
    26   27   26 1
    27   28   21 1
    28   29   28 1
    29   30   28 1
    30   31   28 1
    31   32   12 1
    32   33   12 1
    33   34    7 1
    34   35    7 1
    35   36    4 ar
    36   37   36 1
    37   38   36 ar
    38   39   38 1
    39    4    9 ar
    40    6   11 2
    41   24   26 ar
@<TRIPOS>SUBSTRUCTURE
     1 RES1 1

@<TRIPOS>CRYSIN
  12.3688   10.9706   11.0819  90.0000  93.7870  90.0000  14 1

