# MOL2 file generated by ConQuest
# Please check atom types

@<TRIPOS>MOLECULE
BETTEZ
   107   109     1
SMALL
NO_CHARGES
****
Generated from CSD

@<TRIPOS>ATOM
      1 O1        10.5513    0.9863    0.9143 O.2       1 RES1    0.0000
      2 O2        12.2047    2.5958    4.7961 O.2       1 RES1    0.0000
      3 O3        13.1638    3.2138    1.5239 O.2       1 RES1    0.0000
      4 O4         8.1049    0.2308    4.6232 O.3       1 RES1    0.0000
      5 O5         6.9913    1.9184    5.6073 O.2       1 RES1    0.0000
      6 O6         2.8958    0.4970    8.1122 O.2       1 RES1    0.0000
      7 O7         2.7270   -1.5804    8.7248 O.2       1 RES1    0.0000
      8 O8         5.3751   -4.9039    6.5474 O.2       1 RES1    0.0000
      9 O9         7.2529   -4.3200    5.5951 O.2       1 RES1    0.0000
     10 N1         3.2695   -0.6584    8.1016 N.pl3     1 RES1    0.0000
     11 N2         6.1565   -4.0652    6.1365 N.pl3     1 RES1    0.0000
     12 C1        10.2495    1.5237    1.9636 C.2       1 RES1    0.0000
     13 C2        11.1484    2.5340    2.6641 C.3       1 RES1    0.0000
     14 C3        10.5005    3.9567    2.4261 C.3       1 RES1    0.0000
     15 C4         9.0616    3.8999    3.0584 C.3       1 RES1    0.0000
     16 C5         8.2176    2.7660    2.4882 C.3       1 RES1    0.0000
     17 C6         8.8779    1.3458    2.6141 C.3       1 RES1    0.0000
     18 C7         9.0997    1.0280    4.0728 C.2       1 RES1    0.0000
     19 C8        10.1754    1.4013    4.8340 C.2       1 RES1    0.0000
     20 C9        11.2351    2.2073    4.1653 C.2       1 RES1    0.0000
     21 C10       12.6058    2.3309    2.1410 C.2       1 RES1    0.0000
     22 C11       13.2700    0.9775    2.3609 C.3       1 RES1    0.0000
     23 C12       14.5358    1.1982    3.2479 C.3       1 RES1    0.0000
     24 C13       13.6956    0.3797    1.0099 C.3       1 RES1    0.0000
     25 C14       10.4122    4.2190    0.9204 C.3       1 RES1    0.0000
     26 C15       11.3442    5.0238    3.1721 C.3       1 RES1    0.0000
     27 C16       11.4972    6.3885    2.4837 C.3       1 RES1    0.0000
     28 C17       12.2699    7.3294    3.3647 C.2       1 RES1    0.0000
     29 C18       13.0028    8.3460    2.9583 C.2       1 RES1    0.0000
     30 C19       13.8311    9.1709    3.9515 C.3       1 RES1    0.0000
     31 C20       13.1624    8.7698    1.5512 C.3       1 RES1    0.0000
     32 C21        8.2673    5.2382    2.9613 C.3       1 RES1    0.0000
     33 C22        7.0506    5.1423    3.8287 C.2       1 RES1    0.0000
     34 C23        5.7852    5.2596    3.4875 C.2       1 RES1    0.0000
     35 C24        5.2638    5.5472    2.1349 C.3       1 RES1    0.0000
     36 C25        4.7146    5.1083    4.5246 C.3       1 RES1    0.0000
     37 C26        8.0858    0.2598    1.9227 C.3       1 RES1    0.0000
     38 C27        8.6310   -1.1200    2.1289 C.2       1 RES1    0.0000
     39 C28        8.0092   -2.2464    2.0243 C.2       1 RES1    0.0000
     40 C29        6.5434   -2.3801    1.6922 C.3       1 RES1    0.0000
     41 C30        8.7030   -3.5443    2.2472 C.3       1 RES1    0.0000
     42 C31       10.3903    1.0090    6.2441 C.3       1 RES1    0.0000
     43 C32       11.0696   -0.3797    6.0288 C.2       1 RES1    0.0000
     44 C33       10.4394   -1.4656    6.6899 C.2       1 RES1    0.0000
     45 C34        9.8156   -1.4076    7.9469 C.3       1 RES1    0.0000
     46 C35       11.1650   -2.8594    6.4321 C.3       1 RES1    0.0000
     47 C36        7.1406    0.7719    5.4132 C.2       1 RES1    0.0000
     48 C37        6.2952   -0.3393    5.9484 C.ar      1 RES1    0.0000
     49 C38        5.1684    0.0164    6.7051 C.ar      1 RES1    0.0000
     50 C39        4.4326   -1.0065    7.2767 C.ar      1 RES1    0.0000
     51 C40        4.7376   -2.3473    7.1266 C.ar      1 RES1    0.0000
     52 C41        5.8341   -2.6336    6.3184 C.ar      1 RES1    0.0000
     53 C42        6.6174   -1.6901    5.7650 C.ar      1 RES1    0.0000
     54 H1         9.2445    3.6704    3.9879 H         1 RES1    0.0000
     55 H2         7.9651    2.9893    1.5770 H         1 RES1    0.0000
     56 H3         7.4382    3.5821    3.0326 H         1 RES1    0.0000
     57 H4        12.6946    0.5802    3.0326 H         1 RES1    0.0000
     58 H5        14.3965    1.6397    4.0637 H         1 RES1    0.0000
     59 H6        15.2060    1.7784    2.7597 H         1 RES1    0.0000
     60 H7        15.0716    0.3027    3.2904 H         1 RES1    0.0000
     61 H8        14.1129   -0.4541    1.2282 H         1 RES1    0.0000
     62 H9        14.2849    1.0595    0.6672 H         1 RES1    0.0000
     63 H10       12.8882    0.1514    0.4701 H         1 RES1    0.0000
     64 H11       10.0445    4.9569    0.7581 H         1 RES1    0.0000
     65 H12        9.9247    3.4812    0.5004 H         1 RES1    0.0000
     66 H13       11.3312    4.2506    0.4701 H         1 RES1    0.0000
     67 H14       12.2228    4.6668    3.2449 H         1 RES1    0.0000
     68 H15       10.9837    5.0452    4.0940 H         1 RES1    0.0000
     69 H16       10.6319    6.7732    2.3351 H         1 RES1    0.0000
     70 H17       12.0216    6.2813    1.5163 H         1 RES1    0.0000
     71 H18       12.2445    7.0885    4.2911 H         1 RES1    0.0000
     72 H19       13.6839    8.7534    4.8673 H         1 RES1    0.0000
     73 H20       13.5578   10.0652    3.8211 H         1 RES1    0.0000
     74 H21       14.6988    9.0687    3.7604 H         1 RES1    0.0000
     75 H22       13.5908    9.7625    1.3798 H         1 RES1    0.0000
     76 H23       12.4450    8.6777    1.1827 H         1 RES1    0.0000
     77 H24       13.8139    8.3624    1.1827 H         1 RES1    0.0000
     78 H25        7.9706    5.3731    2.0622 H         1 RES1    0.0000
     79 H26        8.8831    5.9155    3.2752 H         1 RES1    0.0000
     80 H27        7.2131    4.9821    4.7763 H         1 RES1    0.0000
     81 H28        4.3214    5.3101    2.0470 H         1 RES1    0.0000
     82 H29        5.6220    4.7929    1.4860 H         1 RES1    0.0000
     83 H30        5.6582    6.0669    1.7437 H         1 RES1    0.0000
     84 H31        4.9825    4.8560    5.3374 H         1 RES1    0.0000
     85 H32        4.0890    4.4146    4.1850 H         1 RES1    0.0000
     86 H33        4.1760    5.9912    4.6550 H         1 RES1    0.0000
     87 H34        8.0677    0.4793    0.8946 H         1 RES1    0.0000
     88 H35        7.0954    0.2901    2.2290 H         1 RES1    0.0000
     89 H36        9.6204   -1.1226    2.3503 H         1 RES1    0.0000
     90 H37        6.1739   -1.5009    1.5466 H         1 RES1    0.0000
     91 H38        6.1431   -2.9136    2.5171 H         1 RES1    0.0000
     92 H39        6.3998   -2.9767    0.8491 H         1 RES1    0.0000
     93 H40        8.2295   -4.2380    1.9712 H         1 RES1    0.0000
     94 H41        9.0373   -3.6830    3.1084 H         1 RES1    0.0000
     95 H42        9.2379   -3.7208    1.5618 H         1 RES1    0.0000
     96 H43        9.8056    1.1099    6.6414 H         1 RES1    0.0000
     97 H44       11.2730    1.6271    6.7475 H         1 RES1    0.0000
     98 H45       11.6362   -0.4793    5.0189 H         1 RES1    0.0000
     99 H46        9.0880   -0.6180    7.9302 H         1 RES1    0.0000
    100 H47       10.6013   -1.3496    8.7339 H         1 RES1    0.0000
    101 H48        9.4066   -2.0559    8.2638 H         1 RES1    0.0000
    102 H49       10.8132   -3.6956    6.7475 H         1 RES1    0.0000
    103 H50       12.2602   -2.7622    7.0053 H         1 RES1    0.0000
    104 H51       11.2887   -2.9767    5.5951 H         1 RES1    0.0000
    105 H52        4.9698    1.0343    6.8082 H         1 RES1    0.0000
    106 H53        4.2883   -3.0650    7.5360 H         1 RES1    0.0000
    107 H54        7.4359   -1.9298    5.2464 H         1 RES1    0.0000
@<TRIPOS>BOND
     1    1   12 2
     2    2   20 2
     3    3   21 2
     4    4   18 1
     5    5   47 2
     6    6   10 2
     7    7   10 2
     8    8   11 2
     9    9   11 2
    10   10   50 1
    11   11   52 1
    12   12   13 1
    13   13   14 1
    14   14   15 1
    15   15   16 1
    16   16   17 1
    17   17   12 1
    18   18   17 1
    19   19   18 2
    20   20   13 1
    21   21   13 1
    22   22   21 1
    23   23   22 1
    24   24   22 1
    25   25   14 1
    26   26   14 1
    27   27   26 1
    28   28   27 1
    29   29   28 2
    30   30   29 1
    31   31   29 1
    32   32   15 1
    33   33   32 1
    34   34   33 2
    35   35   34 1
    36   36   34 1
    37   37   17 1
    38   38   37 1
    39   39   38 2
    40   40   39 1
    41   41   39 1
    42   42   19 1
    43   43   42 1
    44   44   43 2
    45   45   44 1
    46   46   44 1
    47   47    4 1
    48   48   47 1
    49   49   48 ar
    50   50   49 ar
    51   51   50 ar
    52   52   51 ar
    53   53   48 ar
    54   54   15 1
    55   55   16 1
    56   56   16 1
    57   57   22 1
    58   58   23 1
    59   59   23 1
    60   60   23 1
    61   61   24 1
    62   62   24 1
    63   63   24 1
    64   64   25 1
    65   65   25 1
    66   66   25 1
    67   67   26 1
    68   68   26 1
    69   69   27 1
    70   70   27 1
    71   71   28 1
    72   72   30 1
    73   73   30 1
    74   74   30 1
    75   75   31 1
    76   76   31 1
    77   77   31 1
    78   78   32 1
    79   79   32 1
    80   80   33 1
    81   81   35 1
    82   82   35 1
    83   83   35 1
    84   84   36 1
    85   85   36 1
    86   86   36 1
    87   87   37 1
    88   88   37 1
    89   89   38 1
    90   90   40 1
    91   91   40 1
    92   92   40 1
    93   93   41 1
    94   94   41 1
    95   95   41 1
    96   96   42 1
    97   97   42 1
    98   98   43 1
    99   99   45 1
   100  100   45 1
   101  101   45 1
   102  102   46 1
   103  103   46 1
   104  104   46 1
   105  105   49 1
   106  106   51 1
   107  107   53 1
   108   19   20 1
   109   52   53 ar
@<TRIPOS>SUBSTRUCTURE
     1 RES1 1

@<TRIPOS>CRYSIN
  10.4500   12.6130   17.2950  90.0000 118.7500  90.0000   4 1

