# MOL2 file generated by ConQuest
# Please check atom types

@<TRIPOS>MOLECULE
BETXUV
    31    32     1
SMALL
NO_CHARGES
****
Generated from CSD

@<TRIPOS>ATOM
      1 O1         5.2046   -1.8875   -1.4995 O.3       1 RES1    0.0000
      2 O2         6.2592   -2.8688   -1.7900 O.3       1 RES1    0.0000
      3 O3         4.8447   -4.0483   -3.2193 O.3       1 RES1    0.0000
      4 O4         0.7621   -1.4032   -0.0967 O.3       1 RES1    0.0000
      5 H1         0.0054   -1.8331    0.1512 H         1 RES1    0.0000
      6 O5         1.4564   -3.4680   -0.6398 O.2       1 RES1    0.0000
      7 O6        11.7593   -6.0360   -4.0029 O.2       1 RES1    0.0000
      8 O7        10.6559   -7.7761   -3.3178 O.2       1 RES1    0.0000
      9 N1        10.7296   -6.5866   -3.6144 N.pl3     1 RES1    0.0000
     10 C1         6.0478   -3.3399   -3.1208 C.3       1 RES1    0.0000
     11 H2         6.0276   -2.5419   -3.7399 H         1 RES1    0.0000
     12 C2         3.7260   -3.2190   -2.8404 C.3       1 RES1    0.0000
     13 H3         3.6311   -2.4930   -3.4932 H         1 RES1    0.0000
     14 H4         2.9569   -3.7640   -2.8726 H         1 RES1    0.0000
     15 C3         3.9689   -2.6311   -1.4635 C.3       1 RES1    0.0000
     16 H5         4.0784   -3.3668   -0.8256 H         1 RES1    0.0000
     17 C4         2.9207   -1.6400   -1.0157 C.2       1 RES1    0.0000
     18 C5         1.6463   -2.2615   -0.5632 C.2       1 RES1    0.0000
     19 C6         3.1028   -0.3287   -0.9829 C.2       1 RES1    0.0000
     20 H6         2.4146    0.2689   -0.6624 H         1 RES1    0.0000
     21 H7         3.9145    0.0855   -1.2771 H         1 RES1    0.0000
     22 C7         7.2328   -4.2522   -3.3359 C.ar      1 RES1    0.0000
     23 C8         8.3632   -3.7347   -3.9562 C.ar      1 RES1    0.0000
     24 H8         8.3396   -2.8413   -4.3327 H         1 RES1    0.0000
     25 C9         9.5219   -4.4905   -4.0353 C.ar      1 RES1    0.0000
     26 H9        10.3215   -4.1429   -4.4481 H         1 RES1    0.0000
     27 C10        9.5059   -5.7658   -3.5042 C.ar      1 RES1    0.0000
     28 C11        8.3932   -6.3145   -2.8861 C.ar      1 RES1    0.0000
     29 H10        8.4435   -7.1553   -2.5006 H         1 RES1    0.0000
     30 C12        7.2430   -5.5360   -2.8012 C.ar      1 RES1    0.0000
     31 H11        6.4418   -5.8904   -2.3355 H         1 RES1    0.0000
@<TRIPOS>BOND
     1    1    2 1
     2    2   10 1
     3    3   10 1
     4    4    5 1
     5    6   18 2
     6    7    9 2
     7    8    9 2
     8    9   27 1
     9   10   11 1
    10   12    3 1
    11   13   12 1
    12   14   12 1
    13   15    1 1
    14   16   15 1
    15   17   15 1
    16   18    4 1
    17   19   17 2
    18   20   19 1
    19   21   19 1
    20   22   10 1
    21   23   22 ar
    22   24   23 1
    23   25   23 ar
    24   26   25 1
    25   27   25 ar
    26   28   27 ar
    27   29   28 1
    28   30   22 ar
    29   31   30 1
    30   12   15 1
    31   17   18 1
    32   28   30 ar
@<TRIPOS>SUBSTRUCTURE
     1 RES1 1

@<TRIPOS>CRYSIN
   9.8007    6.1104   21.5634  90.0000 112.6990  90.0000  14 1

