# MOL2 file generated by ConQuest
# Please check atom types

@<TRIPOS>MOLECULE
BEVHUH
    41    45     1
SMALL
NO_CHARGES
****
Generated from CSD

@<TRIPOS>ATOM
      1 O1         1.7000    3.8310    7.6471 O.2       1 RES1    0.0000
      2 O2         1.4176    5.2810    6.0685 O.2       1 RES1    0.0000
      3 N1         1.7926    1.0505    6.3762 N.ar      1 RES1    0.0000
      4 N2         2.0211    4.3378    6.5812 N.pl3     1 RES1    0.0000
      5 C1         1.1058    0.0801    7.0717 C.ar      1 RES1    0.0000
      6 C2        -0.1292   -0.3283    6.5281 C.ar      1 RES1    0.0000
      7 H1        -0.4157    0.0414    5.7006 H         1 RES1    0.0000
      8 C3        -0.9233   -1.2373    7.1581 C.ar      1 RES1    0.0000
      9 H2        -1.7413   -1.5189    6.7655 H         1 RES1    0.0000
     10 C4        -0.5183   -1.7485    8.3873 C.ar      1 RES1    0.0000
     11 H3        -1.0845   -2.3531    8.8518 H         1 RES1    0.0000
     12 C5         0.6728   -1.3961    8.9319 C.ar      1 RES1    0.0000
     13 H4         0.9113   -1.7525    9.7800 H         1 RES1    0.0000
     14 C6         1.5788   -0.5125    8.2775 C.ar      1 RES1    0.0000
     15 C7         2.8738   -0.0868    8.7747 C.ar      1 RES1    0.0000
     16 C8         3.5679   -0.6647    9.9144 C.ar      1 RES1    0.0000
     17 C9         3.2308   -1.9326   10.4805 C.ar      1 RES1    0.0000
     18 H5         2.5567   -2.4639   10.0743 H         1 RES1    0.0000
     19 C10        3.8703   -2.3945   11.6043 C.ar      1 RES1    0.0000
     20 H6         3.6065   -3.2233   11.9859 H         1 RES1    0.0000
     21 C11        4.9042   -1.6604   12.1947 C.ar      1 RES1    0.0000
     22 H7         5.2999   -1.9607   13.0053 H         1 RES1    0.0000
     23 C12        5.3412   -0.5152   11.6015 C.ar      1 RES1    0.0000
     24 H8         6.0873   -0.0547   11.9688 H         1 RES1    0.0000
     25 C13        4.7030   -0.0013   10.4471 C.ar      1 RES1    0.0000
     26 C14        5.2093    1.1505    9.7973 C.ar      1 RES1    0.0000
     27 H9         5.9514    1.6096   10.1749 H         1 RES1    0.0000
     28 C15        4.6591    1.6110    8.6468 C.ar      1 RES1    0.0000
     29 H10        5.0561    2.3451    8.1931 H         1 RES1    0.0000
     30 C16        3.4880    0.9984    8.1185 C.ar      1 RES1    0.0000
     31 C17        2.8991    1.5002    6.8998 C.ar      1 RES1    0.0000
     32 C18        3.6318    2.5212    6.0854 C.ar      1 RES1    0.0000
     33 C19        4.7830    2.1248    5.4037 C.ar      1 RES1    0.0000
     34 H11        5.1094    1.2413    5.5241 H         1 RES1    0.0000
     35 C20        5.4651    2.9817    4.5572 C.ar      1 RES1    0.0000
     36 H12        6.2445    2.6854    4.1022 H         1 RES1    0.0000
     37 C21        5.0015    4.2684    4.3794 C.ar      1 RES1    0.0000
     38 H13        5.4718    4.8623    3.8061 H         1 RES1    0.0000
     39 C22        3.8730    4.6955    5.0191 C.ar      1 RES1    0.0000
     40 H14        3.5506    5.5790    4.8862 H         1 RES1    0.0000
     41 C23        3.2028    3.8266    5.8652 C.ar      1 RES1    0.0000
@<TRIPOS>BOND
     1    1    4 2
     2    2    4 2
     3    3    5 ar
     4    4   41 1
     5    5    6 ar
     6    6    7 1
     7    8    6 ar
     8    9    8 1
     9   10    8 ar
    10   11   10 1
    11   12   10 ar
    12   13   12 1
    13   14    5 ar
    14   15   14 ar
    15   16   15 ar
    16   17   16 ar
    17   18   17 1
    18   19   17 ar
    19   20   19 1
    20   21   19 ar
    21   22   21 1
    22   23   21 ar
    23   24   23 1
    24   25   16 ar
    25   26   25 ar
    26   27   26 1
    27   28   26 ar
    28   29   28 1
    29   30   15 ar
    30   31    3 ar
    31   32   31 1
    32   33   32 ar
    33   34   33 1
    34   35   33 ar
    35   36   35 1
    36   37   35 ar
    37   38   37 1
    38   39   37 ar
    39   40   39 1
    40   41   32 ar
    41   12   14 ar
    42   23   25 ar
    43   28   30 ar
    44   30   31 ar
    45   39   41 ar
@<TRIPOS>SUBSTRUCTURE
     1 RES1 1

@<TRIPOS>CRYSIN
  13.3230   13.3470   18.9830  90.0000  90.0000  90.0000  61 1

