# MOL2 file generated by ConQuest
# Please check atom types

@<TRIPOS>MOLECULE
BEVPEX
    35    37     1
SMALL
NO_CHARGES
****
Generated from CSD

@<TRIPOS>ATOM
      1 C1         2.1490    2.7840    7.6892 C.ar      1 RES1    0.0000
      2 C2         0.9969    2.2380    8.2776 C.ar      1 RES1    0.0000
      3 C3        -0.2126    2.3810    7.6203 C.ar      1 RES1    0.0000
      4 C4        -0.2667    3.0649    6.4217 C.ar      1 RES1    0.0000
      5 C5         0.8656    3.6081    5.8436 C.ar      1 RES1    0.0000
      6 C6         2.0975    3.4712    6.4654 C.ar      1 RES1    0.0000
      7 C7         1.0723    1.5151    9.5822 C.ar      1 RES1    0.0000
      8 C8         0.6284    0.2089    9.6798 C.ar      1 RES1    0.0000
      9 C9         0.6979   -0.4685   10.8763 C.ar      1 RES1    0.0000
     10 C10        1.2003    0.1468   11.9966 C.ar      1 RES1    0.0000
     11 C11        1.6320    1.4459   11.9224 C.ar      1 RES1    0.0000
     12 C12        1.5691    2.1300   10.7182 C.ar      1 RES1    0.0000
     13 C13        3.3197    4.0200    5.8165 C.ar      1 RES1    0.0000
     14 C14        3.5950    3.7193    4.4915 C.ar      1 RES1    0.0000
     15 C15        4.6933    4.2582    3.8510 C.ar      1 RES1    0.0000
     16 C16        5.5251    5.1068    4.5243 C.ar      1 RES1    0.0000
     17 C17        5.2794    5.4165    5.8477 C.ar      1 RES1    0.0000
     18 C18        4.1849    4.8715    6.4915 C.ar      1 RES1    0.0000
     19 N1        -1.5569    3.2347    5.7541 N.pl3     1 RES1    0.0000
     20 O1         3.3760    2.6528    8.2524 O.3       1 RES1    0.0000
     21 O2        -2.5492    2.7201    6.2496 O.2       1 RES1    0.0000
     22 O3        -1.5887    3.8880    4.7194 O.2       1 RES1    0.0000
     23 H1         3.3397    2.1791    8.8313 H         1 RES1    0.0000
     24 H2        -1.0291    1.9948    7.9968 H         1 RES1    0.0000
     25 H3         0.7840    4.0575    5.0271 H         1 RES1    0.0000
     26 H4         0.2646   -0.2262    8.8490 H         1 RES1    0.0000
     27 H5         0.3748   -1.3838   10.9325 H         1 RES1    0.0000
     28 H6         1.2583   -0.3325   12.8568 H         1 RES1    0.0000
     29 H7         1.9944    1.9480   12.6758 H         1 RES1    0.0000
     30 H8         1.8465    3.0087   10.6544 H         1 RES1    0.0000
     31 H9         3.0071    3.1188    4.0013 H         1 RES1    0.0000
     32 H10        4.8661    4.0127    2.8929 H         1 RES1    0.0000
     33 H11        6.2767    5.5086    4.1044 H         1 RES1    0.0000
     34 H12        5.8787    5.9889    6.3574 H         1 RES1    0.0000
     35 H13        3.9930    5.0945    7.4225 H         1 RES1    0.0000
@<TRIPOS>BOND
     1    1    2 ar
     2    2    3 ar
     3    3    4 ar
     4    4    5 ar
     5    5    6 ar
     6    6    1 ar
     7    7    2 1
     8    8    7 ar
     9    9    8 ar
    10   10    9 ar
    11   11   10 ar
    12   12    7 ar
    13   13    6 1
    14   14   13 ar
    15   15   14 ar
    16   16   15 ar
    17   17   16 ar
    18   18   13 ar
    19   19    4 1
    20   20    1 1
    21   21   19 2
    22   22   19 2
    23   23   20 1
    24   24    3 1
    25   25    5 1
    26   26    8 1
    27   27    9 1
    28   28   10 1
    29   29   11 1
    30   30   12 1
    31   31   14 1
    32   32   15 1
    33   33   16 1
    34   34   17 1
    35   35   18 1
    36   11   12 ar
    37   17   18 ar
@<TRIPOS>SUBSTRUCTURE
     1 RES1 1

@<TRIPOS>CRYSIN
  21.9830    9.2590   14.2080  90.0000  95.3200  90.0000  15 1

