# MOL2 file generated by ConQuest
# Please check atom types

@<TRIPOS>MOLECULE
BEWQEZ
    81    81     1
SMALL
NO_CHARGES
****
Generated from CSD

@<TRIPOS>ATOM
      1 O1         7.1713   11.1713    2.3202 O.3       1 RES1    0.0000
      2 O2         3.8210   11.5739    1.8729 O.3       1 RES1    0.0000
      3 O3         4.4750   11.8463    4.6356 O.3       1 RES1    0.0000
      4 O4         7.8566   11.5469    4.9897 O.3       1 RES1    0.0000
      5 C1         6.3328   11.9951    3.1834 C.3       1 RES1    0.0000
      6 C2         7.2124   12.6176    4.2626 C.3       1 RES1    0.0000
      7 C3         7.5906   11.4690    6.3353 C.2       1 RES1    0.0000
      8 C4         8.2175   13.6174    3.6107 C.3       1 RES1    0.0000
      9 C5         4.3833   10.4676    2.6181 C.3       1 RES1    0.0000
     10 N1        10.2817   12.3148    4.0266 N.pl3     1 RES1    0.0000
     11 O5         6.9699   12.3013    6.9416 O.2       1 RES1    0.0000
     12 C6         5.2581   11.0546    3.7182 C.3       1 RES1    0.0000
     13 C7         9.6179   13.7070    4.1722 C.3       1 RES1    0.0000
     14 O6         4.2040   10.5218   -0.0609 O.2       1 RES1    0.0000
     15 C8         4.2287   11.3033    5.8719 C.2       1 RES1    0.0000
     16 C9         3.2607    9.6472    3.1815 C.3       1 RES1    0.0000
     17 O7         6.8614   12.5838    0.6034 O.2       1 RES1    0.0000
     18 O8        10.2417   11.7938    2.9236 O.2       1 RES1    0.0000
     19 C10        9.6359   14.1621    5.6197 C.3       1 RES1    0.0000
     20 C11        7.3662   11.5959    1.0354 C.2       1 RES1    0.0000
     21 O9         2.5302    8.9909    2.1118 O.3       1 RES1    0.0000
     22 O10       10.8450   11.8412    4.9906 O.2       1 RES1    0.0000
     23 C12       10.4719   14.6408    3.2490 C.3       1 RES1    0.0000
     24 C13        7.7411   15.6693    5.0230 C.2       1 RES1    0.0000
     25 C14        7.5790   15.0011    3.6754 C.3       1 RES1    0.0000
     26 C15       12.6178   15.5407    2.3516 C.2       1 RES1    0.0000
     27 O11        4.5376   10.2071    6.1650 O.2       1 RES1    0.0000
     28 C16        8.6653   15.2904    5.8766 C.2       1 RES1    0.0000
     29 C17        8.3140   10.6858    0.3226 C.3       1 RES1    0.0000
     30 C18       11.9540   14.6645    3.4346 C.3       1 RES1    0.0000
     31 O12       13.8458   15.7860    2.6561 O.3       1 RES1    0.0000
     32 C19        8.1808   10.2308    6.9244 C.3       1 RES1    0.0000
     33 C20        3.8140   11.4758    0.5253 C.2       1 RES1    0.0000
     34 C21        3.0293    7.8186    1.6702 C.2       1 RES1    0.0000
     35 C22        3.5611   12.3047    6.7474 C.3       1 RES1    0.0000
     36 O13       12.0502   15.9332    1.4009 O.2       1 RES1    0.0000
     37 C23        8.8761   15.9061    7.2537 C.3       1 RES1    0.0000
     38 O14        4.0133    7.3263    2.1175 O.2       1 RES1    0.0000
     39 C24        2.1659    7.2857    0.5805 C.3       1 RES1    0.0000
     40 C25        6.7339   16.7705    5.3132 C.3       1 RES1    0.0000
     41 C26        3.2863   12.7039   -0.0980 C.3       1 RES1    0.0000
     42 C27       14.4666   16.6453    1.6664 C.3       1 RES1    0.0000
     43 H1         5.9173   12.6870    2.6647 H         1 RES1    0.0000
     44 H2         6.6523   13.1048    4.8707 H         1 RES1    0.0000
     45 H3         8.2952   13.3789    2.6837 H         1 RES1    0.0000
     46 H4         4.9224    9.9331    2.0318 H         1 RES1    0.0000
     47 H5         5.6814   10.3424    4.2036 H         1 RES1    0.0000
     48 H6         2.6736   10.1902    3.7116 H         1 RES1    0.0000
     49 H7         3.6278    8.9621    3.7458 H         1 RES1    0.0000
     50 H8        10.5241   14.4446    5.8481 H         1 RES1    0.0000
     51 H9         9.4100   13.4127    6.1755 H         1 RES1    0.0000
     52 H10       10.1585   15.5407    3.3623 H         1 RES1    0.0000
     53 H11       10.3089   14.3904    2.3364 H         1 RES1    0.0000
     54 H12        6.6393   14.9047    3.5022 H         1 RES1    0.0000
     55 H13        7.9455   15.5712    2.9968 H         1 RES1    0.0000
     56 H14        8.4334   10.9920   -0.5805 H         1 RES1    0.0000
     57 H15        9.1598   10.6892    0.7756 H         1 RES1    0.0000
     58 H16        7.9591    9.7944    0.3141 H         1 RES1    0.0000
     59 H17       12.2911   13.7662    3.3851 H         1 RES1    0.0000
     60 H18       12.1598   15.0231    4.3006 H         1 RES1    0.0000
     61 H19        8.0072   10.1648    7.8666 H         1 RES1    0.0000
     62 H20        7.8159    9.4628    6.4781 H         1 RES1    0.0000
     63 H21        9.1281   10.2663    6.7760 H         1 RES1    0.0000
     64 H22        3.3648   11.9393    7.6134 H         1 RES1    0.0000
     65 H23        4.1418   13.0625    6.8454 H         1 RES1    0.0000
     66 H24        2.7452   12.5804    6.3239 H         1 RES1    0.0000
     67 H25        8.2359   16.6132    7.3603 H         1 RES1    0.0000
     68 H26        8.7328   15.2396    7.9294 H         1 RES1    0.0000
     69 H27        9.7635   16.2630    7.3384 H         1 RES1    0.0000
     70 H28        2.5175    6.4501    0.2674 H         1 RES1    0.0000
     71 H29        1.2732    7.1538    0.9108 H         1 RES1    0.0000
     72 H30        2.1498    7.9167   -0.1428 H         1 RES1    0.0000
     73 H31        6.8907   17.1562    6.1783 H         1 RES1    0.0000
     74 H32        6.8364   17.4472    4.6385 H         1 RES1    0.0000
     75 H33        5.8426   16.4170    5.2771 H         1 RES1    0.0000
     76 H34        3.2761   12.6278   -1.0554 H         1 RES1    0.0000
     77 H35        2.3908   12.8325    0.2227 H         1 RES1    0.0000
     78 H36        3.8279   13.4550    0.1570 H         1 RES1    0.0000
     79 H37       15.3865   16.7942    1.9005 H         1 RES1    0.0000
     80 H38       14.4196   16.2224    0.8070 H         1 RES1    0.0000
     81 H39       14.0045   17.4861    1.6350 H         1 RES1    0.0000
@<TRIPOS>BOND
     1    1    5 1
     2    2    9 1
     3    3   12 1
     4    4    6 1
     5    5    6 1
     6    6    8 1
     7    7    4 1
     8    8   13 1
     9    9   12 1
    10   10   13 1
    11   11    7 2
    12   12    5 1
    13   13   19 1
    14   14   33 2
    15   15    3 1
    16   16    9 1
    17   17   20 2
    18   18   10 2
    19   19   28 1
    20   20    1 1
    21   21   16 1
    22   22   10 2
    23   23   13 1
    24   24   25 1
    25   25    8 1
    26   26   30 1
    27   27   15 2
    28   28   24 2
    29   29   20 1
    30   30   23 1
    31   31   26 1
    32   32    7 1
    33   33    2 1
    34   34   21 1
    35   35   15 1
    36   36   26 2
    37   37   28 1
    38   38   34 2
    39   39   34 1
    40   40   24 1
    41   41   33 1
    42   42   31 1
    43   43    5 1
    44   44    6 1
    45   45    8 1
    46   46    9 1
    47   47   12 1
    48   48   16 1
    49   49   16 1
    50   50   19 1
    51   51   19 1
    52   52   23 1
    53   53   23 1
    54   54   25 1
    55   55   25 1
    56   56   29 1
    57   57   29 1
    58   58   29 1
    59   59   30 1
    60   60   30 1
    61   61   32 1
    62   62   32 1
    63   63   32 1
    64   64   35 1
    65   65   35 1
    66   66   35 1
    67   67   37 1
    68   68   37 1
    69   69   37 1
    70   70   39 1
    71   71   39 1
    72   72   39 1
    73   73   40 1
    74   74   40 1
    75   75   40 1
    76   76   41 1
    77   77   41 1
    78   78   41 1
    79   79   42 1
    80   80   42 1
    81   81   42 1
@<TRIPOS>SUBSTRUCTURE
     1 RES1 1

@<TRIPOS>CRYSIN
   9.8800   16.9160   10.0060  90.0000 107.9900  90.0000   4 1

