# MOL2 file generated by ConQuest
# Please check atom types

@<TRIPOS>MOLECULE
BEWRAZ
    34    36     1
SMALL
NO_CHARGES
****
Generated from CSD

@<TRIPOS>ATOM
      1 C1         5.7632    2.7613    4.7606 C.ar      1 RES1    0.0000
      2 C2         5.7029    4.1228    4.7929 C.ar      1 RES1    0.0000
      3 H1         6.2852    4.6126    5.3281 H         1 RES1    0.0000
      4 C3         4.7653    4.7548    4.0188 C.ar      1 RES1    0.0000
      5 H2         4.7023    5.6834    4.0391 H         1 RES1    0.0000
      6 C4         3.9163    4.0346    3.2146 C.ar      1 RES1    0.0000
      7 C5         3.9907    2.6634    3.2243 C.ar      1 RES1    0.0000
      8 H3         3.4057    2.1686    2.6975 H         1 RES1    0.0000
      9 C6         4.9130    2.0140    3.9985 C.ar      1 RES1    0.0000
     10 H4         4.9598    1.0849    4.0053 H         1 RES1    0.0000
     11 C7         2.9207    4.7421    2.3593 C.3       1 RES1    0.0000
     12 H5         2.6951    4.1699    1.5964 H         1 RES1    0.0000
     13 C8         1.6403    5.0734    3.1229 C.3       1 RES1    0.0000
     14 H6         1.8708    5.5598    3.9421 H         1 RES1    0.0000
     15 C9         0.7425    5.9246    2.2833 C.2       1 RES1    0.0000
     16 C10       -0.5301    5.6022    2.1315 C.2       1 RES1    0.0000
     17 H7        -1.0529    6.1223    1.5656 H         1 RES1    0.0000
     18 C11       -1.1587    4.4607    2.8132 C.3       1 RES1    0.0000
     19 H8        -1.3106    3.7439    2.1774 H         1 RES1    0.0000
     20 H9        -2.0172    4.7297    3.1762 H         1 RES1    0.0000
     21 C12       -0.2764    3.9730    3.9181 C.3       1 RES1    0.0000
     22 H10       -0.3080    4.5997    4.6584 H         1 RES1    0.0000
     23 H11       -0.5978    3.1145    4.2360 H         1 RES1    0.0000
     24 C13        2.6843    6.5960    0.9500 C.3       1 RES1    0.0000
     25 H12        2.4510    5.9910    0.2285 H         1 RES1    0.0000
     26 H13        3.1561    7.3539    0.5690 H         1 RES1    0.0000
     27 C14        1.4354    7.0718    1.6355 C.3       1 RES1    0.0000
     28 H14        1.6635    7.7362    2.3044 H         1 RES1    0.0000
     29 H15        0.8446    7.4865    0.9876 H         1 RES1    0.0000
     30 N1         6.7691    2.0775    5.5708 N.pl3     1 RES1    0.0000
     31 O1         6.9072    0.8858    5.4438 O.2       1 RES1    0.0000
     32 O2         7.4183    2.7476    6.3510 O.2       1 RES1    0.0000
     33 O3         1.0617    3.8394    3.4651 O.3       1 RES1    0.0000
     34 O4         3.5202    5.9310    1.8771 O.3       1 RES1    0.0000
@<TRIPOS>BOND
     1    1    2 ar
     2    2    3 1
     3    4    2 ar
     4    5    4 1
     5    6    4 ar
     6    7    6 ar
     7    8    7 1
     8    9    1 ar
     9   10    9 1
    10   11    6 1
    11   12   11 1
    12   13   11 1
    13   14   13 1
    14   15   13 1
    15   16   15 2
    16   17   16 1
    17   18   16 1
    18   19   18 1
    19   20   18 1
    20   21   18 1
    21   22   21 1
    22   23   21 1
    23   24   25 1
    24   26   24 1
    25   27   15 1
    26   28   27 1
    27   29   27 1
    28   30    1 1
    29   31   30 2
    30   32   30 2
    31   33   13 1
    32   34   11 1
    33    7    9 ar
    34   21   33 1
    35   24   27 1
    36   24   34 1
@<TRIPOS>SUBSTRUCTURE
     1 RES1 1

@<TRIPOS>CRYSIN
  13.1300   12.8700    7.8000  90.0000 105.5100  90.0000  14 1

