# MOL2 file generated by ConQuest
# Please check atom types

@<TRIPOS>MOLECULE
BEXGOB
    88    94     2
SMALL
NO_CHARGES
****
Generated from CSD

@<TRIPOS>ATOM
      1 O1         4.2000   11.7440    3.0067 O.2       1 RES1    0.0000
      2 N1         5.1888   11.3053    3.5363 N.pl3     1 RES1    0.0000
      3 C1         5.0151   10.2744    4.5444 C.ar      1 RES1    0.0000
      4 O2         6.3157   11.6496    3.2789 O.2       1 RES1    0.0000
      5 C2         4.6777   10.6712    5.8134 C.ar      1 RES1    0.0000
      6 C3         4.5169    9.6834    6.7602 C.ar      1 RES1    0.0000
      7 H1         4.3016    9.9219    7.6324 H         1 RES1    0.0000
      8 C4         4.6656    8.3573    6.4488 C.ar      1 RES1    0.0000
      9 C5         4.9871    8.0066    5.1585 C.ar      1 RES1    0.0000
     10 H2         5.0863    7.1062    4.9450 H         1 RES1    0.0000
     11 C6         5.1659    8.9553    4.1764 C.ar      1 RES1    0.0000
     12 O3         5.1076   13.0197    5.5674 O.3       1 RES1    0.0000
     13 C7         4.4564   12.0346    6.2243 C.2       1 RES1    0.0000
     14 C8         3.7060   12.5512    7.1937 C.2       1 RES1    0.0000
     15 H3         3.1658   12.0832    7.7893 H         1 RES1    0.0000
     16 C9         3.8905   13.9411    7.1420 C.2       1 RES1    0.0000
     17 H4         3.4912   14.5718    7.6976 H         1 RES1    0.0000
     18 C10        4.7422   14.1886    6.1524 C.2       1 RES1    0.0000
     19 C11        5.3421   15.3967    5.5972 C.3       1 RES1    0.0000
     20 H5         5.0106   16.1640    6.0676 H         1 RES1    0.0000
     21 H6         5.1140   15.4681    4.6679 H         1 RES1    0.0000
     22 H7         6.2968   15.3529    5.6907 H         1 RES1    0.0000
     23 O4         5.1513    7.2195    2.5982 O.3       1 RES1    0.0000
     24 C12        5.4475    8.5219    2.8333 C.2       1 RES1    0.0000
     25 C13        5.9013    9.0804    1.7095 C.2       1 RES1    0.0000
     26 H8         6.1875    9.9588    1.6035 H         1 RES1    0.0000
     27 C14        5.8654    8.0926    0.7205 C.2       1 RES1    0.0000
     28 H9         6.1122    8.1914   -0.1711 H         1 RES1    0.0000
     29 C15        5.4111    6.9852    1.2997 C.2       1 RES1    0.0000
     30 C16        5.1747    5.6202    0.8317 C.3       1 RES1    0.0000
     31 H10        5.2916    5.5831   -0.1202 H         1 RES1    0.0000
     32 H11        4.2783    5.3573    1.0534 H         1 RES1    0.0000
     33 H12        5.7974    5.0255    1.2531 H         1 RES1    0.0000
     34 C17        4.4992    7.3380    7.4829 C.ar      1 RES1    0.0000
     35 C18        4.8736    7.5870    8.7830 C.ar      1 RES1    0.0000
     36 H13        5.2686    8.4011    8.9996 H         1 RES1    0.0000
     37 C19        4.6739    6.6564    9.7608 C.ar      1 RES1    0.0000
     38 H14        4.9200    6.8435   10.6377 H         1 RES1    0.0000
     39 C20        4.1109    5.4506    9.4488 C.ar      1 RES1    0.0000
     40 H15        3.9786    4.8135   10.1120 H         1 RES1    0.0000
     41 C21        3.7458    5.1861    8.1646 C.ar      1 RES1    0.0000
     42 H16        3.3630    4.3665    7.9523 H         1 RES1    0.0000
     43 C22        3.9392    6.1223    7.1825 C.ar      1 RES1    0.0000
     44 H17        3.6886    5.9333    6.3081 H         1 RES1    0.0000
     45 O5         0.4087    5.6140    3.1190 O.2       2 RES2    0.0000
     46 N2         1.4246    6.0121    3.6349 N.pl3     2 RES2    0.0000
     47 C23        1.3033    7.0744    4.6202 C.ar      2 RES2    0.0000
     48 O6         2.5299    5.6105    3.3757 O.2       2 RES2    0.0000
     49 C24        1.4994    8.3737    4.2078 C.ar      2 RES2    0.0000
     50 C25        1.3617    9.3578    5.1569 C.ar      2 RES2    0.0000
     51 H18        1.4895   10.2445    4.9103 H         2 RES2    0.0000
     52 C26        1.0389    9.0682    6.4625 C.ar      2 RES2    0.0000
     53 C27        0.8474    7.7594    6.8209 C.ar      2 RES2    0.0000
     54 H19        0.6316    7.5578    7.7037 H         2 RES2    0.0000
     55 C28        0.9659    6.7352    5.9087 C.ar      2 RES2    0.0000
     56 O7         1.6255   10.0654    2.5839 O.3       2 RES2    0.0000
     57 C29        1.8195    8.7525    2.8525 C.2       2 RES2    0.0000
     58 C30        2.2683    8.1403    1.7551 C.2       2 RES2    0.0000
     59 H20        2.4885    7.2398    1.6728 H         2 RES2    0.0000
     60 C31        2.3449    9.1127    0.7543 C.2       2 RES2    0.0000
     61 H21        2.6179    8.9818   -0.1243 H         2 RES2    0.0000
     62 C32        1.9538   10.2539    1.2934 C.2       2 RES2    0.0000
     63 C33        1.8251   11.6185    0.7826 C.3       2 RES2    0.0000
     64 H22        2.0444   11.6316   -0.1528 H         2 RES2    0.0000
     65 H23        2.4237   12.1961    1.2612 H         2 RES2    0.0000
     66 H24        0.9222   11.9219    0.9046 H         2 RES2    0.0000
     67 O8         1.3583    4.3794    5.7164 O.3       2 RES2    0.0000
     68 C34        0.7259    5.3886    6.3671 C.2       2 RES2    0.0000
     69 C35        0.0037    4.8999    7.3678 C.2       2 RES2    0.0000
     70 H25       -0.5170    5.3849    7.9666 H         2 RES2    0.0000
     71 C36        0.1803    3.5049    7.3419 C.2       2 RES2    0.0000
     72 H26       -0.2085    2.8895    7.9197 H         2 RES2    0.0000
     73 C37        1.0067    3.2280    6.3364 C.2       2 RES2    0.0000
     74 C38        1.5927    2.0021    5.7956 C.3       2 RES2    0.0000
     75 H27        1.2511    1.2443    6.2775 H         2 RES2    0.0000
     76 H28        2.5476    2.0369    5.8863 H         2 RES2    0.0000
     77 H29        1.3624    1.9194    4.8676 H         2 RES2    0.0000
     78 C39        0.9348   10.1350    7.4535 C.ar      2 RES2    0.0000
     79 C40        0.3959   11.3528    7.1120 C.ar      2 RES2    0.0000
     80 H30        0.0992   11.4957    6.2429 H         2 RES2    0.0000
     81 C41        0.2898   12.3574    8.0383 C.ar      2 RES2    0.0000
     82 H31       -0.0882   13.1731    7.8015 H         2 RES2    0.0000
     83 C42        0.7373   12.1572    9.3019 C.ar      2 RES2    0.0000
     84 H32        0.6708   12.8390    9.9307 H         2 RES2    0.0000
     85 C43        1.2842   10.9611    9.6573 C.ar      2 RES2    0.0000
     86 H33        1.5926   10.8343   10.5256 H         2 RES2    0.0000
     87 C44        1.3830    9.9493    8.7463 C.ar      2 RES2    0.0000
     88 H34        1.7522    9.1338    8.9975 H         2 RES2    0.0000
@<TRIPOS>BOND
     1    1    2 2
     2    2    3 1
     3    3    5 ar
     4    4    2 2
     5    5    6 ar
     6    6    7 1
     7    8    6 ar
     8    9    8 ar
     9   10    9 1
    10   11    3 ar
    11   12   13 1
    12   13    5 1
    13   14   13 2
    14   15   14 1
    15   16   14 1
    16   17   16 1
    17   18   12 1
    18   19   18 1
    19   20   19 1
    20   21   19 1
    21   22   19 1
    22   23   24 1
    23   24   11 1
    24   25   24 2
    25   26   25 1
    26   27   25 1
    27   28   27 1
    28   29   23 1
    29   30   29 1
    30   31   30 1
    31   32   30 1
    32   33   30 1
    33   34    8 1
    34   35   34 ar
    35   36   35 1
    36   37   35 ar
    37   38   37 1
    38   39   37 ar
    39   40   39 1
    40   41   39 ar
    41   42   41 1
    42   43   34 ar
    43   44   43 1
    44   45   46 2
    45   46   47 1
    46   47   49 ar
    47   48   46 2
    48   49   50 ar
    49   50   51 1
    50   52   50 ar
    51   53   52 ar
    52   54   53 1
    53   55   47 ar
    54   56   57 1
    55   57   49 1
    56   58   57 2
    57   59   58 1
    58   60   58 1
    59   61   60 1
    60   62   56 1
    61   63   62 1
    62   64   63 1
    63   65   63 1
    64   66   63 1
    65   67   68 1
    66   68   55 1
    67   69   68 2
    68   70   69 1
    69   71   69 1
    70   72   71 1
    71   73   67 1
    72   74   73 1
    73   75   74 1
    74   76   74 1
    75   77   74 1
    76   78   52 1
    77   79   78 ar
    78   80   79 1
    79   81   79 ar
    80   82   81 1
    81   83   81 ar
    82   84   83 1
    83   85   83 ar
    84   86   85 1
    85   87   78 ar
    86   88   87 1
    87    9   11 ar
    88   16   18 2
    89   27   29 2
    90   41   43 ar
    91   53   55 ar
    92   60   62 2
    93   71   73 2
    94   85   87 ar
@<TRIPOS>SUBSTRUCTURE
     1 RES1 1
     2 RES2 45

@<TRIPOS>CRYSIN
   7.2700   23.0420   20.4030  90.0000  93.0100  90.0000 231 1

