# MOL2 file generated by ConQuest
# Please check atom types

@<TRIPOS>MOLECULE
BEXGUH
    47    50     1
SMALL
NO_CHARGES
****
Generated from CSD

@<TRIPOS>ATOM
      1 O1        10.3088    0.3403    6.6372 O.2       1 RES1    0.0000
      2 C1         8.5178   -1.8474    7.6698 C.3       1 RES1    0.0000
      3 N1        10.5443   -0.3629    7.6087 N.pl3     1 RES1    0.0000
      4 C2         8.0268   -1.1112    8.8876 C.2       1 RES1    0.0000
      5 H1         8.4953   -1.2222    9.7064 H         1 RES1    0.0000
      6 O2        11.1198    0.0345    8.6060 O.2       1 RES1    0.0000
      7 C3         6.9622   -0.3094    8.8649 C.2       1 RES1    0.0000
      8 O3         6.2387   -0.0373    7.7278 O.3       1 RES1    0.0000
      9 C4         6.7728   -0.4774    6.5356 C.2       1 RES1    0.0000
     10 C5         7.8481   -1.2525    6.4542 C.2       1 RES1    0.0000
     11 H2         8.2110   -1.4406    5.5964 H         1 RES1    0.0000
     12 C6        10.0632   -1.7755    7.5839 C.3       1 RES1    0.0000
     13 H3        10.4576   -2.2696    8.3456 H         1 RES1    0.0000
     14 H4        10.3653   -2.2102    6.7478 H         1 RES1    0.0000
     15 C7         8.1908   -3.3576    7.6970 C.ar      1 RES1    0.0000
     16 C8         8.5062   -4.1427    6.5864 C.ar      1 RES1    0.0000
     17 H5         8.9840   -3.7586    5.8600 H         1 RES1    0.0000
     18 C9         8.1313   -5.4759    6.5304 C.ar      1 RES1    0.0000
     19 H6         8.3416   -5.9946    5.7630 H         1 RES1    0.0000
     20 C10        7.4517   -6.0538    7.5885 C.ar      1 RES1    0.0000
     21 H7         7.1885   -6.9654    7.5477 H         1 RES1    0.0000
     22 C11        7.1588   -5.2944    8.7019 C.ar      1 RES1    0.0000
     23 H8         6.7073   -5.6911    9.4377 H         1 RES1    0.0000
     24 C12        7.5197   -3.9515    8.7561 C.ar      1 RES1    0.0000
     25 H9         7.3043   -3.4371    9.5256 H         1 RES1    0.0000
     26 C13        6.3676    0.3865    9.9908 C.2       1 RES1    0.0000
     27 O4         6.9430    0.2007   11.2211 O.3       1 RES1    0.0000
     28 C14        6.1923    0.9301   12.1149 C.2       1 RES1    0.0000
     29 C15        5.1841    1.5389   11.4729 C.2       1 RES1    0.0000
     30 H10        4.5215    2.0949   11.8651 H         1 RES1    0.0000
     31 C16        5.2916    1.1970   10.0899 C.2       1 RES1    0.0000
     32 H11        4.7225    1.4814    9.3846 H         1 RES1    0.0000
     33 C17        6.6372    0.9003   13.5290 C.3       1 RES1    0.0000
     34 H12        6.0482    1.4674   14.0687 H         1 RES1    0.0000
     35 H13        7.5566    1.2340   13.5896 H         1 RES1    0.0000
     36 H14        6.6003   -0.0198   13.8634 H         1 RES1    0.0000
     37 C18        5.9615    0.0019    5.4334 C.2       1 RES1    0.0000
     38 O5         6.3332   -0.3379    4.1550 O.3       1 RES1    0.0000
     39 C19        5.3783    0.2053    3.3145 C.2       1 RES1    0.0000
     40 C20        4.4586    0.8662    4.0408 C.2       1 RES1    0.0000
     41 H15        3.7062    1.3364    3.7034 H         1 RES1    0.0000
     42 C21        4.8249    0.7286    5.4108 C.2       1 RES1    0.0000
     43 H16        4.3595    1.0796    6.1614 H         1 RES1    0.0000
     44 C22        5.5328   -0.0552    1.8623 C.3       1 RES1    0.0000
     45 H17        4.7678    0.3220    1.3792 H         1 RES1    0.0000
     46 H18        5.5729   -1.0214    1.7061 H         1 RES1    0.0000
     47 H19        6.3588    0.3627    1.5416 H         1 RES1    0.0000
@<TRIPOS>BOND
     1    1    3 2
     2    2    4 1
     3    3    6 2
     4    4    5 1
     5    7    4 2
     6    8    7 1
     7    9    8 1
     8   10    2 1
     9   11   10 1
    10   12    2 1
    11   13   12 1
    12   14   12 1
    13   15    2 1
    14   16   15 ar
    15   17   16 1
    16   18   16 ar
    17   19   18 1
    18   20   18 ar
    19   21   20 1
    20   22   20 ar
    21   23   22 1
    22   24   15 ar
    23   25   24 1
    24   26    7 1
    25   27   26 1
    26   28   27 1
    27   29   28 2
    28   30   29 1
    29   31   26 2
    30   32   31 1
    31   33   28 1
    32   34   33 1
    33   35   33 1
    34   36   33 1
    35   37    9 1
    36   38   37 1
    37   39   38 1
    38   40   39 2
    39   41   40 1
    40   42   37 2
    41   43   42 1
    42   44   39 1
    43   45   44 1
    44   46   44 1
    45   47   44 1
    46    3   12 1
    47    9   10 2
    48   22   24 ar
    49   29   31 1
    50   40   42 1
@<TRIPOS>SUBSTRUCTURE
     1 RES1 1

@<TRIPOS>CRYSIN
   9.9311   10.4178   10.5242 100.4360  93.2970 117.1850   2 1

