# MOL2 file generated by ConQuest
# Please check atom types

@<TRIPOS>MOLECULE
BEXLUL02
    84    90     2
SMALL
NO_CHARGES
****
Generated from CSD

@<TRIPOS>ATOM
      1 O1        10.4867    7.2308    7.5940 O.3       1 RES1    0.0000
      2 O2        15.4036    9.4285    4.4539 O.2       1 RES1    0.0000
      3 O3        15.9903    7.3580    4.6478 O.2       1 RES1    0.0000
      4 N1         8.7308    5.7638    8.0816 N.3       1 RES1    0.0000
      5 N2        15.1969    8.2798    4.8262 N.pl3     1 RES1    0.0000
      6 C1        10.1617    5.8936    8.1600 C.3       1 RES1    0.0000
      7 C2        10.4483    5.9187    9.6982 C.3       1 RES1    0.0000
      8 C3         9.1195    6.3833   10.2465 C.ar      1 RES1    0.0000
      9 C4         8.7683    6.7541   11.5310 C.ar      1 RES1    0.0000
     10 H1         9.4156    6.8173   12.1952 H         1 RES1    0.0000
     11 C5         7.4330    7.0322   11.8193 C.ar      1 RES1    0.0000
     12 H2         7.1846    7.2798   12.6805 H         1 RES1    0.0000
     13 C6         6.4894    6.9395   10.8293 C.ar      1 RES1    0.0000
     14 H3         5.6027    7.1314   11.0345 H         1 RES1    0.0000
     15 C7         6.8180    6.5676    9.5206 C.ar      1 RES1    0.0000
     16 H4         6.1697    6.5196    8.8543 H         1 RES1    0.0000
     17 C8         8.1514    6.2710    9.2548 C.ar      1 RES1    0.0000
     18 C9        11.6249    6.8152   10.0756 C.3       1 RES1    0.0000
     19 H5        12.4116    6.5229    9.6105 H         1 RES1    0.0000
     20 H6        11.7744    6.7650   11.0233 H         1 RES1    0.0000
     21 H7        11.4273    7.7225    9.8306 H         1 RES1    0.0000
     22 C10       10.7170    4.4933   10.2221 C.3       1 RES1    0.0000
     23 H8        10.0128    3.9076    9.9341 H         1 RES1    0.0000
     24 H9        10.7506    4.5053   11.1813 H         1 RES1    0.0000
     25 H10       11.5555    4.1770    9.8758 H         1 RES1    0.0000
     26 C11        8.0642    5.8991    6.8011 C.3       1 RES1    0.0000
     27 H11        7.9888    6.8293    6.5763 H         1 RES1    0.0000
     28 H12        7.1889    5.5097    6.8528 H         1 RES1    0.0000
     29 H13        8.5749    5.4475    6.1249 H         1 RES1    0.0000
     30 C12       10.8776    4.8106    7.4123 C.2       1 RES1    0.0000
     31 H14       10.5502    3.9414    7.4661 H         1 RES1    0.0000
     32 C13       11.9596    5.0408    6.6770 C.2       1 RES1    0.0000
     33 H15       12.4139    4.3264    6.2942 H         1 RES1    0.0000
     34 C14       12.4400    6.3876    6.4646 C.ar      1 RES1    0.0000
     35 C15       13.6207    6.6777    5.7872 C.ar      1 RES1    0.0000
     36 H16       14.1835    5.9918    5.5079 H         1 RES1    0.0000
     37 C16       13.9475    7.9985    5.5344 C.ar      1 RES1    0.0000
     38 C17       13.1331    9.0498    5.9268 C.ar      1 RES1    0.0000
     39 H17       13.3633    9.9266    5.7223 H         1 RES1    0.0000
     40 C18       11.9727    8.7739    6.6275 C.ar      1 RES1    0.0000
     41 H18       11.4196    9.4664    6.9093 H         1 RES1    0.0000
     42 C19       11.6366    7.4499    6.9080 C.ar      1 RES1    0.0000
     43 O4         8.2418    1.7983   10.2048 O.3       2 RES2    0.0000
     44 O5         3.8461    1.9585   14.6246 O.2       2 RES2    0.0000
     45 O6         4.3648    4.0463   14.5336 O.2       2 RES2    0.0000
     46 N3        10.0480    0.3272    9.8859 N.3       2 RES2    0.0000
     47 N4         4.5181    2.8901   14.1822 N.pl3     2 RES2    0.0000
     48 C20        8.6137    0.4461    9.7381 C.3       2 RES2    0.0000
     49 C21        8.3989    0.4308    8.1873 C.3       2 RES2    0.0000
     50 C22        9.7477    0.8932    7.6929 C.ar      2 RES2    0.0000
     51 C23       10.1758    1.2651    6.4349 C.ar      2 RES2    0.0000
     52 H19        9.5720    1.3109    5.7298 H         2 RES2    0.0000
     53 C24       11.5180    1.5726    6.2300 C.ar      2 RES2    0.0000
     54 H20       11.8140    1.8115    5.3818 H         2 RES2    0.0000
     55 C25       12.4070    1.5257    7.2746 C.ar      2 RES2    0.0000
     56 H21       13.2980    1.7493    7.1256 H         2 RES2    0.0000
     57 C26       12.0009    1.1506    8.5505 C.ar      2 RES2    0.0000
     58 H22       12.6034    1.1255    9.2588 H         2 RES2    0.0000
     59 C27       10.6669    0.8147    8.7347 C.ar      2 RES2    0.0000
     60 C28        8.1414   -0.9935    7.6706 C.3       2 RES2    0.0000
     61 H23        7.2853   -1.2956    7.9796 H         2 RES2    0.0000
     62 H24        8.8263   -1.5814    7.9984 H         2 RES2    0.0000
     63 H25        8.1521   -0.9924    6.7099 H         2 RES2    0.0000
     64 C29        7.2368    1.3316    7.7454 C.3       2 RES2    0.0000
     65 H26        7.4622    2.2488    7.9138 H         2 RES2    0.0000
     66 H27        6.4470    1.0993    8.2392 H         2 RES2    0.0000
     67 H28        7.0752    1.2084    6.8077 H         2 RES2    0.0000
     68 C30       10.6383    0.5322   11.1912 C.3       2 RES2    0.0000
     69 H29       10.0879    0.1189   11.8603 H         2 RES2    0.0000
     70 H30       10.7049    1.4734   11.3694 H         2 RES2    0.0000
     71 H31       11.5150    0.1396   11.2114 H         2 RES2    0.0000
     72 C31        7.8968   -0.6271   10.4937 C.2       2 RES2    0.0000
     73 H32        8.0747   -1.5127   10.2708 H         2 RES2    0.0000
     74 C32        7.0187   -0.3904   11.4655 C.2       2 RES2    0.0000
     75 H33        6.6087   -1.1026   11.8998 H         2 RES2    0.0000
     76 C33        6.6944    0.9695   11.8530 C.ar      2 RES2    0.0000
     77 C34        5.7693    1.2716   12.8500 C.ar      2 RES2    0.0000
     78 H34        5.3207    0.5911   13.2956 H         2 RES2    0.0000
     79 C35        5.5274    2.5913   13.1683 C.ar      2 RES2    0.0000
     80 C36        6.1924    3.6382   12.5471 C.ar      2 RES2    0.0000
     81 H35        6.0245    4.5194   12.7934 H         2 RES2    0.0000
     82 C37        7.1111    3.3438   11.5547 C.ar      2 RES2    0.0000
     83 H36        7.5654    4.0309   11.1229 H         2 RES2    0.0000
     84 C38        7.3562    2.0176   11.2010 C.ar      2 RES2    0.0000
@<TRIPOS>BOND
     1    1    6 1
     2    2    5 2
     3    3    5 2
     4    4    6 1
     5    5   37 1
     6    6    7 1
     7    7    8 1
     8    8    9 ar
     9    9   10 1
    10   11    9 ar
    11   12   11 1
    12   13   11 ar
    13   14   13 1
    14   15   13 ar
    15   16   15 1
    16   17    4 1
    17   18    7 1
    18   19   18 1
    19   20   18 1
    20   21   18 1
    21   22    7 1
    22   23   22 1
    23   24   22 1
    24   25   22 1
    25   26    4 1
    26   27   26 1
    27   28   26 1
    28   29   26 1
    29   30    6 1
    30   31   30 1
    31   32   30 2
    32   33   32 1
    33   34   32 1
    34   35   34 ar
    35   36   35 1
    36   37   35 ar
    37   38   37 ar
    38   39   38 1
    39   40   38 ar
    40   41   40 1
    41   42    1 1
    42   43   48 1
    43   44   47 2
    44   45   47 2
    45   46   48 1
    46   47   79 1
    47   48   49 1
    48   49   50 1
    49   50   51 ar
    50   51   52 1
    51   53   51 ar
    52   54   53 1
    53   55   53 ar
    54   56   55 1
    55   57   55 ar
    56   58   57 1
    57   59   46 1
    58   60   49 1
    59   61   60 1
    60   62   60 1
    61   63   60 1
    62   64   49 1
    63   65   64 1
    64   66   64 1
    65   67   64 1
    66   68   46 1
    67   69   68 1
    68   70   68 1
    69   71   68 1
    70   72   48 1
    71   73   72 1
    72   74   72 2
    73   75   74 1
    74   76   74 1
    75   77   76 ar
    76   78   77 1
    77   79   77 ar
    78   80   79 ar
    79   81   80 1
    80   82   80 ar
    81   83   82 1
    82   84   43 1
    83    8   17 ar
    84   15   17 ar
    85   34   42 ar
    86   40   42 ar
    87   50   59 ar
    88   57   59 ar
    89   76   84 ar
    90   82   84 ar
@<TRIPOS>SUBSTRUCTURE
     1 RES1 1
     2 RES2 43

@<TRIPOS>CRYSIN
  16.0760   10.9060   19.6070  90.0000 106.3820  90.0000 231 1

