# MOL2 file generated by ConQuest
# Please check atom types

@<TRIPOS>MOLECULE
BEXLUL01
    84    90     2
SMALL
NO_CHARGES
****
Generated from CSD

@<TRIPOS>ATOM
      1 O1         2.3533    3.6813    8.6322 O.3       1 RES1    0.0000
      2 C1         3.2488    3.4617    7.6433 C.ar      1 RES1    0.0000
      3 C2         3.4963    2.1376    7.2941 C.ar      1 RES1    0.0000
      4 C3         4.4149    1.8522    6.3033 C.ar      1 RES1    0.0000
      5 C4         5.0779    2.8974    5.6846 C.ar      1 RES1    0.0000
      6 C5         4.8288    4.2104    6.0110 C.ar      1 RES1    0.0000
      7 C6         3.9096    4.5179    6.9980 C.ar      1 RES1    0.0000
      8 C7         3.5749    5.8617    7.3814 C.2       1 RES1    0.0000
      9 C8         2.7139    6.0999    8.3627 C.2       1 RES1    0.0000
     10 C9         2.0089    5.0361    9.1181 C.3       1 RES1    0.0000
     11 N1         0.5751    5.1481    9.0156 N.3       1 RES1    0.0000
     12 C10       -0.0098    4.6584   10.1848 C.ar      1 RES1    0.0000
     13 C11       -1.3413    4.3334   10.4163 C.ar      1 RES1    0.0000
     14 C12       -1.6953    3.9557   11.6937 C.ar      1 RES1    0.0000
     15 C13       -0.7964    3.8943   12.6921 C.ar      1 RES1    0.0000
     16 C14        0.5367    4.1918   12.4605 C.ar      1 RES1    0.0000
     17 C15        0.9316    4.5706   11.1812 C.ar      1 RES1    0.0000
     18 C16        2.2652    5.0438   10.6631 C.3       1 RES1    0.0000
     19 N2         6.0810    2.6031    4.6805 N.pl3     1 RES1    0.0000
     20 O2         6.7435    3.5188    4.2231 O.2       1 RES1    0.0000
     21 O3         6.2500    1.4492    4.3351 O.2       1 RES1    0.0000
     22 C17       -0.0735    4.9867    7.7325 C.3       1 RES1    0.0000
     23 C18        3.4343    4.1281   11.0674 C.3       1 RES1    0.0000
     24 C19        2.5322    6.4666   11.1907 C.3       1 RES1    0.0000
     25 H1         3.0292    1.4273    7.7401 H         1 RES1    0.0000
     26 H2         4.5920    0.9431    6.0490 H         1 RES1    0.0000
     27 H3         5.2943    4.9142    5.5536 H         1 RES1    0.0000
     28 H4         3.9817    6.5995    6.9202 H         1 RES1    0.0000
     29 H5         2.5358    7.0145    8.5980 H         1 RES1    0.0000
     30 H6        -1.9926    4.3707    9.7122 H         1 RES1    0.0000
     31 H7        -2.6091    3.7307   11.8759 H         1 RES1    0.0000
     32 H8        -1.0815    3.6417   13.5727 H         1 RES1    0.0000
     33 H9         1.1794    4.1380   13.1723 H         1 RES1    0.0000
     34 H10        0.4678    5.4072    7.0587 H         1 RES1    0.0000
     35 H11       -0.9583    5.3567    7.7098 H         1 RES1    0.0000
     36 H12       -0.1171    4.0425    7.5617 H         1 RES1    0.0000
     37 H13        3.2340    3.2136   10.8567 H         1 RES1    0.0000
     38 H14        3.6841    4.1951   11.9917 H         1 RES1    0.0000
     39 H15        4.1570    4.4344   10.5169 H         1 RES1    0.0000
     40 H16        3.3842    6.7620   10.8624 H         1 RES1    0.0000
     41 H17        2.5270    6.5116   12.1492 H         1 RES1    0.0000
     42 H18        1.8401    7.0331   10.8415 H         1 RES1    0.0000
     43 O4        -0.1501    3.6988   17.1505 O.3       2 RES2    0.0000
     44 C20        0.9887    3.4716   16.4596 C.ar      2 RES2    0.0000
     45 C21        1.3142    2.1574   16.1654 C.ar      2 RES2    0.0000
     46 C22        2.4659    1.8741   15.4632 C.ar      2 RES2    0.0000
     47 C23        3.2899    2.9281   15.0684 C.ar      2 RES2    0.0000
     48 C24        2.9519    4.2379   15.3265 C.ar      2 RES2    0.0000
     49 C25        1.7981    4.5321   16.0136 C.ar      2 RES2    0.0000
     50 C26        1.3250    5.8727   16.2357 C.2       2 RES2    0.0000
     51 C27        0.2562    6.1076   16.9930 C.2       2 RES2    0.0000
     52 C28       -0.4671    5.0372   17.7275 C.3       2 RES2    0.0000
     53 N3        -1.8954    5.1689   17.6402 N.3       2 RES2    0.0000
     54 C29       -2.4798    4.6716   18.8132 C.ar      2 RES2    0.0000
     55 C30       -3.8134    4.3839   19.0865 C.ar      2 RES2    0.0000
     56 C31       -4.1282    4.0018   20.4018 C.ar      2 RES2    0.0000
     57 C32       -3.1959    3.9074   21.3679 C.ar      2 RES2    0.0000
     58 C33       -1.8736    4.1709   21.0832 C.ar      2 RES2    0.0000
     59 C34       -1.5206    4.5464   19.8039 C.ar      2 RES2    0.0000
     60 C35       -0.1897    4.9998   19.2611 C.3       2 RES2    0.0000
     61 N4         4.5212    2.6339   14.3528 N.pl3     2 RES2    0.0000
     62 O5         5.2983    3.5528   14.1402 O.2       2 RES2    0.0000
     63 O6         4.7407    1.4866   14.0055 O.2       2 RES2    0.0000
     64 C36       -2.5672    5.0756   16.3704 C.3       2 RES2    0.0000
     65 C37        0.9690    4.0754   19.6274 C.3       2 RES2    0.0000
     66 C38        0.1010    6.4084   19.8020 C.3       2 RES2    0.0000
     67 H19        0.7379    1.4448   16.4501 H         2 RES2    0.0000
     68 H20        2.6995    0.9672   15.2487 H         2 RES2    0.0000
     69 H21        3.5245    4.9471   15.0266 H         2 RES2    0.0000
     70 H22        1.7878    6.6094   15.8333 H         2 RES2    0.0000
     71 H23       -0.0619    7.0101   17.0670 H         2 RES2    0.0000
     72 H24       -4.4895    4.4454   18.4070 H         2 RES2    0.0000
     73 H25       -5.0409    3.8009   20.6201 H         2 RES2    0.0000
     74 H26       -3.4531    3.6988   22.2581 H         2 RES2    0.0000
     75 H27       -1.2056    4.0963   21.7684 H         2 RES2    0.0000
     76 H28       -2.0119    5.6180   15.8067 H         2 RES2    0.0000
     77 H29       -3.4504    5.4511   16.4046 H         2 RES2    0.0000
     78 H30       -2.6119    4.1852   16.0155 H         2 RES2    0.0000
     79 H31        0.7737    3.1883   19.3142 H         2 RES2    0.0000
     80 H32        1.0999    4.0578   20.5783 H         2 RES2    0.0000
     81 H33        1.7666    4.3960   19.2004 H         2 RES2    0.0000
     82 H34        0.9351    6.7082   19.4338 H         2 RES2    0.0000
     83 H35        0.1425    6.4447   20.7605 H         2 RES2    0.0000
     84 H36       -0.6084    6.9750   19.4908 H         2 RES2    0.0000
@<TRIPOS>BOND
     1    1    2 1
     2    2    3 ar
     3    3    4 ar
     4    4    5 ar
     5    5    6 ar
     6    6    7 ar
     7    7    2 ar
     8    8    7 1
     9    9    8 2
    10   10    1 1
    11   11   10 1
    12   12   11 1
    13   13   12 ar
    14   14   13 ar
    15   15   14 ar
    16   16   15 ar
    17   17   12 ar
    18   18   10 1
    19   19    5 1
    20   20   19 2
    21   21   19 2
    22   22   11 1
    23   23   18 1
    24   24   18 1
    25   25    3 1
    26   26    4 1
    27   27    6 1
    28   28    8 1
    29   29    9 1
    30   30   13 1
    31   31   14 1
    32   32   15 1
    33   33   16 1
    34   34   22 1
    35   35   22 1
    36   36   22 1
    37   37   23 1
    38   38   23 1
    39   39   23 1
    40   40   24 1
    41   41   24 1
    42   42   24 1
    43   43   44 1
    44   44   45 ar
    45   45   46 ar
    46   46   47 ar
    47   47   48 ar
    48   48   49 ar
    49   49   44 ar
    50   50   49 1
    51   51   50 2
    52   52   43 1
    53   53   52 1
    54   54   53 1
    55   55   54 ar
    56   56   55 ar
    57   57   56 ar
    58   58   57 ar
    59   59   54 ar
    60   60   52 1
    61   61   47 1
    62   62   61 2
    63   63   61 2
    64   64   53 1
    65   65   60 1
    66   66   60 1
    67   67   45 1
    68   68   46 1
    69   69   48 1
    70   70   50 1
    71   71   51 1
    72   72   55 1
    73   73   56 1
    74   74   57 1
    75   75   58 1
    76   76   64 1
    77   77   64 1
    78   78   64 1
    79   79   65 1
    80   80   65 1
    81   81   65 1
    82   82   66 1
    83   83   66 1
    84   84   66 1
    85    9   10 1
    86   16   17 ar
    87   17   18 1
    88   51   52 1
    89   58   59 ar
    90   59   60 1
@<TRIPOS>SUBSTRUCTURE
     1 RES1 1
     2 RES2 43

@<TRIPOS>CRYSIN
  16.1460   10.9790   19.7280  90.0000 105.8260  90.0000 231 1

