# MOL2 file generated by ConQuest
# Please check atom types

@<TRIPOS>MOLECULE
BEXLUL
    84    90     2
SMALL
NO_CHARGES
****
Generated from CSD

@<TRIPOS>ATOM
      1 O1         8.2451   11.3011    1.7903 O.3       1 RES1    0.0000
      2 O2         3.3648   14.4674    4.0070 O.2       1 RES1    0.0000
      3 O3         2.7964   14.3327    1.9375 O.2       1 RES1    0.0000
      4 N1         9.9977   10.8249    0.3264 N.3       1 RES1    0.0000
      5 N2         3.5727   14.1164    2.8585 N.pl3     1 RES1    0.0000
      6 C1         9.6220    8.6584    0.9484 C.ar      1 RES1    0.0000
      7 C2        10.5749    9.6392    0.8177 C.ar      1 RES1    0.0000
      8 C3        11.9168    9.3680    1.1078 C.ar      1 RES1    0.0000
      9 C4        12.2308    8.0608    1.4902 C.ar      1 RES1    0.0000
     10 C5        11.2979    7.0952    1.5826 C.ar      1 RES1    0.0000
     11 C6         9.9716    7.3855    1.3133 C.ar      1 RES1    0.0000
     12 C7         8.2933    9.2086    0.4913 C.3       1 RES1    0.0000
     13 C8         8.5709   10.7282    0.4572 C.3       1 RES1    0.0000
     14 C9         7.8257   11.4738   -0.6209 C.2       1 RES1    0.0000
     15 C10        6.7780   12.2136   -0.3868 C.2       1 RES1    0.0000
     16 C11        6.2994   12.4470    0.9539 C.ar      1 RES1    0.0000
     17 C12        7.1046   11.9974    2.0123 C.ar      1 RES1    0.0000
     18 C13        6.7754   12.2914    3.3311 C.ar      1 RES1    0.0000
     19 C14        5.6263   12.9896    3.6190 C.ar      1 RES1    0.0000
     20 C15        4.8140   13.3898    2.5717 C.ar      1 RES1    0.0000
     21 C16        5.1389   13.1394    1.2595 C.ar      1 RES1    0.0000
     22 C17        7.1100    8.8349    1.4034 C.3       1 RES1    0.0000
     23 C18        7.9936    8.6565   -0.9265 C.3       1 RES1    0.0000
     24 C19       10.6623   12.0979    0.4165 C.3       1 RES1    0.0000
     25 H1        12.5379   10.1496    1.0001 H         1 RES1    0.0000
     26 H2        13.1674    8.0438    1.6485 H         1 RES1    0.0000
     27 H3        11.4622    6.1846    1.7144 H         1 RES1    0.0000
     28 H4         9.2681    6.7348    1.3628 H         1 RES1    0.0000
     29 H5         8.2036   11.2878   -1.4177 H         1 RES1    0.0000
     30 H6         6.3172   12.5779   -1.0660 H         1 RES1    0.0000
     31 H7         7.2928   11.9898    4.0114 H         1 RES1    0.0000
     32 H8         5.3957   13.2608    4.5828 H         1 RES1    0.0000
     33 H9         4.5546   13.3747    0.5825 H         1 RES1    0.0000
     34 H10        7.0311    7.8351    1.2089 H         1 RES1    0.0000
     35 H11        6.2340    9.1631    1.1100 H         1 RES1    0.0000
     36 H12        7.3987    9.1062    2.3958 H         1 RES1    0.0000
     37 H13        7.9746    7.5885   -0.8902 H         1 RES1    0.0000
     38 H14        7.0157    8.9734   -1.2309 H         1 RES1    0.0000
     39 H15        8.7898    9.1062   -1.5496 H         1 RES1    0.0000
     40 H16       10.1564   12.7297   -0.1649 H         1 RES1    0.0000
     41 H17       10.7385   12.3313    1.3298 H         1 RES1    0.0000
     42 H18       11.5256   12.0657   -0.0549 H         1 RES1    0.0000
     43 O4        11.1216    0.8594    1.8046 O.3       2 RES2    0.0000
     44 O5         7.2240    5.1583    4.0443 O.2       2 RES2    0.0000
     45 O6         6.7269    5.2626    1.9694 O.2       2 RES2    0.0000
     46 N3        12.9045    0.4819    0.3308 N.3       2 RES2    0.0000
     47 N4         7.3866    4.8130    2.8904 N.pl3     2 RES2    0.0000
     48 C20       12.5466   -1.6789    0.9100 C.ar      2 RES2    0.0000
     49 C21       13.4908   -0.6962    0.8297 C.ar      2 RES2    0.0000
     50 C22       14.8106   -0.9353    1.1605 C.ar      2 RES2    0.0000
     51 C23       15.1678   -2.2063    1.5309 C.ar      2 RES2    0.0000
     52 C24       14.2721   -3.1947    1.6056 C.ar      2 RES2    0.0000
     53 C25       12.9377   -2.9557    1.3012 C.ar      2 RES2    0.0000
     54 C26       11.2135   -1.1705    0.4363 C.3       2 RES2    0.0000
     55 C27       11.4626    0.3642    0.4473 C.3       2 RES2    0.0000
     56 C28       10.7783    1.1515   -0.6220 C.2       2 RES2    0.0000
     57 C29        9.9001    2.1096   -0.3770 C.2       2 RES2    0.0000
     58 C30        9.5660    2.5004    0.9737 C.ar      2 RES2    0.0000
     59 C31       10.2164    1.8497    2.0255 C.ar      2 RES2    0.0000
     60 C32        9.9675    2.2082    3.3509 C.ar      2 RES2    0.0000
     61 C33        9.0526    3.1815    3.6377 C.ar      2 RES2    0.0000
     62 C34        8.3979    3.8018    2.5980 C.ar      2 RES2    0.0000
     63 C35        8.6344    3.4869    1.2781 C.ar      2 RES2    0.0000
     64 C36       10.0291   -1.5917    1.3408 C.3       2 RES2    0.0000
     65 C37       10.9397   -1.7055   -0.9759 C.3       2 RES2    0.0000
     66 C38       13.5270    1.7605    0.5055 C.3       2 RES2    0.0000
     67 H19       15.3778   -0.2656    1.1649 H         2 RES2    0.0000
     68 H20       16.0719   -2.4283    1.7144 H         2 RES2    0.0000
     69 H21       14.4693   -4.0788    1.7364 H         2 RES2    0.0000
     70 H22       12.2320   -3.6045    1.2748 H         2 RES2    0.0000
     71 H23       11.0272    0.7588   -1.5276 H         2 RES2    0.0000
     72 H24        9.4377    2.5421   -1.0440 H         2 RES2    0.0000
     73 H25       10.4455    1.7264    3.9454 H         2 RES2    0.0000
     74 H26        8.8776    3.4338    4.5279 H         2 RES2    0.0000
     75 H27        8.1500    3.9460    0.5165 H         2 RES2    0.0000
     76 H28       10.0058   -2.5421    1.2089 H         2 RES2    0.0000
     77 H29        9.1926   -1.0434    1.0001 H         2 RES2    0.0000
     78 H30       10.2169   -1.3470    2.2090 H         2 RES2    0.0000
     79 H31       10.7659   -2.7698   -0.9561 H         2 RES2    0.0000
     80 H32        9.9689   -1.2711   -1.3078 H         2 RES2    0.0000
     81 H33       11.6566   -1.2900   -1.5386 H         2 RES2    0.0000
     82 H34       12.9910    2.4473    0.0330 H         2 RES2    0.0000
     83 H35       13.5785    2.0868    1.5056 H         2 RES2    0.0000
     84 H36       14.3763    1.7833    0.2857 H         2 RES2    0.0000
@<TRIPOS>BOND
     1    1   13 1
     2    2    5 2
     3    3    5 2
     4    4    7 1
     5    5   20 1
     6    6    7 ar
     7    7    8 ar
     8    8    9 ar
     9    9   10 ar
    10   10   11 ar
    11   11    6 ar
    12   12    6 1
    13   13    4 1
    14   14   13 1
    15   15   14 2
    16   16   15 1
    17   17    1 1
    18   18   17 ar
    19   19   18 ar
    20   20   19 ar
    21   21   16 ar
    22   22   12 1
    23   23   12 1
    24   24    4 1
    25   25    8 1
    26   26    9 1
    27   27   10 1
    28   28   11 1
    29   29   14 1
    30   30   15 1
    31   31   18 1
    32   32   19 1
    33   33   21 1
    34   34   22 1
    35   35   22 1
    36   36   22 1
    37   37   23 1
    38   38   23 1
    39   39   23 1
    40   40   24 1
    41   41   24 1
    42   42   24 1
    43   43   55 1
    44   44   47 2
    45   45   47 2
    46   46   49 1
    47   47   62 1
    48   48   49 ar
    49   49   50 ar
    50   50   51 ar
    51   51   52 ar
    52   52   53 ar
    53   53   48 ar
    54   54   48 1
    55   55   46 1
    56   56   55 1
    57   57   56 2
    58   58   57 1
    59   59   43 1
    60   60   59 ar
    61   61   60 ar
    62   62   61 ar
    63   63   58 ar
    64   64   54 1
    65   65   54 1
    66   66   46 1
    67   67   50 1
    68   68   51 1
    69   69   52 1
    70   70   53 1
    71   71   56 1
    72   72   57 1
    73   73   60 1
    74   74   61 1
    75   75   63 1
    76   76   64 1
    77   77   64 1
    78   78   64 1
    79   79   65 1
    80   80   65 1
    81   81   65 1
    82   82   66 1
    83   83   66 1
    84   84   66 1
    85   12   13 1
    86   16   17 ar
    87   20   21 ar
    88   54   55 1
    89   58   59 ar
    90   62   63 ar
@<TRIPOS>SUBSTRUCTURE
     1 RES1 1
     2 RES2 43

