# MOL2 file generated by ConQuest
# Please check atom types

@<TRIPOS>MOLECULE
BEXSAZ
   156   166     2
SMALL
NO_CHARGES
****
Generated from CSD

@<TRIPOS>ATOM
      1 C1         4.5961   10.5517   -0.6140 C.3       1 RES1    0.0000
      2 H1         5.4736   10.2334   -0.3490 H         1 RES1    0.0000
      3 H2         4.3439   10.0826   -1.4240 H         1 RES1    0.0000
      4 C2         4.6893   12.0423   -0.9202 C.3       1 RES1    0.0000
      5 H3         4.9770   12.5234   -0.1301 H         1 RES1    0.0000
      6 H4         5.3409   12.1939   -1.6232 H         1 RES1    0.0000
      7 C3         3.3438   12.5384   -1.3581 C.3       1 RES1    0.0000
      8 H5         3.0880   12.0886   -2.1911 H         1 RES1    0.0000
      9 C4         2.2882   12.2926   -0.3144 C.3       1 RES1    0.0000
     10 H6         1.4216   12.5308   -0.6815 H         1 RES1    0.0000
     11 H7         2.4560   12.8720    0.4445 H         1 RES1    0.0000
     12 C5         2.2431   10.8543    0.1613 C.2       1 RES1    0.0000
     13 C6         1.1069   10.2151    0.3013 C.2       1 RES1    0.0000
     14 H8         0.3383   10.6688    0.0379 H         1 RES1    0.0000
     15 C7         0.9191    8.8305    0.8429 C.3       1 RES1    0.0000
     16 H9         0.6123    8.2497    0.1284 H         1 RES1    0.0000
     17 H10        0.2315    8.8480    1.5260 H         1 RES1    0.0000
     18 C8         2.2015    8.2561    1.4371 C.3       1 RES1    0.0000
     19 H11        2.3199    8.6315    2.3343 H         1 RES1    0.0000
     20 C9         3.4079    8.6670    0.5795 C.3       1 RES1    0.0000
     21 H12        3.1752    8.3935   -0.3325 H         1 RES1    0.0000
     22 C10        3.5804   10.1990    0.5037 C.3       1 RES1    0.0000
     23 C11        4.6989    7.9122    0.9005 C.3       1 RES1    0.0000
     24 H13        5.3346    8.0674    0.1844 H         1 RES1    0.0000
     25 H14        5.0789    8.2794    1.7137 H         1 RES1    0.0000
     26 C12        4.5214    6.4039    1.0816 C.3       1 RES1    0.0000
     27 H15        5.3559    6.0172    1.3910 H         1 RES1    0.0000
     28 H16        4.3055    6.0021    0.2255 H         1 RES1    0.0000
     29 C13        3.4116    6.0814    2.0874 C.3       1 RES1    0.0000
     30 C14        2.1264    6.7420    1.5590 C.3       1 RES1    0.0000
     31 H17        2.0154    6.4086    0.6437 H         1 RES1    0.0000
     32 C15        1.0240    6.0639    2.3837 C.3       1 RES1    0.0000
     33 H18        1.0073    6.3949    3.2957 H         1 RES1    0.0000
     34 H19        0.1509    6.1896    1.9804 H         1 RES1    0.0000
     35 C16        1.4646    4.6018    2.3261 C.3       1 RES1    0.0000
     36 H20        1.0206    4.1457    1.5804 H         1 RES1    0.0000
     37 C17        3.0004    4.5891    2.1203 C.3       1 RES1    0.0000
     38 H21        3.1967    4.1897    1.2462 H         1 RES1    0.0000
     39 C18        3.8193    6.5719    3.4735 C.3       1 RES1    0.0000
     40 H22        4.0688    7.4973    3.4258 H         1 RES1    0.0000
     41 H23        4.5647    6.0557    3.7879 H         1 RES1    0.0000
     42 H24        3.0806    6.4697    4.0777 H         1 RES1    0.0000
     43 C19        4.0890   10.7698    1.8405 C.3       1 RES1    0.0000
     44 H25        4.1865   11.7229    1.7647 H         1 RES1    0.0000
     45 H26        4.9380   10.3774    2.0545 H         1 RES1    0.0000
     46 H27        3.4582   10.5680    2.5352 H         1 RES1    0.0000
     47 C20        3.5453    3.6575    3.2233 C.3       1 RES1    0.0000
     48 H28        3.8240    4.2202    3.9756 H         1 RES1    0.0000
     49 C21        4.7338    2.8134    2.8150 C.3       1 RES1    0.0000
     50 H29        5.0079    2.2674    3.5542 H         1 RES1    0.0000
     51 H30        5.4592    3.3870    2.5549 H         1 RES1    0.0000
     52 H31        4.4889    2.2519    2.0759 H         1 RES1    0.0000
     53 C22        2.2984    2.9049    3.6464 C.3       1 RES1    0.0000
     54 O1         1.2459    3.8700    3.5673 O.3       1 RES1    0.0000
     55 C23        2.2592    2.3189    5.0440 C.2       1 RES1    0.0000
     56 C24        1.1722    1.3341    5.3535 C.3       1 RES1    0.0000
     57 H32        0.3404    1.8096    5.5016 H         1 RES1    0.0000
     58 H33        1.3936    0.8575    6.1684 H         1 RES1    0.0000
     59 C25        0.9856    0.3420    4.2308 C.3       1 RES1    0.0000
     60 H34        1.7759   -0.2356    4.1913 H         1 RES1    0.0000
     61 C26        0.8853    1.0991    2.9368 C.3       1 RES1    0.0000
     62 H35        0.7516    0.4740    2.2076 H         1 RES1    0.0000
     63 H36        0.1175    1.6911    2.9698 H         1 RES1    0.0000
     64 O2         2.0680    1.8704    2.6899 O.3       1 RES1    0.0000
     65 C27       -0.2496   -0.5396    4.4761 C.3       1 RES1    0.0000
     66 H37       -0.3476   -1.1635    3.7534 H         1 RES1    0.0000
     67 H38       -1.0326    0.0141    4.5304 H         1 RES1    0.0000
     68 H39       -0.1409   -1.0198    5.3008 H         1 RES1    0.0000
     69 O3         3.3460   13.9833   -1.5721 O.3       1 RES1    0.0000
     70 C28        3.8979   14.4439   -2.7047 C.2       1 RES1    0.0000
     71 O4         4.4225   13.7256   -3.5147 O.2       1 RES1    0.0000
     72 C29        3.7627   15.9006   -2.8463 C.3       1 RES1    0.0000
     73 H40        4.1761   16.1819   -3.6661 H         1 RES1    0.0000
     74 H41        4.1920   16.3351   -2.1072 H         1 RES1    0.0000
     75 H42        2.8322   16.1356   -2.8611 H         1 RES1    0.0000
     76 N1         3.1529    2.7329    5.8325 N.2       1 RES1    0.0000
     77 O5         3.0655    2.1568    7.1182 O.3       1 RES1    0.0000
     78 H43        2.1064    2.1520    7.1281 H         1 RES1    0.0000
     79 C30        1.0984   -3.3892   13.0084 C.3       2 RES2    0.0000
     80 H44        1.9622   -3.0422   12.7367 H         2 RES2    0.0000
     81 H45        0.8299   -2.9142   13.8101 H         2 RES2    0.0000
     82 C31        1.2471   -4.8608   13.3393 C.3       2 RES2    0.0000
     83 H46        1.5819   -5.3395   12.5639 H         2 RES2    0.0000
     84 H47        1.8829   -4.9716   14.0636 H         2 RES2    0.0000
     85 C32       -0.0758   -5.4167   13.7409 C.3       2 RES2    0.0000
     86 H48       -0.3734   -4.9836   14.5690 H         2 RES2    0.0000
     87 C33       -1.1231   -5.2163   12.6660 C.3       2 RES2    0.0000
     88 H49       -1.9849   -5.5072   13.0018 H         2 RES2    0.0000
     89 H50       -0.9011   -5.7682   11.8988 H         2 RES2    0.0000
     90 C34       -1.2220   -3.7673   12.2248 C.2       2 RES2    0.0000
     91 C35       -2.3848   -3.1941   12.1046 C.2       2 RES2    0.0000
     92 H51       -3.1305   -3.6969   12.3433 H         2 RES2    0.0000
     93 C36       -2.6330   -1.7869   11.6140 C.3       2 RES2    0.0000
     94 H52       -2.9051   -1.2302   12.3614 H         2 RES2    0.0000
     95 H53       -3.3562   -1.7949   10.9687 H         2 RES2    0.0000
     96 C37       -1.3811   -1.1932   10.9671 C.3       2 RES2    0.0000
     97 H54       -1.2713   -1.5901   10.0781 H         2 RES2    0.0000
     98 C38       -0.1499   -1.5549   11.8247 C.3       2 RES2    0.0000
     99 H55       -0.3633   -1.2706   12.7367 H         2 RES2    0.0000
    100 C39        0.0771   -3.0989   11.8988 C.3       2 RES2    0.0000
    101 C40        1.1145   -0.7712   11.4214 C.3       2 RES2    0.0000
    102 H56        1.7962   -0.9095   12.0980 H         2 RES2    0.0000
    103 H57        1.4517   -1.1311   10.5868 H         2 RES2    0.0000
    104 C41        0.8894    0.7251   11.2535 C.3       2 RES2    0.0000
    105 H58        0.6805    1.1185   12.1145 H         2 RES2    0.0000
    106 H59        1.7036    1.1382   10.9243 H         2 RES2    0.0000
    107 C42       -0.2406    1.0032   10.2855 C.3       2 RES2    0.0000
    108 C43       -1.4896    0.3318   10.8123 C.3       2 RES2    0.0000
    109 H60       -1.6119    0.6796   11.7194 H         2 RES2    0.0000
    110 C44       -2.6288    0.9380    9.9843 C.3       2 RES2    0.0000
    111 H61       -2.6353    0.5926    9.0772 H         2 RES2    0.0000
    112 H62       -3.4932    0.7823   10.3958 H         2 RES2    0.0000
    113 C45       -2.2418    2.4098   10.0238 C.3       2 RES2    0.0000
    114 H63       -2.7043    2.8550   10.7629 H         2 RES2    0.0000
    115 C46       -0.7100    2.4884   10.2378 C.3       2 RES2    0.0000
    116 H64       -0.5376    2.8973   11.1119 H         2 RES2    0.0000
    117 C47        0.1539    0.5199    8.8928 C.3       2 RES2    0.0000
    118 H65        0.4396   -0.3959    8.9406 H         2 RES2    0.0000
    119 H66        0.8722    1.0613    8.5570 H         2 RES2    0.0000
    120 H67       -0.6013    0.5885    8.3035 H         2 RES2    0.0000
    121 C48        0.6058   -3.6374   10.5637 C.3       2 RES2    0.0000
    122 H68        0.7346   -4.5868   10.6312 H         2 RES2    0.0000
    123 H69        1.4423   -3.2149   10.3563 H         2 RES2    0.0000
    124 H70       -0.0288   -3.4499    9.8690 H         2 RES2    0.0000
    125 C49       -0.2125    3.4403    9.1447 C.3       2 RES2    0.0000
    126 H71        0.1024    2.8956    8.3940 H         2 RES2    0.0000
    127 C50        0.9318    4.3550    9.5694 C.3       2 RES2    0.0000
    128 H72        1.1820    4.9178    8.8319 H         2 RES2    0.0000
    129 H73        1.6844    3.8222    9.8361 H         2 RES2    0.0000
    130 H74        0.6486    4.8998   10.3069 H         2 RES2    0.0000
    131 C51       -1.4835    4.1450    8.7068 C.3       2 RES2    0.0000
    132 O6        -2.4856    3.1344    8.7776 O.3       2 RES2    0.0000
    133 C52       -1.5301    4.7178    7.2894 C.2       2 RES2    0.0000
    134 C53       -2.6178    5.6763    6.9569 C.3       2 RES2    0.0000
    135 H75       -3.4342    5.1841    6.7791 H         2 RES2    0.0000
    136 H76       -2.3807    6.1626    6.1519 H         2 RES2    0.0000
    137 C54       -2.8660    6.6732    8.0961 C.3       2 RES2    0.0000
    138 H77       -2.0960    7.2759    8.1586 H         2 RES2    0.0000
    139 C55       -2.9671    5.8861    9.3851 C.3       2 RES2    0.0000
    140 H78       -3.1450    6.4932   10.1209 H         2 RES2    0.0000
    141 H79       -3.7081    5.2630    9.3258 H         2 RES2    0.0000
    142 O7        -1.7544    5.1639    9.6435 O.3       2 RES2    0.0000
    143 C56       -4.1140    7.5020    7.8590 C.3       2 RES2    0.0000
    144 H80       -4.2338    8.1163    8.5883 H         2 RES2    0.0000
    145 H81       -4.8766    6.9232    7.7998 H         2 RES2    0.0000
    146 H82       -4.0207    7.9931    7.0392 H         2 RES2    0.0000
    147 O8         0.0866   -6.8700   13.9763 O.3       2 RES2    0.0000
    148 C57       -0.6101   -7.4525   14.9394 C.2       2 RES2    0.0000
    149 O9        -1.3191   -6.8322   15.6489 O.2       2 RES2    0.0000
    150 C58       -0.3811   -8.9209   14.9822 C.3       2 RES2    0.0000
    151 H83       -0.8963   -9.3050   15.6950 H         2 RES2    0.0000
    152 H84        0.5514   -9.0951   15.1320 H         2 RES2    0.0000
    153 H85       -0.6499   -9.3108   14.1475 H         2 RES2    0.0000
    154 N2        -0.6205    4.3050    6.5157 N.2       2 RES2    0.0000
    155 O10       -0.7558    4.8704    5.2086 O.3       2 RES2    0.0000
    156 H86        0.0934    5.2728    5.3502 H         2 RES2    0.0000
@<TRIPOS>BOND
     1    1    2 1
     2    3    1 1
     3    4    1 1
     4    5    4 1
     5    6    4 1
     6    7    4 1
     7    8    7 1
     8    9    7 1
     9   10    9 1
    10   11    9 1
    11   12    9 1
    12   13   12 2
    13   14   13 1
    14   15   13 1
    15   16   15 1
    16   17   15 1
    17   18   15 1
    18   19   18 1
    19   20   18 1
    20   21   20 1
    21   22    1 1
    22   23   20 1
    23   24   23 1
    24   25   23 1
    25   26   23 1
    26   27   26 1
    27   28   26 1
    28   29   26 1
    29   30   18 1
    30   31   30 1
    31   32   30 1
    32   33   32 1
    33   34   32 1
    34   35   32 1
    35   36   35 1
    36   37   29 1
    37   38   37 1
    38   39   29 1
    39   40   39 1
    40   41   39 1
    41   42   39 1
    42   43   22 1
    43   44   43 1
    44   45   43 1
    45   46   43 1
    46   47   37 1
    47   48   47 1
    48   49   47 1
    49   50   49 1
    50   51   49 1
    51   52   49 1
    52   53   47 1
    53   54   35 1
    54   55   53 1
    55   56   55 1
    56   57   56 1
    57   58   56 1
    58   59   56 1
    59   60   59 1
    60   61   59 1
    61   62   61 1
    62   63   61 1
    63   64   53 1
    64   65   59 1
    65   66   65 1
    66   67   65 1
    67   68   65 1
    68   69    7 1
    69   70   69 1
    70   71   70 2
    71   72   70 1
    72   73   72 1
    73   74   72 1
    74   75   72 1
    75   76   55 2
    76   77   76 1
    77   78   77 1
    78   79   80 1
    79   81   79 1
    80   82   79 1
    81   83   82 1
    82   84   82 1
    83   85   82 1
    84   86   85 1
    85   87   85 1
    86   88   87 1
    87   89   87 1
    88   90   87 1
    89   91   90 2
    90   92   91 1
    91   93   91 1
    92   94   93 1
    93   95   93 1
    94   96   93 1
    95   97   96 1
    96   98   96 1
    97   99   98 1
    98  100   79 1
    99  101   98 1
   100  102  101 1
   101  103  101 1
   102  104  101 1
   103  105  104 1
   104  106  104 1
   105  107  104 1
   106  108   96 1
   107  109  108 1
   108  110  108 1
   109  111  110 1
   110  112  110 1
   111  113  110 1
   112  114  113 1
   113  115  107 1
   114  116  115 1
   115  117  107 1
   116  118  117 1
   117  119  117 1
   118  120  117 1
   119  121  100 1
   120  122  121 1
   121  123  121 1
   122  124  121 1
   123  125  115 1
   124  126  125 1
   125  127  125 1
   126  128  127 1
   127  129  127 1
   128  130  127 1
   129  131  125 1
   130  132  113 1
   131  133  131 1
   132  134  133 1
   133  135  134 1
   134  136  134 1
   135  137  134 1
   136  138  137 1
   137  139  137 1
   138  140  139 1
   139  141  139 1
   140  142  131 1
   141  143  137 1
   142  144  143 1
   143  145  143 1
   144  146  143 1
   145  147   85 1
   146  148  147 1
   147  149  148 2
   148  150  148 1
   149  151  150 1
   150  152  150 1
   151  153  150 1
   152  154  133 2
   153  155  154 1
   154  156  155 1
   155   12   22 1
   156   20   22 1
   157   29   30 1
   158   35   37 1
   159   53   54 1
   160   61   64 1
   161   90  100 1
   162   98  100 1
   163  107  108 1
   164  113  115 1
   165  131  132 1
   166  139  142 1
@<TRIPOS>SUBSTRUCTURE
     1 RES1 1
     2 RES2 79

@<TRIPOS>CRYSIN
   7.5300   11.9912   16.4940  90.0370  93.5600  91.6640   1 1

