# MOL2 file generated by ConQuest
# Please check atom types

@<TRIPOS>MOLECULE
BEXWEI
    37    38     1
SMALL
NO_CHARGES
****
Generated from CSD

@<TRIPOS>ATOM
      1 N1         0.4385    2.4952    1.7043 N.2       1 RES1    0.0000
      2 N2         0.2276    3.7405    1.1612 N.am      1 RES1    0.0000
      3 H1         0.5093    3.9215    0.3695 H         1 RES1    0.0000
      4 N3        -1.3927    5.3927    3.9846 N.3       1 RES1    0.0000
      5 O1        -0.6203    5.7966    1.4645 O.2       1 RES1    0.0000
      6 N4        -2.6058    7.1635    4.5232 N.2       1 RES1    0.0000
      7 C1         1.1361    1.6523    1.0401 C.2       1 RES1    0.0000
      8 C2        -0.4198    4.6670    1.8758 C.2       1 RES1    0.0000
      9 C3         1.3387    0.3458    1.7066 C.ar      1 RES1    0.0000
     10 C4        -0.6758    6.0688    4.9105 C.2       1 RES1    0.0000
     11 H2         0.1604    5.8506    5.2541 H         1 RES1    0.0000
     12 C5        -1.4479    7.1348    5.2244 C.2       1 RES1    0.0000
     13 C6        -2.5546    6.0874    3.7695 C.2       1 RES1    0.0000
     14 N5        -1.1311    8.1321    6.2015 N.pl3     1 RES1    0.0000
     15 C7         1.1932    0.2311    3.0894 C.ar      1 RES1    0.0000
     16 H3         1.0081    0.9899    3.5953 H         1 RES1    0.0000
     17 C8        -0.9210    4.2305    3.2424 C.3       1 RES1    0.0000
     18 H4        -1.6440    3.5930    3.1380 H         1 RES1    0.0000
     19 H5        -0.2040    3.7979    3.7323 H         1 RES1    0.0000
     20 O2        -1.8860    9.0777    6.3547 O.2       1 RES1    0.0000
     21 C9         1.6452   -0.8011    0.9870 C.ar      1 RES1    0.0000
     22 H6         1.7749   -0.7469    0.0672 H         1 RES1    0.0000
     23 C10        1.7351    1.9048   -0.3150 C.3       1 RES1    0.0000
     24 H7         1.0476    1.8530   -0.9831 H         1 RES1    0.0000
     25 H8         2.4083    1.2445   -0.4961 H         1 RES1    0.0000
     26 H9         2.1310    2.7795   -0.3320 H         1 RES1    0.0000
     27 C11        1.3191   -0.9857    3.7154 C.ar      1 RES1    0.0000
     28 H10        1.2262   -1.0459    4.6392 H         1 RES1    0.0000
     29 O3        -0.1010    7.9647    6.8519 O.2       1 RES1    0.0000
     30 C12        1.7583   -2.0220    1.6226 C.ar      1 RES1    0.0000
     31 H11        1.9558   -2.7848    1.1278 H         1 RES1    0.0000
     32 C13        1.5830   -2.1160    2.9752 C.ar      1 RES1    0.0000
     33 H12        1.6426   -2.9443    3.3964 H         1 RES1    0.0000
     34 C14       -3.6033    5.6520    2.8234 C.3       1 RES1    0.0000
     35 H13       -4.4090    6.1474    2.9882 H         1 RES1    0.0000
     36 H14       -3.7750    4.7149    2.9442 H         1 RES1    0.0000
     37 H15       -3.3091    5.8104    1.9236 H         1 RES1    0.0000
@<TRIPOS>BOND
     1    1    2 1
     2    2    3 1
     3    4   10 1
     4    5    8 2
     5    6   12 1
     6    7    1 2
     7    8    2 1
     8    9    7 1
     9   10   11 1
    10   12   10 2
    11   13    4 1
    12   14   12 1
    13   15    9 ar
    14   16   15 1
    15   17    4 1
    16   18   17 1
    17   19   17 1
    18   20   14 2
    19   21    9 ar
    20   22   21 1
    21   23    7 1
    22   24   23 1
    23   25   23 1
    24   26   23 1
    25   27   15 ar
    26   28   27 1
    27   29   14 2
    28   30   21 ar
    29   31   30 1
    30   32   27 ar
    31   33   32 1
    32   34   13 1
    33   35   34 1
    34   36   34 1
    35   37   34 1
    36    6   13 2
    37    8   17 1
    38   30   32 ar
@<TRIPOS>SUBSTRUCTURE
     1 RES1 1

@<TRIPOS>CRYSIN
  10.8689   10.5644   12.9608  90.0000  94.6060  90.0000 231 1

