# MOL2 file generated by ConQuest
# Please check atom types

@<TRIPOS>MOLECULE
BEYFAM
    24    23     1
SMALL
USER_CHARGES
****
Generated from CSD

@<TRIPOS>ATOM
      1 C1        -0.4707   -0.9901    0.1852 C.2       1 RES1    0.0000
      2 C2         1.0146   -0.7636    0.4631 C.3       1 RES1    0.0000
      3 C3         1.1525    0.2601    1.5897 C.3       1 RES1    0.0000
      4 C4         2.5697    0.6693    1.8962 C.3       1 RES1    0.0000
      5 C5         4.2789    1.7436    4.2454 C.2       1 RES1    0.0000
      6 N1         1.6908   -0.2862   -0.7864 N.4       1 RES1    1.0000
      7 N2         3.8928    2.1654    3.0758 N.2       1 RES1    0.0000
      8 N3         3.5052    1.0785    5.1244 N.3       1 RES1    0.0000
      9 N4         5.5710    1.9549    4.6150 N.3       1 RES1    0.0000
     10 O1        -0.9870   -0.3544   -0.7527 O.co2     1 RES1    0.0000
     11 O2        -1.0766   -1.7587    0.9759 O.co2     1 RES1   -1.0000
     12 O3         2.5253    1.7309    2.8401 O.3       1 RES1    0.0000
     13 H1         1.3755   -0.8335   -1.6335 H         1 RES1    0.0000
     14 H2         1.4073    0.6314   -0.9936 H         1 RES1    0.0000
     15 H3         2.5398   -0.3115   -0.7578 H         1 RES1    0.0000
     16 H4         1.4476   -1.6164    0.7241 H         1 RES1    0.0000
     17 H5         0.8117   -0.0926    2.4250 H         1 RES1    0.0000
     18 H6         0.6138    1.0187    1.2883 H         1 RES1    0.0000
     19 H7         3.0870   -0.0084    2.2902 H         1 RES1    0.0000
     20 H8         2.9385    1.0019    1.0525 H         1 RES1    0.0000
     21 H9         3.9270    0.5725    5.9361 H         1 RES1    0.0000
     22 H10        2.7758    0.8082    4.8162 H         1 RES1    0.0000
     23 H11        5.7607    2.0963    5.5151 H         1 RES1    0.0000
     24 H12        6.0762    2.3489    4.0416 H         1 RES1    0.0000
@<TRIPOS>BOND
     1    1    2 1
     2    2    3 1
     3    3    4 1
     4    4   12 1
     5    5    7 2
     6    6    2 1
     7    7   12 1
     8    8    5 1
     9    9    5 1
    10   10    1 2
    11   11    1 1
    12   13    6 1
    13   14    6 1
    14   15    6 1
    15   16    2 1
    16   17    3 1
    17   18    3 1
    18   19    4 1
    19   20    4 1
    20   21    8 1
    21   22    8 1
    22   23    9 1
    23   24    9 1
@<TRIPOS>SUBSTRUCTURE
     1 RES1 1

@<TRIPOS>CRYSIN
   5.5050    8.4190    8.4320  90.0000  93.0600  90.0000   4 1

