# MOL2 file generated by ConQuest
# Please check atom types

@<TRIPOS>MOLECULE
BEYLOJ
    48    46     2
SMALL
NO_CHARGES
****
Generated from CSD

@<TRIPOS>ATOM
      1 C1        -2.2183    4.5259    5.4818 C.3       1 RES1    0.0000
      2 C2        -1.1838    5.4901    4.9975 C.2       1 RES1    0.0000
      3 C3         0.5394    3.7292    4.8524 C.2       1 RES1    0.0000
      4 C4        -1.0390    8.9258    4.2762 C.2       1 RES1    0.0000
      5 N1        -2.7893    3.6956    4.3468 N.pl3     1 RES1    0.0000
      6 N2        -3.3948    5.2632    6.0728 N.pl3     1 RES1    0.0000
      7 N3         1.8071    3.5716    4.4797 N.am      1 RES1    0.0000
      8 N4         0.0751    5.0176    4.7004 N.am      1 RES1    0.0000
      9 N5        -1.5579    6.7018    4.8908 N.2       1 RES1    0.0000
     10 N6        -0.6401    7.6308    4.4683 N.am      1 RES1    0.0000
     11 N7        -2.2943    9.2025    4.5894 N.am      1 RES1    0.0000
     12 O1        -2.7246    4.1633    3.2338 O.2       1 RES1    0.0000
     13 O2        -3.3112    2.6440    4.6351 O.2       1 RES1    0.0000
     14 O3        -4.3692    5.4660    5.3819 O.2       1 RES1    0.0000
     15 O4        -3.2684    5.5963    7.2280 O.2       1 RES1    0.0000
     16 O5        -0.1781    2.8349    5.2826 O.2       1 RES1    0.0000
     17 O6        -0.2130    9.7519    3.8529 O.2       1 RES1    0.0000
     18 H1        -1.9575    3.9652    6.0886 H         1 RES1    0.0000
     19 H2         2.1330    2.8014    4.5736 H         1 RES1    0.0000
     20 H3         2.2252    4.2637    4.2339 H         1 RES1    0.0000
     21 H4         0.5176    5.4414    4.3263 H         1 RES1    0.0000
     22 H5         0.0274    7.4000    4.1652 H         1 RES1    0.0000
     23 H6        -2.7702    8.5878    4.9021 H         1 RES1    0.0000
     24 H7        -2.5526    9.9656    4.5711 H         1 RES1    0.0000
     25 C5         6.4922    2.3572    0.7311 C.3       2 RES2    0.0000
     26 C6         5.5011    1.4253    1.3772 C.2       2 RES2    0.0000
     27 C7         5.6006   -1.8285    2.6941 C.2       2 RES2    0.0000
     28 C8         3.6588    2.9696    0.9410 C.2       2 RES2    0.0000
     29 N8         7.8785    1.9902    1.1880 N.pl3     2 RES2    0.0000
     30 N9         6.5090    2.2415   -0.7737 N.pl3     2 RES2    0.0000
     31 N10        2.4902    3.3714    1.4041 N.am      2 RES2    0.0000
     32 N11        4.1996    1.8537    1.5634 N.am      2 RES2    0.0000
     33 N12        5.9751    0.2953    1.7308 N.2       2 RES2    0.0000
     34 N13        5.1305   -0.6041    2.3266 N.am      2 RES2    0.0000
     35 N14        6.8515   -2.1084    2.3600 N.am      2 RES2    0.0000
     36 O7         8.6117    1.3798    0.4370 O.2       2 RES2    0.0000
     37 O8         8.1660    2.3721    2.3065 O.2       2 RES2    0.0000
     38 O9         6.0634    1.2246   -1.2748 O.2       2 RES2    0.0000
     39 O10        7.0125    3.1727   -1.3782 O.2       2 RES2    0.0000
     40 O11        4.2646    3.5196    0.0209 O.2       2 RES2    0.0000
     41 O12        4.8559   -2.5965    3.3036 O.2       2 RES2    0.0000
     42 H8         6.3588    3.2479    0.9367 H         2 RES2    0.0000
     43 H9         2.0301    4.1034    0.9867 H         2 RES2    0.0000
     44 H10        2.1115    2.8732    1.9858 H         2 RES2    0.0000
     45 H11        3.7960    1.4763    2.0945 H         2 RES2    0.0000
     46 H12        4.4379   -0.3454    2.6478 H         2 RES2    0.0000
     47 H13        7.3520   -1.4898    1.9733 H         2 RES2    0.0000
     48 H14        7.1601   -2.8241    2.5353 H         2 RES2    0.0000
@<TRIPOS>BOND
     1    1    2 1
     2    2    8 1
     3    3    7 1
     4    4   10 1
     5    5    1 1
     6    6    1 1
     7    7   19 1
     8    8    3 1
     9    9    2 2
    10   10    9 1
    11   11    4 1
    12   12    5 2
    13   13    5 2
    14   14    6 2
    15   15    6 2
    16   16    3 2
    17   17    4 2
    18   18    1 1
    19   20    7 1
    20   21    8 1
    21   22   10 1
    22   23   11 1
    23   24   11 1
    24   25   26 1
    25   26   32 1
    26   27   34 1
    27   28   31 1
    28   29   25 1
    29   30   25 1
    30   31   43 1
    31   32   28 1
    32   33   26 2
    33   34   33 1
    34   35   27 1
    35   36   29 2
    36   37   29 2
    37   38   30 2
    38   39   30 2
    39   40   28 2
    40   41   27 2
    41   42   25 1
    42   44   31 1
    43   45   32 1
    44   46   34 1
    45   47   35 1
    46   48   35 1
@<TRIPOS>SUBSTRUCTURE
     1 RES1 1
     2 RES2 25

@<TRIPOS>CRYSIN
   8.4279    9.5361   13.4489 102.6020 102.6440 107.8090   2 1

