# MOL2 file generated by ConQuest
# Please check atom types

@<TRIPOS>MOLECULE
BEYMOK
    54    51     3
SMALL
NO_CHARGES
****
Generated from CSD

@<TRIPOS>ATOM
      1 O1        -1.8760    3.3285    5.9100 O.2       1 RES1    0.0000
      2 O2        -2.1248    3.4140    3.7736 O.2       1 RES1    0.0000
      3 O3        -2.2235    1.0668    2.8350 O.2       1 RES1    0.0000
      4 O4        -0.3574    0.0368    3.1534 O.2       1 RES1    0.0000
      5 O5         1.8406    0.7540    7.7813 O.2       1 RES1    0.0000
      6 N1        -1.7128    2.8449    4.7864 N.pl3     1 RES1    0.0000
      7 N2        -1.1904    0.9003    3.4916 N.pl3     1 RES1    0.0000
      8 N3         0.8457    0.2689    5.4154 N.3       1 RES1    0.0000
      9 N4         0.0168    1.8417    6.8719 N.am      1 RES1    0.0000
     10 N5         0.8371    2.4144    8.9321 N.am      1 RES1    0.0000
     11 C1        -0.9810    1.6362    4.6689 C.2       1 RES1    0.0000
     12 C2        -0.0127    1.2274    5.6570 C.2       1 RES1    0.0000
     13 C3         0.9713    1.6146    7.8814 C.2       1 RES1    0.0000
     14 H1         1.3644    2.2803    9.6225 H         1 RES1    0.0000
     15 H2         0.2205    3.0484    9.0292 H         1 RES1    0.0000
     16 H3         0.8969   -0.1059    4.6063 H         1 RES1    0.0000
     17 H4        -0.6257    2.4596    6.9796 H         1 RES1    0.0000
     18 H5         1.4216    0.0159    6.1597 H         1 RES1    0.0000
     19 O6         1.5682    2.8020    2.9462 O.2       2 RES2    0.0000
     20 O7         0.4336    4.3327    1.9388 O.2       2 RES2    0.0000
     21 O8        -1.3219    3.2496    0.4690 O.2       2 RES2    0.0000
     22 O9        -0.4079    2.0767   -1.0962 O.2       2 RES2    0.0000
     23 O10        3.5504   -0.8851    0.4104 O.2       2 RES2    0.0000
     24 N6         0.8974    3.1892    1.9713 N.pl3     2 RES2    0.0000
     25 N7        -0.3782    2.5738    0.0467 N.pl3     2 RES2    0.0000
     26 N8         1.5982    0.5682   -0.5135 N.3       2 RES2    0.0000
     27 N9         2.5766    0.8790    1.5394 N.am      2 RES2    0.0000
     28 N10        4.3679   -0.2559    2.4186 N.am      2 RES2    0.0000
     29 C4         0.7275    2.3043    0.8867 C.2       2 RES2    0.0000
     30 C5         1.6370    1.2286    0.6106 C.2       2 RES2    0.0000
     31 C6         3.5242   -0.1536    1.3938 C.2       2 RES2    0.0000
     32 H6         2.5957    1.4052    2.2870 H         2 RES2    0.0000
     33 H7         2.1562   -0.0594   -0.6149 H         2 RES2    0.0000
     34 H8         1.0518    0.8461   -1.1435 H         2 RES2    0.0000
     35 H9         5.0117   -0.8842    2.3085 H         2 RES2    0.0000
     36 H10        4.3990    0.3104    3.1176 H         2 RES2    0.0000
     37 O11        5.3024    5.1113    5.0684 O.2       3 RES3    0.0000
     38 O12        4.0881    6.1562    6.5018 O.2       3 RES3    0.0000
     39 O13        2.9389    8.1298    5.5793 O.2       3 RES3    0.0000
     40 O14        1.8597    7.8052    3.7735 O.2       3 RES3    0.0000
     41 O15        3.5462    4.0595    0.6588 O.2       3 RES3    0.0000
     42 N11        4.3684    5.8759    5.3293 N.pl3     3 RES3    0.0000
     43 N12        2.7509    7.4677    4.5772 N.pl3     3 RES3    0.0000
     44 N13        2.7792    6.1848    2.0205 N.3       3 RES3    0.0000
     45 N14        4.4018    4.7222    2.6907 N.am      3 RES3    0.0000
     46 N15        5.3342    2.9859    1.5308 N.am      3 RES3    0.0000
     47 C7         3.5773    6.3631    4.2708 C.2       3 RES3    0.0000
     48 C8         3.5667    5.7575    2.9666 C.2       3 RES3    0.0000
     49 C9         4.3819    3.9136    1.5480 C.2       3 RES3    0.0000
     50 H11        4.9607    4.5557    3.2902 H         3 RES3    0.0000
     51 H12        5.3486    2.4910    0.8306 H         3 RES3    0.0000
     52 H13        2.8083    5.7406    1.2729 H         3 RES3    0.0000
     53 H14        2.2049    6.8033    2.2546 H         3 RES3    0.0000
     54 H15        5.8908    2.8995    2.2222 H         3 RES3    0.0000
@<TRIPOS>BOND
     1    1    6 2
     2    2    6 2
     3    3    7 2
     4    4    7 2
     5    5   13 2
     6    6   11 1
     7    7   11 1
     8    8   12 1
     9    9   12 1
    10   10   13 1
    11   11   12 2
    12   13    9 1
    13   14   10 1
    14   15   10 1
    15   16    8 1
    16   17    9 1
    17   18    8 1
    18   19   24 2
    19   20   24 2
    20   21   25 2
    21   22   25 2
    22   23   31 2
    23   24   29 1
    24   25   29 1
    25   26   30 1
    26   27   30 1
    27   28   31 1
    28   29   30 2
    29   31   27 1
    30   32   27 1
    31   33   26 1
    32   34   26 1
    33   35   28 1
    34   36   28 1
    35   37   42 2
    36   38   42 2
    37   39   43 2
    38   40   43 2
    39   41   49 2
    40   42   47 1
    41   43   47 1
    42   44   48 1
    43   45   48 1
    44   46   49 1
    45   47   48 2
    46   49   45 1
    47   50   45 1
    48   51   46 1
    49   52   44 1
    50   53   44 1
    51   54   46 1
@<TRIPOS>SUBSTRUCTURE
     1 RES1 1
     2 RES2 19
     3 RES3 37

@<TRIPOS>CRYSIN
   9.5204    9.7709   10.9656  97.9890  96.4850  90.2460   2 1

