# MOL2 file generated by ConQuest
# Please check atom types

@<TRIPOS>MOLECULE
BEYQUR
    53    55     1
SMALL
NO_CHARGES
****
Generated from CSD

@<TRIPOS>ATOM
      1 O1         8.2967    2.6502    7.0313 O.3       1 RES1    0.0000
      2 O2         8.3300    2.0637    9.2739 O.3       1 RES1    0.0000
      3 O3         9.8130    1.1521    7.8927 O.3       1 RES1    0.0000
      4 O4         8.6992    4.1219    5.3086 O.3       1 RES1    0.0000
      5 O5        10.0535    3.6328    5.0623 O.3       1 RES1    0.0000
      6 O6        11.1883    2.8469   10.2491 O.2       1 RES1    0.0000
      7 O7        11.6340    4.7902    9.3216 O.3       1 RES1    0.0000
      8 O8        15.8479    1.1295    2.1676 O.2       1 RES1    0.0000
      9 O9        16.4680   -0.7677    2.9980 O.2       1 RES1    0.0000
     10 O10        3.6030    4.2923    7.7691 O.3       1 RES1    0.0000
     11 N1        10.6986    1.3581    6.8124 N.2       1 RES1    0.0000
     12 N2        15.7089    0.1842    2.9433 N.pl3     1 RES1    0.0000
     13 C1         9.0889    2.3451    8.1628 C.3       1 RES1    0.0000
     14 C2         9.9176    3.5786    8.3922 C.2       1 RES1    0.0000
     15 C3         9.5310    4.5287    7.5670 C.2       1 RES1    0.0000
     16 C4         8.4202    4.0385    6.6915 C.3       1 RES1    0.0000
     17 C5         7.1243    4.7924    6.8663 C.ar      1 RES1    0.0000
     18 C6         7.1347    6.1654    6.6960 C.ar      1 RES1    0.0000
     19 C7         5.9752    6.8694    6.9175 C.ar      1 RES1    0.0000
     20 C8         4.8238    6.2290    7.2917 C.ar      1 RES1    0.0000
     21 C9         4.8064    4.8494    7.4302 C.ar      1 RES1    0.0000
     22 C10        5.9656    4.1278    7.2184 C.ar      1 RES1    0.0000
     23 C11       10.9606    3.6738    9.4336 C.2       1 RES1    0.0000
     24 C12       12.6432    5.0687   10.3197 C.3       1 RES1    0.0000
     25 C13        7.3781    0.9914    9.1309 C.3       1 RES1    0.0000
     26 C14       11.4077    0.3246    6.6359 C.2       1 RES1    0.0000
     27 C15       12.4543    0.3027    5.6078 C.ar      1 RES1    0.0000
     28 C16       12.7541    1.4103    4.8135 C.ar      1 RES1    0.0000
     29 C17       13.7970    1.3577    3.9203 C.ar      1 RES1    0.0000
     30 C18       14.5485    0.2084    3.8418 C.ar      1 RES1    0.0000
     31 C19       14.2573   -0.9080    4.5716 C.ar      1 RES1    0.0000
     32 C20       13.1922   -0.8598    5.4515 C.ar      1 RES1    0.0000
     33 C21        3.5372    2.8820    7.9006 C.3       1 RES1    0.0000
     34 H1         9.9011    5.3955    7.5282 H         1 RES1    0.0000
     35 H2         7.9229    6.6018    6.4338 H         1 RES1    0.0000
     36 H3         5.9713    7.8081    6.8133 H         1 RES1    0.0000
     37 H4         4.0349    6.7334    7.4576 H         1 RES1    0.0000
     38 H5         5.9685    3.1803    7.3164 H         1 RES1    0.0000
     39 H6        13.0789    5.9438   10.1141 H         1 RES1    0.0000
     40 H7        12.2128    5.1104   11.2261 H         1 RES1    0.0000
     41 H8        13.3331    4.3427   10.3083 H         1 RES1    0.0000
     42 H9         6.8756    0.8773    9.9905 H         1 RES1    0.0000
     43 H10        6.7282    1.2063    8.4019 H         1 RES1    0.0000
     44 H11        7.8539    0.1535    8.9050 H         1 RES1    0.0000
     45 H12       11.2651   -0.4387    7.1752 H         1 RES1    0.0000
     46 H13       12.2318    2.1933    4.8894 H         1 RES1    0.0000
     47 H14       13.9898    2.1056    3.3625 H         1 RES1    0.0000
     48 H15       14.7712   -1.6888    4.4746 H         1 RES1    0.0000
     49 H16       12.9581   -1.6230    5.9573 H         1 RES1    0.0000
     50 H17        2.6050    2.6100    8.1460 H         1 RES1    0.0000
     51 H18        3.7871    2.4565    7.0340 H         1 RES1    0.0000
     52 H19        4.1718    2.5881    8.6137 H         1 RES1    0.0000
     53 H20       10.1977    2.7416    5.3924 H         1 RES1    0.0000
@<TRIPOS>BOND
     1    1   13 1
     2    2   13 1
     3    3   11 1
     4    4    5 1
     5    5   53 1
     6    6   23 2
     7    7   23 1
     8    8   12 2
     9    9   12 2
    10   10   21 1
    11   11   26 2
    12   12   30 1
    13   13    3 1
    14   14   13 1
    15   15   14 2
    16   16    1 1
    17   17   16 1
    18   18   17 ar
    19   19   18 ar
    20   20   19 ar
    21   21   20 ar
    22   22   17 ar
    23   23   14 1
    24   24    7 1
    25   25    2 1
    26   26   27 1
    27   27   28 ar
    28   28   29 ar
    29   29   30 ar
    30   30   31 ar
    31   31   32 ar
    32   32   27 ar
    33   33   10 1
    34   34   15 1
    35   35   18 1
    36   36   19 1
    37   37   20 1
    38   38   22 1
    39   39   24 1
    40   40   24 1
    41   41   24 1
    42   42   25 1
    43   43   25 1
    44   44   25 1
    45   45   26 1
    46   46   28 1
    47   47   29 1
    48   48   31 1
    49   49   32 1
    50   50   33 1
    51   51   33 1
    52   52   33 1
    53    4   16 1
    54   15   16 1
    55   21   22 ar
@<TRIPOS>SUBSTRUCTURE
     1 RES1 1

@<TRIPOS>CRYSIN
  11.2850   21.9330    8.8290  90.0000  91.6000  90.0000  14 1

