# MOL2 file generated by ConQuest
# Please check atom types

@<TRIPOS>MOLECULE
BEYVUY
    66    68     1
SMALL
NO_CHARGES
****
Generated from CSD

@<TRIPOS>ATOM
      1 O1        -0.1249    6.1333    4.1273 O.3       1 RES1    0.0000
      2 O2         1.0017    8.8577    3.3727 O.2       1 RES1    0.0000
      3 O3         3.9201    8.6729    5.1751 O.2       1 RES1    0.0000
      4 O4        -0.8027    6.1804    6.3038 O.3       1 RES1    0.0000
      5 O5        -1.0509    8.0872    7.4605 O.2       1 RES1    0.0000
      6 O6        -4.4941    2.7976   11.0018 O.2       1 RES1    0.0000
      7 O7        -5.4801    4.6592   11.4875 O.2       1 RES1    0.0000
      8 O8         2.2096    8.5186    8.0062 O.2       1 RES1    0.0000
      9 O9         2.6020    6.4248    8.8006 O.3       1 RES1    0.0000
     10 N1         3.4494    6.5647    4.5068 N.am      1 RES1    0.0000
     11 H1         3.7359    5.7613    4.2894 H         1 RES1    0.0000
     12 N2         5.5388    7.0874    5.4093 N.am      1 RES1    0.0000
     13 N3        -4.6219    4.0119   10.9005 N.pl3     1 RES1    0.0000
     14 N4         1.8092    6.6364    6.7652 N.am      1 RES1    0.0000
     15 H2         1.8570    5.7583    6.7537 H         1 RES1    0.0000
     16 C1         2.0755    6.9478    4.3027 C.3       1 RES1    0.0000
     17 C2         1.2347    5.7361    3.8319 C.3       1 RES1    0.0000
     18 H3         1.4706    4.9384    4.3866 H         1 RES1    0.0000
     19 C3        -0.1508    6.9499    5.2525 C.3       1 RES1    0.0000
     20 H4        -0.6812    7.7758    5.0597 H         1 RES1    0.0000
     21 C4         1.3065    7.3343    5.6113 C.3       1 RES1    0.0000
     22 H5         1.3680    8.3214    5.7598 H         1 RES1    0.0000
     23 C5         4.2963    7.4979    5.0522 C.2       1 RES1    0.0000
     24 C6         6.3123    7.9387    6.3015 C.3       1 RES1    0.0000
     25 H6         6.0653    8.8760    6.1543 H         1 RES1    0.0000
     26 H7         7.2678    7.8200    6.1192 H         1 RES1    0.0000
     27 H8         6.1245    7.6934    7.2313 H         1 RES1    0.0000
     28 C7         5.9472    5.6857    5.3991 C.3       1 RES1    0.0000
     29 H9         5.6393    5.2499    6.2210 H         1 RES1    0.0000
     30 H10        6.9237    5.6307    5.3465 H         1 RES1    0.0000
     31 H11        5.5517    5.2358    4.6230 H         1 RES1    0.0000
     32 C8         1.9429    8.0996    3.2824 C.2       1 RES1    0.0000
     33 C9         2.9543    8.2016    2.1753 C.3       1 RES1    0.0000
     34 H12        2.5364    8.6098    1.3884 H         1 RES1    0.0000
     35 H13        3.2783    7.3056    1.9457 H         1 RES1    0.0000
     36 H14        3.7069    8.7555    2.4701 H         1 RES1    0.0000
     37 C10        1.2760    5.3536    2.3715 C.3       1 RES1    0.0000
     38 H15        0.7203    4.5596    2.2266 H         1 RES1    0.0000
     39 H16        2.2004    5.1584    2.1107 H         1 RES1    0.0000
     40 H17        0.9332    6.0949    1.8298 H         1 RES1    0.0000
     41 C11       -1.2396    6.9057    7.3491 C.2       1 RES1    0.0000
     42 C12       -2.0399    6.0993    8.3159 C.ar      1 RES1    0.0000
     43 C13       -2.0853    4.7070    8.2737 C.ar      1 RES1    0.0000
     44 H18       -1.5483    4.2351    7.6481 H         1 RES1    0.0000
     45 C14       -2.9116    4.0084    9.1406 C.ar      1 RES1    0.0000
     46 H19       -2.9428    3.0585    9.1302 H         1 RES1    0.0000
     47 C15       -3.6898    4.7394   10.0231 C.ar      1 RES1    0.0000
     48 C16       -3.6435    6.1179   10.1132 C.ar      1 RES1    0.0000
     49 H20       -4.1791    6.5842   10.7446 H         1 RES1    0.0000
     50 C17       -2.7961    6.7990    9.2584 C.ar      1 RES1    0.0000
     51 H21       -2.7290    7.7447    9.3128 H         1 RES1    0.0000
     52 C18        2.2085    7.3108    7.8674 C.2       1 RES1    0.0000
     53 C19        2.9432    6.9236   10.1173 C.3       1 RES1    0.0000
     54 H22        2.8529    7.9095   10.1358 H         1 RES1    0.0000
     55 H23        3.8828    6.6937   10.3290 H         1 RES1    0.0000
     56 C20        2.0250    6.3091   11.1405 C.ar      1 RES1    0.0000
     57 C21        0.6765    6.1662   10.8896 C.ar      1 RES1    0.0000
     58 H24        0.3145    6.4727   10.0667 H         1 RES1    0.0000
     59 C22       -0.1524    5.5824   11.8260 C.ar      1 RES1    0.0000
     60 H25       -1.0788    5.4820   11.6390 H         1 RES1    0.0000
     61 C23        0.3530    5.1419   13.0327 C.ar      1 RES1    0.0000
     62 H26       -0.2190    4.7334   13.6713 H         1 RES1    0.0000
     63 C24        1.6971    5.3000   13.3043 C.ar      1 RES1    0.0000
     64 H27        2.0490    5.0158   14.1395 H         1 RES1    0.0000
     65 C25        2.5339    5.8750   12.3574 C.ar      1 RES1    0.0000
     66 H28        3.4605    5.9723   12.5427 H         1 RES1    0.0000
@<TRIPOS>BOND
     1    1   17 1
     2    2   32 2
     3    3   23 2
     4    4   19 1
     5    5   41 2
     6    6   13 2
     7    7   13 2
     8    8   52 2
     9    9   52 1
    10   10   11 1
    11   12   23 1
    12   13   47 1
    13   14   15 1
    14   16   10 1
    15   17   16 1
    16   18   17 1
    17   19    1 1
    18   20   19 1
    19   21   14 1
    20   22   21 1
    21   23   10 1
    22   24   12 1
    23   25   24 1
    24   26   24 1
    25   27   24 1
    26   28   12 1
    27   29   28 1
    28   30   28 1
    29   31   28 1
    30   32   16 1
    31   33   32 1
    32   34   33 1
    33   35   33 1
    34   36   33 1
    35   37   17 1
    36   38   37 1
    37   39   37 1
    38   40   37 1
    39   41    4 1
    40   42   41 1
    41   43   42 ar
    42   44   43 1
    43   45   43 ar
    44   46   45 1
    45   47   45 ar
    46   48   47 ar
    47   49   48 1
    48   50   42 ar
    49   51   50 1
    50   52   14 1
    51   53    9 1
    52   54   53 1
    53   55   53 1
    54   56   53 1
    55   57   56 ar
    56   58   57 1
    57   59   57 ar
    58   60   59 1
    59   61   59 ar
    60   62   61 1
    61   63   61 ar
    62   64   63 1
    63   65   56 ar
    64   66   65 1
    65   16   21 1
    66   19   21 1
    67   48   50 ar
    68   63   65 ar
@<TRIPOS>SUBSTRUCTURE
     1 RES1 1

@<TRIPOS>CRYSIN
  10.8826   10.0476   12.7530  90.0000 113.3690  90.0000   4 1

