# MOL2 file generated by ConQuest
# Please check atom types

@<TRIPOS>MOLECULE
BEZREF
    40    43     1
SMALL
NO_CHARGES
****
Generated from CSD

@<TRIPOS>ATOM
      1 O1         0.2298    4.1103    6.0812 O.3       1 RES1    0.0000
      2 O2         1.3171    2.1541    6.5982 O.3       1 RES1    0.0000
      3 O3         2.1567    3.5305    4.9643 O.3       1 RES1    0.0000
      4 O4         0.3932    4.6952   10.3120 O.3       1 RES1    0.0000
      5 N1         0.9016    4.9198    9.0188 N.2       1 RES1    0.0000
      6 C1         1.4703    3.4749    6.1885 C.3       1 RES1    0.0000
      7 C2         2.0776    2.8127    9.4260 C.ar      1 RES1    0.0000
      8 C3         3.3828    2.6413    9.8666 C.ar      1 RES1    0.0000
      9 C4         1.7023    4.0031    8.6235 C.2       1 RES1    0.0000
     10 C5         2.3070    4.1884    7.2436 C.3       1 RES1    0.0000
     11 C6         1.2659    1.4015    4.3172 C.3       1 RES1    0.0000
     12 C7         1.1492    1.8330    9.7389 C.ar      1 RES1    0.0000
     13 C8         1.5186    0.7110   10.4489 C.ar      1 RES1    0.0000
     14 C9        -0.6167    3.4501    5.0948 C.3       1 RES1    0.0000
     15 C10        0.5441    1.3906    5.6405 C.3       1 RES1    0.0000
     16 C11        1.4148    2.8368    3.9098 C.3       1 RES1    0.0000
     17 C12       -0.8193    2.0280    5.5389 C.3       1 RES1    0.0000
     18 C13        0.0801    3.5068    3.7602 C.3       1 RES1    0.0000
     19 C14        2.8083    0.5565   10.8841 C.ar      1 RES1    0.0000
     20 C15        3.7364    1.5234   10.6137 C.ar      1 RES1    0.0000
     21 C16        2.5668    5.6374    6.8690 C.3       1 RES1    0.0000
     22 H1         3.4400    3.9909    7.1583 H         1 RES1    0.0000
     23 H2         4.0216    3.3788    9.6507 H         1 RES1    0.0000
     24 H3         0.7255    0.8692    3.6254 H         1 RES1    0.0000
     25 H4        -0.4253    3.0783    3.1269 H         1 RES1    0.0000
     26 H5        -1.2784    2.0377    6.4030 H         1 RES1    0.0000
     27 H6         1.9164    2.9044    3.0986 H         1 RES1    0.0000
     28 H7         0.2790    1.9966    9.4544 H         1 RES1    0.0000
     29 H8        -0.1501    5.4564   10.3702 H         1 RES1    0.0000
     30 H9         0.8769    0.0241   10.6798 H         1 RES1    0.0000
     31 H10        0.4979    0.5191    6.0046 H         1 RES1    0.0000
     32 H11        0.2702    4.3699    3.5234 H         1 RES1    0.0000
     33 H12        4.6158    1.4969   10.8932 H         1 RES1    0.0000
     34 H13        2.1766    0.9295    4.4373 H         1 RES1    0.0000
     35 H14       -1.3635    1.5331    4.8358 H         1 RES1    0.0000
     36 H15       -1.4298    3.9836    5.0812 H         1 RES1    0.0000
     37 H16        3.1235   -0.2294   11.4332 H         1 RES1    0.0000
     38 H17        3.2273    6.0479    7.6662 H         1 RES1    0.0000
     39 H18        3.1147    5.6857    5.9064 H         1 RES1    0.0000
     40 H19        1.6137    6.1324    6.8732 H         1 RES1    0.0000
@<TRIPOS>BOND
     1    1    6 1
     2    2    6 1
     3    3    6 1
     4    4    5 1
     5    5    9 2
     6    6   10 1
     7    7    8 ar
     8    8   20 ar
     9    9    7 1
    10   10    9 1
    11   11   15 1
    12   12    7 ar
    13   13   12 ar
    14   14    1 1
    15   15    2 1
    16   16    3 1
    17   17   14 1
    18   18   14 1
    19   19   13 ar
    20   20   19 ar
    21   21   10 1
    22   22   10 1
    23   23    8 1
    24   24   11 1
    25   25   18 1
    26   26   17 1
    27   27   16 1
    28   28   12 1
    29   29    4 1
    30   30   13 1
    31   31   15 1
    32   32   18 1
    33   33   20 1
    34   34   11 1
    35   35   17 1
    36   36   14 1
    37   37   19 1
    38   38   21 1
    39   39   21 1
    40   40   21 1
    41   11   16 1
    42   15   17 1
    43   16   18 1
@<TRIPOS>SUBSTRUCTURE
     1 RES1 1

@<TRIPOS>CRYSIN
  12.5090   12.0716   18.8823  90.0000  90.0000  90.0000  61 1

