# MOL2 file generated by ConQuest
# Please check atom types

@<TRIPOS>MOLECULE
BEZYEM
    56    60     1
SMALL
NO_CHARGES
****
Generated from CSD

@<TRIPOS>ATOM
      1 O1         0.8505    5.2071   11.2745 O.3       1 RES1    0.0000
      2 N1         1.3667    5.7664   10.0717 N.3       1 RES1    0.0000
      3 C1         1.6787    4.6263    9.2023 C.3       1 RES1    0.0000
      4 H1         1.5055    4.8902    8.2097 H         1 RES1    0.0000
      5 C2         0.6841    3.5035    9.6210 C.3       1 RES1    0.0000
      6 H2         1.1497    2.7035    9.8194 H         1 RES1    0.0000
      7 C3         0.0099    4.0766   10.8968 C.3       1 RES1    0.0000
      8 H3        -0.9656    4.4131   10.6674 H         1 RES1    0.0000
      9 C4         0.5544    6.8328    9.5670 C.ar      1 RES1    0.0000
     10 C5        -0.4296    7.4230   10.3551 C.ar      1 RES1    0.0000
     11 H4        -0.6394    7.0631   11.1786 H         1 RES1    0.0000
     12 C6        -1.0984    8.5618    9.9007 C.ar      1 RES1    0.0000
     13 H5        -1.8382    8.9939   10.4919 H         1 RES1    0.0000
     14 C7        -0.7890    9.1201    8.6783 C.ar      1 RES1    0.0000
     15 H6        -1.2448    9.9066    8.3775 H         1 RES1    0.0000
     16 C8         0.1860    8.5346    7.8883 C.ar      1 RES1    0.0000
     17 H7         0.4061    8.9299    6.9963 H         1 RES1    0.0000
     18 C9         0.8610    7.3988    8.3272 C.ar      1 RES1    0.0000
     19 H8         1.5626    6.9905    7.7592 H         1 RES1    0.0000
     20 C10        3.1459    4.2166    9.3772 C.ar      1 RES1    0.0000
     21 C11        3.8687    3.5092    8.4105 C.ar      1 RES1    0.0000
     22 C12        5.2207    3.2261    8.5389 C.ar      1 RES1    0.0000
     23 H9         5.6978    2.7727    7.8186 H         1 RES1    0.0000
     24 C13        5.8883    3.5889    9.6916 C.ar      1 RES1    0.0000
     25 H10        6.8789    3.3656    9.8103 H         1 RES1    0.0000
     26 C14        5.1956    4.2607   10.6868 C.ar      1 RES1    0.0000
     27 H11        5.6428    4.5030   11.4755 H         1 RES1    0.0000
     28 C15        3.8588    4.5801   10.5306 C.ar      1 RES1    0.0000
     29 H12        3.4137    5.0562   11.2199 H         1 RES1    0.0000
     30 N2         3.2155    3.0411    7.1823 N.pl3     1 RES1    0.0000
     31 O2         2.0113    2.8135    7.1866 O.2       1 RES1    0.0000
     32 O3         3.8864    2.9013    6.1658 O.2       1 RES1    0.0000
     33 C16       -0.3516    3.2665    8.5155 C.2       1 RES1    0.0000
     34 O4        -0.6816    4.2060    7.8060 O.2       1 RES1    0.0000
     35 C17       -0.9835    1.9251    8.3428 C.ar      1 RES1    0.0000
     36 C18       -0.6302    0.8216    9.1174 C.ar      1 RES1    0.0000
     37 H13        0.0472    0.9092    9.8116 H         1 RES1    0.0000
     38 C19       -1.2449   -0.4026    8.8942 C.ar      1 RES1    0.0000
     39 H14       -1.0002   -1.1633    9.4282 H         1 RES1    0.0000
     40 C20       -2.2146   -0.5372    7.9014 C.ar      1 RES1    0.0000
     41 H15       -2.6766   -1.4538    7.7450 H         1 RES1    0.0000
     42 C21       -2.5618    0.5628    7.1202 C.ar      1 RES1    0.0000
     43 H16       -3.2045    0.4736    6.4438 H         1 RES1    0.0000
     44 C22       -1.9624    1.7815    7.3423 C.ar      1 RES1    0.0000
     45 H17       -2.2008    2.4996    6.8375 H         1 RES1    0.0000
     46 C23       -0.0350    3.1620   12.0913 C.ar      1 RES1    0.0000
     47 C24        1.0939    2.9976   12.9059 C.ar      1 RES1    0.0000
     48 H18        1.9129    3.4693   12.6876 H         1 RES1    0.0000
     49 C25        1.0543    2.1748   14.0159 C.ar      1 RES1    0.0000
     50 H19        1.8214    2.0933   14.5735 H         1 RES1    0.0000
     51 C26       -0.0987    1.4702   14.3192 C.ar      1 RES1    0.0000
     52 H20       -0.1245    0.8626   15.1156 H         1 RES1    0.0000
     53 C27       -1.2178    1.6098   13.5086 C.ar      1 RES1    0.0000
     54 H21       -2.0075    1.1201   13.7086 H         1 RES1    0.0000
     55 C28       -1.1986    2.4607   12.4049 C.ar      1 RES1    0.0000
     56 H22       -2.0589    2.5722   11.8124 H         1 RES1    0.0000
@<TRIPOS>BOND
     1    1    2 1
     2    2    3 1
     3    3    4 1
     4    5    3 1
     5    6    5 1
     6    7    1 1
     7    8    7 1
     8    9    2 1
     9   10    9 ar
    10   11   10 1
    11   12   10 ar
    12   13   12 1
    13   14   12 ar
    14   15   14 1
    15   16   14 ar
    16   17   16 1
    17   18    9 ar
    18   19   18 1
    19   20    3 1
    20   21   20 ar
    21   22   21 ar
    22   23   22 1
    23   24   22 ar
    24   25   24 1
    25   26   24 ar
    26   27   26 1
    27   28   20 ar
    28   29   28 1
    29   30   21 1
    30   31   30 2
    31   32   30 2
    32   33    5 1
    33   34   33 2
    34   35   33 1
    35   36   35 ar
    36   37   36 1
    37   38   36 ar
    38   39   38 1
    39   40   38 ar
    40   41   40 1
    41   42   40 ar
    42   43   42 1
    43   44   35 ar
    44   45   44 1
    45   46    7 1
    46   47   46 ar
    47   48   47 1
    48   49   47 ar
    49   50   49 1
    50   51   49 ar
    51   52   51 1
    52   53   51 ar
    53   54   53 1
    54   55   46 ar
    55   56   55 1
    56    5    7 1
    57   16   18 ar
    58   26   28 ar
    59   42   44 ar
    60   53   55 ar
@<TRIPOS>SUBSTRUCTURE
     1 RES1 1

@<TRIPOS>CRYSIN
  10.3040   17.2860   13.0270  90.0000  97.7400  90.0000 231 1

