# MOL2 file generated by ConQuest
# Please check atom types

@<TRIPOS>MOLECULE
BHCDNB
    53    55     1
SMALL
NO_CHARGES
****
Generated from CSD

@<TRIPOS>ATOM
      1 C1         5.5433    3.8458    5.8648 C.2       1 RES1    0.0000
      2 C2         6.7469    2.9706    5.7539 C.3       1 RES1    0.0000
      3 C3         6.5422    1.9775    4.6292 C.3       1 RES1    0.0000
      4 C4         5.8954    2.5606    3.4492 C.3       1 RES1    0.0000
      5 C5         4.1186    4.1416    2.6294 C.3       1 RES1    0.0000
      6 C6         2.7921    4.8916    2.8750 C.3       1 RES1    0.0000
      7 C7         2.2763    4.6350    4.2412 C.3       1 RES1    0.0000
      8 C8         3.3653    4.8621    5.2945 C.3       1 RES1    0.0000
      9 C9         4.5525    3.9931    5.0173 C.2       1 RES1    0.0000
     10 C10        4.5689    3.2148    3.7105 C.3       1 RES1    0.0000
     11 C11        1.7440    4.6510    1.7424 C.3       1 RES1    0.0000
     12 C12        1.3756    3.2013    1.5642 C.3       1 RES1    0.0000
     13 C13        0.4995    5.4931    2.0632 C.3       1 RES1    0.0000
     14 C14        2.3663    5.1850    0.4356 C.3       1 RES1    0.0000
     15 O1         5.5646    4.6706    7.0369 O.3       1 RES1    0.0000
     16 O2         4.6475    3.0356    8.2566 O.2       1 RES1    0.0000
     17 N1         5.7480    7.5025   12.7472 N.pl3     1 RES1    0.0000
     18 O3         6.5463    8.4207   12.6601 O.2       1 RES1    0.0000
     19 O4         5.1232    7.2152   13.7452 O.2       1 RES1    0.0000
     20 H1         6.7879    3.5769    5.5400 H         1 RES1    0.0000
     21 H2         6.8943    2.4390    6.6805 H         1 RES1    0.0000
     22 H3         5.9199    1.1710    4.9936 H         1 RES1    0.0000
     23 H4         7.5002    1.5884    4.3362 H         1 RES1    0.0000
     24 H5         6.5586    3.3044    3.0373 H         1 RES1    0.0000
     25 H6         5.7398    1.7737    2.7245 H         1 RES1    0.0000
     26 H7         4.8882    4.8818    2.4908 H         1 RES1    0.0000
     27 H8         4.0039    3.5622    1.7266 H         1 RES1    0.0000
     28 H9         3.0132    5.9497    2.8235 H         1 RES1    0.0000
     29 H10        1.4575    5.3028    4.4392 H         1 RES1    0.0000
     30 H11        1.9406    3.6125    4.3045 H         1 RES1    0.0000
     31 H12        2.9722    4.6277    6.2726 H         1 RES1    0.0000
     32 H13        3.6273    5.8969    5.2668 H         1 RES1    0.0000
     33 H14        3.8893    2.3814    3.7541 H         1 RES1    0.0000
     34 H15        0.9416    2.8282    2.4790 H         1 RES1    0.0000
     35 H16        2.2517    2.6269    1.3266 H         1 RES1    0.0000
     36 H17        0.6550    3.1117    0.7643 H         1 RES1    0.0000
     37 H18        0.7779    6.5180    2.1899 H         1 RES1    0.0000
     38 H19        0.0409    5.1310    2.9740 H         1 RES1    0.0000
     39 H20       -0.2129    5.4084    1.2514 H         1 RES1    0.0000
     40 H21        2.6365    6.2234    0.5623 H         1 RES1    0.0000
     41 H22        1.6540    5.0941   -0.3643 H         1 RES1    0.0000
     42 H23        3.2506    4.6105    0.1980 H         1 RES1    0.0000
     43 C15        5.0970    4.1490    8.1695 C.2       1 RES1    0.0000
     44 C16        5.7971    6.3253    9.1876 C.ar      1 RES1    0.0000
     45 C17        5.9584    7.1355   10.3126 C.ar      1 RES1    0.0000
     46 C18        5.5097    6.6923   11.5573 C.ar      1 RES1    0.0000
     47 C19        4.9095    5.4378   11.6796 C.ar      1 RES1    0.0000
     48 C20        4.7540    4.6277   10.5550 C.ar      1 RES1    0.0000
     49 C21        5.1945    5.0708    9.3088 C.ar      1 RES1    0.0000
     50 H24        6.1410    6.6690    8.2229 H         1 RES1    0.0000
     51 H25        6.4169    8.1064   10.2184 H         1 RES1    0.0000
     52 H26        4.5664    5.0954   12.6443 H         1 RES1    0.0000
     53 H27        4.2905    3.6567   10.6488 H         1 RES1    0.0000
@<TRIPOS>BOND
     1    1    2 1
     2    2    3 1
     3    3    4 1
     4    4   10 1
     5    5    6 1
     6    6    7 1
     7    7    8 1
     8    8    9 1
     9    9    1 2
    10   10    5 1
    11   11    6 1
    12   12   11 1
    13   13   11 1
    14   14   11 1
    15   15    1 1
    16   16   43 2
    17   17   18 2
    18   19   17 2
    19   20    2 1
    20   21    2 1
    21   22    3 1
    22   23    3 1
    23   24    4 1
    24   25    4 1
    25   26    5 1
    26   27    5 1
    27   28    6 1
    28   29    7 1
    29   30    7 1
    30   31    8 1
    31   32    8 1
    32   33   10 1
    33   34   12 1
    34   35   12 1
    35   36   12 1
    36   37   13 1
    37   38   13 1
    38   39   13 1
    39   40   14 1
    40   41   14 1
    41   42   14 1
    42   43   15 1
    43   44   45 ar
    44   45   46 ar
    45   46   17 1
    46   47   46 ar
    47   48   47 ar
    48   49   43 1
    49   50   44 1
    50   51   45 1
    51   52   47 1
    52   53   48 1
    53    9   10 1
    54   44   49 ar
    55   48   49 ar
@<TRIPOS>SUBSTRUCTURE
     1 RES1 1

@<TRIPOS>CRYSIN
   8.1880   12.2750   39.6000  90.0000  90.0000  90.0000  61 1

