# MOL2 file generated by ConQuest
# Please check atom types

@<TRIPOS>MOLECULE
BHPNPH
    62    66     2
SMALL
NO_CHARGES
****
Generated from CSD

@<TRIPOS>ATOM
      1 C1         6.2204   -1.2801    5.3411 C.3       1 RES1    0.0000
      2 C2        -4.5779    6.8473    6.4044 C.3       2 RES2    0.0000
      3 C3         6.8397   -0.3082    6.3027 C.2       1 RES1    0.0000
      4 C4        -5.2388    6.0416    7.5016 C.2       2 RES2    0.0000
      5 C5         8.0581    0.0670    5.9328 C.2       1 RES1    0.0000
      6 C6        -4.3845    5.5526    8.3645 C.2       2 RES2    0.0000
      7 C7         8.5279   -0.5626    4.6877 C.3       1 RES1    0.0000
      8 C8        -2.9678    5.9212    8.0656 C.3       2 RES2    0.0000
      9 C9         7.2508   -1.2702    4.1669 C.3       1 RES1    0.0000
     10 C10       -3.0640    6.6420    6.7157 C.3       2 RES2    0.0000
     11 C11        6.2869   -0.3861    3.4179 C.2       1 RES1    0.0000
     12 C12       -2.9817    5.7768    5.5075 C.2       2 RES2    0.0000
     13 C13        5.1641   -0.6278    4.4103 C.3       1 RES1    0.0000
     14 C14       -4.3961    6.0709    5.0576 C.3       2 RES2    0.0000
     15 C15        5.5108    2.0183    1.0109 C.ar      1 RES1    0.0000
     16 C16       -1.3026    3.4678    3.4950 C.ar      2 RES2    0.0000
     17 C17        6.7225    2.2005    0.3236 C.ar      1 RES1    0.0000
     18 C18       -0.0731    3.3238    4.1669 C.ar      2 RES2    0.0000
     19 C19        6.8113    3.1058   -0.7119 C.ar      1 RES1    0.0000
     20 C20        0.8536    2.4379    3.6737 C.ar      2 RES2    0.0000
     21 C21        5.6744    3.8482   -1.0325 C.ar      1 RES1    0.0000
     22 C22        0.5948    1.7101    2.5303 C.ar      2 RES2    0.0000
     23 C23        4.4614    3.6854   -0.3606 C.ar      1 RES1    0.0000
     24 C24       -0.6007    1.8729    1.8307 C.ar      2 RES2    0.0000
     25 C25        4.3866    2.7806    0.6472 C.ar      1 RES1    0.0000
     26 C26       -1.5433    2.7640    2.3177 C.ar      2 RES2    0.0000
     27 N1         6.4922    0.3837    2.4379 N.2       1 RES1    0.0000
     28 N2        -2.0426    5.0282    5.1192 N.2       2 RES2    0.0000
     29 N3         5.4007    1.1503    2.0557 N.pl3     1 RES1    0.0000
     30 N4        -2.2733    4.3079    3.9665 N.pl3     2 RES2    0.0000
     31 N5         5.7577    4.8139   -2.1019 N.pl3     1 RES1    0.0000
     32 N6         1.5873    0.7632    2.0464 N.pl3     2 RES2    0.0000
     33 O1         6.8451    5.0126   -2.6659 O.2       1 RES1    0.0000
     34 O2         2.5919    0.5702    2.7676 O.2       2 RES2    0.0000
     35 O3         4.7588    5.4837   -2.4255 O.2       1 RES1    0.0000
     36 O4         1.4132    0.2233    0.9708 O.2       2 RES2    0.0000
     37 H1         5.9108   -2.0664    5.9822 H         1 RES1    0.0000
     38 H2        -5.1243    7.7672    6.3766 H         2 RES2    0.0000
     39 H3         7.5965    1.6350    0.6041 H         1 RES1    0.0000
     40 H4         0.1466    3.9039    5.0576 H         2 RES2    0.0000
     41 H5         7.7297    3.2266   -1.2667 H         1 RES1    0.0000
     42 H6         1.7923    2.2698    4.1669 H         2 RES2    0.0000
     43 H7         3.6243    4.2834   -0.6411 H         1 RES1    0.0000
     44 H8        -0.7642    1.3292    0.9215 H         2 RES2    0.0000
     45 H9         3.4397    2.5941    1.1403 H         1 RES1    0.0000
     46 H10       -2.4786    2.8594    1.8245 H         2 RES2    0.0000
     47 H11        6.4190    0.0359    7.2150 H         1 RES1    0.0000
     48 H12       -6.3136    5.8604    7.5108 H         2 RES2    0.0000
     49 H13        8.6579    0.8402    6.4506 H         1 RES1    0.0000
     50 H14       -4.7006    4.9749    9.1998 H         2 RES2    0.0000
     51 H15        8.8733    0.1567    3.9573 H         1 RES1    0.0000
     52 H16        9.3228   -1.2744    4.8850 H         1 RES1    0.0000
     53 H17       -2.5793    6.5650    8.8268 H         2 RES2    0.0000
     54 H18       -2.3504    5.0273    7.9916 H         2 RES2    0.0000
     55 H19        7.6235   -2.1542    3.6768 H         1 RES1    0.0000
     56 H20       -2.3428    7.4279    6.7896 H         2 RES2    0.0000
     57 H21        4.6775    0.2662    4.7771 H         1 RES1    0.0000
     58 H22        4.4211   -1.3244    4.0559 H         1 RES1    0.0000
     59 H23       -4.4782    6.7133    4.1669 H         2 RES2    0.0000
     60 H24       -5.0274    5.2132    4.9158 H         2 RES2    0.0000
     61 H25        4.4652    1.0483    2.5642 H         1 RES1    0.0000
     62 H26       -3.2144    4.3995    3.4426 H         2 RES2    0.0000
@<TRIPOS>BOND
     1    1    3 1
     2    2    4 1
     3    3    5 2
     4    4    6 2
     5    5    7 1
     6    6    8 1
     7    7    9 1
     8    8   10 1
     9    9    1 1
    10   10    2 1
    11   11    9 1
    12   12   10 1
    13   13    1 1
    14   14    2 1
    15   15   17 ar
    16   16   18 ar
    17   17   19 ar
    18   18   20 ar
    19   19   21 ar
    20   20   22 ar
    21   21   23 ar
    22   22   24 ar
    23   23   25 ar
    24   24   26 ar
    25   25   15 ar
    26   26   16 ar
    27   27   11 2
    28   28   12 2
    29   29   15 1
    30   30   16 1
    31   31   21 1
    32   32   22 1
    33   33   31 2
    34   34   32 2
    35   35   31 2
    36   36   32 2
    37   37    1 1
    38   38    2 1
    39   39   17 1
    40   40   18 1
    41   41   19 1
    42   42   20 1
    43   43   23 1
    44   44   24 1
    45   45   25 1
    46   46   26 1
    47   47    3 1
    48   48    4 1
    49   49    5 1
    50   50    6 1
    51   51    7 1
    52   52    7 1
    53   53    8 1
    54   54    8 1
    55   55    9 1
    56   56   10 1
    57   57   13 1
    58   58   13 1
    59   59   14 1
    60   60   14 1
    61   61   29 1
    62   62   30 1
    63   11   13 1
    64   12   14 1
    65   27   29 1
    66   28   30 1
@<TRIPOS>SUBSTRUCTURE
     1 RES1 1
     2 RES2 2

@<TRIPOS>CRYSIN
  33.5500    4.7200   31.1100  90.0000  97.8300  90.0000  15 1

