# MOL2 file generated by ConQuest
# Please check atom types

@<TRIPOS>MOLECULE
BIBWAK
    77    83     2
SMALL
NO_CHARGES
****
Generated from CSD

@<TRIPOS>ATOM
      1 O1        -2.4018    5.7242    6.0956 O.2       1 RES1    0.0000
      2 O2        -0.2532    8.9725    4.6893 O.3       1 RES1    0.0000
      3 N1        -0.9700    7.9314    5.2365 N.2       1 RES1    0.0000
      4 C1        -1.8037    5.7383    5.0370 C.2       1 RES1    0.0000
      5 C2        -1.0600    6.9093    4.4745 C.2       1 RES1    0.0000
      6 C3        -0.5516    6.6002    3.0708 C.3       1 RES1    0.0000
      7 C4        -0.8924    5.1130    2.9915 C.ar      1 RES1    0.0000
      8 C5        -1.6175    4.6539    4.0731 C.ar      1 RES1    0.0000
      9 C6        -2.0499    3.3248    4.1728 C.ar      1 RES1    0.0000
     10 C7        -1.7169    2.4760    3.1526 C.ar      1 RES1    0.0000
     11 C8        -0.9758    2.9160    2.0634 C.ar      1 RES1    0.0000
     12 C9        -0.5556    4.2229    1.9662 C.ar      1 RES1    0.0000
     13 C10       -1.3560    7.4088    2.0404 C.ar      1 RES1    0.0000
     14 C11       -2.4731    6.8832    1.4370 C.ar      1 RES1    0.0000
     15 C12       -3.2255    7.6112    0.5114 C.ar      1 RES1    0.0000
     16 C13       -2.8551    8.8950    0.1611 C.ar      1 RES1    0.0000
     17 C14       -1.7310    9.4125    0.7364 C.ar      1 RES1    0.0000
     18 C15       -0.9812    8.7077    1.6773 C.ar      1 RES1    0.0000
     19 C16        0.9750    6.7402    2.9072 C.ar      1 RES1    0.0000
     20 C17        1.5240    6.8358    1.6338 C.ar      1 RES1    0.0000
     21 C18        2.8922    6.8429    1.4549 C.ar      1 RES1    0.0000
     22 C19        3.7254    6.7795    2.5287 C.ar      1 RES1    0.0000
     23 C20        3.2174    6.6576    3.8123 C.ar      1 RES1    0.0000
     24 C21        1.8249    6.6506    3.9862 C.ar      1 RES1    0.0000
     25 H1        -2.6203    2.9905    5.0115 H         1 RES1    0.0000
     26 H2        -2.0305    1.4499    3.1961 H         1 RES1    0.0000
     27 H3        -0.7253    2.2252    1.2784 H         1 RES1    0.0000
     28 H4         0.0155    4.5512    1.1250 H         1 RES1    0.0000
     29 H5        -2.7817    5.8904    1.6875 H         1 RES1    0.0000
     30 H6        -4.0955    7.1691    0.0767 H         1 RES1    0.0000
     31 H7        -3.4325    9.4649   -0.5369 H         1 RES1    0.0000
     32 O3         2.5553    8.5154   12.4468 O.2       2 RES2    0.0000
     33 O4         3.6123    4.6680   11.2272 O.3       2 RES2    0.0000
     34 N2         3.2512    5.9236   11.7156 N.2       2 RES2    0.0000
     35 C22        2.7991    8.2032   11.2758 C.2       2 RES2    0.0000
     36 C23        3.2152    6.8459   10.8386 C.2       2 RES2    0.0000
     37 C24        3.5292    6.8580    9.3632 C.3       2 RES2    0.0000
     38 C25        3.0989    8.2556    8.9644 C.ar      2 RES2    0.0000
     39 C26        2.7252    9.0168   10.0817 C.ar      2 RES2    0.0000
     40 C27        2.3608   10.3630    9.9692 C.ar      2 RES2    0.0000
     41 C28        2.3481   10.8896    8.7036 C.ar      2 RES2    0.0000
     42 C29        2.6821   10.1616    7.5555 C.ar      2 RES2    0.0000
     43 C30        3.0671    8.8275    7.6987 C.ar      2 RES2    0.0000
     44 C31        5.0547    6.6888    9.2405 C.ar      2 RES2    0.0000
     45 C32        5.8907    7.7884    9.3172 C.ar      2 RES2    0.0000
     46 C33        7.2791    7.6353    9.2993 C.ar      2 RES2    0.0000
     47 C34        7.8232    6.3757    9.1919 C.ar      2 RES2    0.0000
     48 C35        7.0052    5.2802    9.1357 C.ar      2 RES2    0.0000
     49 C36        5.6450    5.4252    9.1689 C.ar      2 RES2    0.0000
     50 C37        2.7171    5.8159    8.5706 C.ar      2 RES2    0.0000
     51 C38        3.1576    5.3255    7.3484 C.ar      2 RES2    0.0000
     52 C39        2.3591    4.4374    6.6248 C.ar      2 RES2    0.0000
     53 C40        1.1322    4.0437    7.1004 C.ar      2 RES2    0.0000
     54 C41        0.7025    4.5200    8.3098 C.ar      2 RES2    0.0000
     55 C42        1.4934    5.4040    9.0334 C.ar      2 RES2    0.0000
     56 H8         2.1028   10.9450   10.8155 H         2 RES2    0.0000
     57 H9         2.0654   11.9116    8.5911 H         2 RES2    0.0000
     58 H10        2.6357   10.6228    6.5967 H         2 RES2    0.0000
     59 H11        3.3327    8.2465    6.8268 H         2 RES2    0.0000
     60 H12        5.4730    8.7701    9.3837 H         2 RES2    0.0000
     61 H13        7.9201    8.4882    9.3581 H         2 RES2    0.0000
     62 H14        8.8780    6.2528    9.1536 H         2 RES2    0.0000
     63 H15       -1.4174   10.3912    0.4602 H         1 RES1    0.0000
     64 H16       -0.1163    9.1628    2.1222 H         1 RES1    0.0000
     65 H17        0.8773    6.9073    0.7926 H         1 RES1    0.0000
     66 H18        3.2981    6.8973    0.4602 H         1 RES1    0.0000
     67 H19        4.7787    6.8268    2.3779 H         1 RES1    0.0000
     68 H20        3.8705    6.5650    4.6535 H         1 RES1    0.0000
     69 H21        1.4177    6.5751    4.9603 H         1 RES1    0.0000
     70 H22       -0.2745    9.5353    5.3950 H         1 RES1    0.0000
     71 H23        7.4274    4.2995    9.0769 H         2 RES2    0.0000
     72 H24        5.0251    4.5512    9.1280 H         2 RES2    0.0000
     73 H25        4.1061    5.6286    6.9547 H         2 RES2    0.0000
     74 H26        2.7101    4.0578    5.6762 H         2 RES2    0.0000
     75 H27        0.5206    3.3731    6.5200 H         2 RES2    0.0000
     76 H28       -0.2473    4.2088    8.6933 H         2 RES2    0.0000
     77 H29        1.1359    5.7695    9.9718 H         2 RES2    0.0000
@<TRIPOS>BOND
     1    1    4 2
     2    2    3 1
     3    3    5 2
     4    4    5 1
     5    5    6 1
     6    6    7 1
     7    7    8 ar
     8    8    4 1
     9    9    8 ar
    10   10    9 ar
    11   11   10 ar
    12   12    7 ar
    13   13    6 1
    14   14   13 ar
    15   15   14 ar
    16   16   15 ar
    17   17   16 ar
    18   18   13 ar
    19   19    6 1
    20   20   19 ar
    21   21   20 ar
    22   22   21 ar
    23   23   22 ar
    24   24   19 ar
    25   25    9 1
    26   26   10 1
    27   27   11 1
    28   28   12 1
    29   29   14 1
    30   30   15 1
    31   31   16 1
    32   32   35 2
    33   33   34 1
    34   34   36 2
    35   35   36 1
    36   36   37 1
    37   37   38 1
    38   38   39 ar
    39   39   35 1
    40   40   39 ar
    41   41   40 ar
    42   42   41 ar
    43   43   38 ar
    44   44   37 1
    45   45   44 ar
    46   46   45 ar
    47   47   46 ar
    48   48   47 ar
    49   49   44 ar
    50   50   37 1
    51   51   50 ar
    52   52   51 ar
    53   53   52 ar
    54   54   53 ar
    55   55   50 ar
    56   56   40 1
    57   57   41 1
    58   58   42 1
    59   59   43 1
    60   60   45 1
    61   61   46 1
    62   62   47 1
    63   63   17 1
    64   64   18 1
    65   65   20 1
    66   66   21 1
    67   67   22 1
    68   68   23 1
    69   69   24 1
    70   70    2 1
    71   71   48 1
    72   72   49 1
    73   73   51 1
    74   74   52 1
    75   75   53 1
    76   76   54 1
    77   77   55 1
    78   11   12 ar
    79   17   18 ar
    80   23   24 ar
    81   42   43 ar
    82   48   49 ar
    83   54   55 ar
@<TRIPOS>SUBSTRUCTURE
     1 RES1 1
     2 RES2 32

@<TRIPOS>CRYSIN
  12.7790   10.0690   26.3400  90.0000 103.9000  90.0000  14 1

