# MOL2 file generated by ConQuest
# Please check atom types

@<TRIPOS>MOLECULE
BIBXEQ
    61    66     1
SMALL
NO_CHARGES
****
Generated from CSD

@<TRIPOS>ATOM
      1 C1         5.2764    3.5906    3.3987 C.2       1 RES1    0.0000
      2 C2         4.2514    2.5075    3.6418 C.3       1 RES1    0.0000
      3 H1         4.6165    1.8639    4.2994 H         1 RES1    0.0000
      4 H2         4.0990    2.0168    2.7954 H         1 RES1    0.0000
      5 C3         2.9110    3.0309    4.1551 C.3       1 RES1    0.0000
      6 H3         2.2525    2.2907    4.1703 H         1 RES1    0.0000
      7 H4         3.0200    3.3614    5.0829 H         1 RES1    0.0000
      8 C4         2.3832    4.1596    3.2772 C.3       1 RES1    0.0000
      9 C5         3.3433    5.3508    3.3542 C.3       1 RES1    0.0000
     10 H5         3.0363    5.8904    4.1388 H         1 RES1    0.0000
     11 C6         3.4400    6.3574    2.1692 C.3       1 RES1    0.0000
     12 C7         2.1934    7.1389    1.7764 C.3       1 RES1    0.0000
     13 H6         1.7690    7.5159    2.5870 H         1 RES1    0.0000
     14 H7         1.5441    6.5307    1.3423 H         1 RES1    0.0000
     15 C8         2.5602    8.2716    0.8139 C.3       1 RES1    0.0000
     16 H8         1.7541    8.8125    0.6207 H         1 RES1    0.0000
     17 H9         2.8818    7.8859   -0.0391 H         1 RES1    0.0000
     18 C9         3.6486    9.1776    1.4031 C.3       1 RES1    0.0000
     19 H10        3.8617    9.8974    0.7574 H         1 RES1    0.0000
     20 H11        3.3116    9.6003    2.2333 H         1 RES1    0.0000
     21 C10        4.9172    8.3842    1.7156 C.3       1 RES1    0.0000
     22 H12        5.6014    8.9885    2.0976 H         1 RES1    0.0000
     23 H13        5.2799    7.9979    0.8801 H         1 RES1    0.0000
     24 C11        4.6104    7.2559    2.7162 C.3       1 RES1    0.0000
     25 C12        5.6366    6.0581    2.7433 C.3       1 RES1    0.0000
     26 C13        4.8511    5.0223    3.6353 C.3       1 RES1    0.0000
     27 H14        5.0371    5.2412    4.5935 H         1 RES1    0.0000
     28 C14        5.4289    5.4986    1.3467 C.2       1 RES1    0.0000
     29 H15        6.0966    5.1061    0.7954 H         1 RES1    0.0000
     30 C15        4.1543    5.6533    1.0320 C.2       1 RES1    0.0000
     31 H16        3.7493    5.3675    0.2214 H         1 RES1    0.0000
     32 C16        4.3781    7.8942    4.0910 C.3       1 RES1    0.0000
     33 H17        5.0667    8.5706    4.2582 H         1 RES1    0.0000
     34 H18        4.4249    7.2029    4.7845 H         1 RES1    0.0000
     35 H19        3.4937    8.3163    4.1106 H         1 RES1    0.0000
     36 C17        7.0332    6.4293    3.1784 C.ar      1 RES1    0.0000
     37 C18        7.9363    6.9799    2.2702 C.ar      1 RES1    0.0000
     38 H20        7.6827    7.0589    1.3575 H         1 RES1    0.0000
     39 C19        9.1913    7.4155    2.6597 C.ar      1 RES1    0.0000
     40 H21        9.7864    7.7898    2.0195 H         1 RES1    0.0000
     41 C20        9.5790    7.3050    3.9890 C.ar      1 RES1    0.0000
     42 C21        8.7126    6.7556    4.9027 C.ar      1 RES1    0.0000
     43 H22        8.9727    6.6676    5.8121 H         1 RES1    0.0000
     44 C22        7.4502    6.3286    4.4936 C.ar      1 RES1    0.0000
     45 H23        6.8586    5.9562    5.1371 H         1 RES1    0.0000
     46 C23       11.2750    7.6070    5.6374 C.3       1 RES1    0.0000
     47 H24       10.7269    8.1687    6.2256 H         1 RES1    0.0000
     48 H25       12.2144    7.8770    5.7112 H         1 RES1    0.0000
     49 H26       11.1834    6.6676    5.9033 H         1 RES1    0.0000
     50 O1         6.4006    3.2981    3.0578 O.2       1 RES1    0.0000
     51 O2        10.8395    7.7642    4.2901 O.3       1 RES1    0.0000
     52 O3         2.2832    3.6578    1.9049 O.3       1 RES1    0.0000
     53 N1         0.9215    3.2902    1.6506 N.2       1 RES1    0.0000
     54 C24        0.9402    4.4944    3.6277 C.3       1 RES1    0.0000
     55 H27        0.7088    4.1848    4.5392 H         1 RES1    0.0000
     56 H28        0.7684    5.4671    3.5593 H         1 RES1    0.0000
     57 C25        0.1901    3.7373    2.5914 C.2       1 RES1    0.0000
     58 C26       -1.2840    3.5076    2.5968 C.3       1 RES1    0.0000
     59 H29       -1.5476    3.0519    1.7710 H         1 RES1    0.0000
     60 H30       -1.7484    4.3680    2.6565 H         1 RES1    0.0000
     61 H31       -1.5250    2.9523    3.3683 H         1 RES1    0.0000
@<TRIPOS>BOND
     1    1    2 1
     2    2    3 1
     3    4    2 1
     4    5    2 1
     5    6    5 1
     6    7    5 1
     7    8    5 1
     8    9    8 1
     9   10    9 1
    10   11    9 1
    11   12   11 1
    12   13   12 1
    13   14   12 1
    14   15   12 1
    15   16   15 1
    16   17   15 1
    17   18   15 1
    18   19   18 1
    19   20   18 1
    20   21   18 1
    21   22   21 1
    22   23   21 1
    23   24   11 1
    24   25   24 1
    25   26    1 1
    26   27   26 1
    27   28   25 1
    28   29   28 1
    29   30   11 1
    30   31   30 1
    31   32   24 1
    32   33   32 1
    33   34   32 1
    34   35   32 1
    35   36   25 1
    36   37   36 ar
    37   38   37 1
    38   39   37 ar
    39   40   39 1
    40   41   39 ar
    41   42   41 ar
    42   43   42 1
    43   44   36 ar
    44   45   44 1
    45   46   47 1
    46   48   46 1
    47   49   46 1
    48   50    1 2
    49   51   41 1
    50   52    8 1
    51   53   52 1
    52   54    8 1
    53   55   54 1
    54   56   54 1
    55   57   53 2
    56   58   57 1
    57   59   58 1
    58   60   58 1
    59   61   58 1
    60    9   26 1
    61   21   24 1
    62   25   26 1
    63   28   30 2
    64   42   44 ar
    65   46   51 1
    66   54   57 1
@<TRIPOS>SUBSTRUCTURE
     1 RES1 1

@<TRIPOS>CRYSIN
  10.9560   17.7850   11.3020  90.0000 106.2300  90.0000 231 1

