# MOL2 file generated by ConQuest
# Please check atom types

@<TRIPOS>MOLECULE
BICCIZ
    25    26     1
SMALL
NO_CHARGES
****
Generated from CSD

@<TRIPOS>ATOM
      1 N1        -1.7851   -5.7846    4.4999 N.pl3     1 RES1    0.0000
      2 C1        -2.7951   -5.9695    5.4189 C.2       1 RES1    0.0000
      3 C2        -3.7053   -7.0867    5.0548 C.3       1 RES1    0.0000
      4 C3        -2.8641   -5.1279    6.4872 C.2       1 RES1    0.0000
      5 C4        -3.7651   -5.2983    7.6193 C.2       1 RES1    0.0000
      6 O1        -3.9269   -4.4505    8.4553 O.2       1 RES1    0.0000
      7 O2        -4.3123   -6.5043    7.7347 O.3       1 RES1    0.0000
      8 C5        -5.1250   -6.7078    8.9155 C.3       1 RES1    0.0000
      9 C6        -2.0224   -3.8723    6.5672 C.3       1 RES1    0.0000
     10 C7        -0.8001   -3.9765    5.6630 C.2       1 RES1    0.0000
     11 C8         0.2497   -2.9904    5.8006 C.2       1 RES1    0.0000
     12 O3         1.1549   -2.7416    5.0430 O.2       1 RES1    0.0000
     13 O4         0.0930   -2.2841    6.9460 O.3       1 RES1    0.0000
     14 C9         1.0734   -1.2577    7.2108 C.3       1 RES1    0.0000
     15 C10       -0.7531   -4.8935    4.6671 C.2       1 RES1    0.0000
     16 C11        0.3746   -5.0907    3.7068 C.3       1 RES1    0.0000
     17 C12       -2.8605   -2.6548    6.1795 C.ar      1 RES1    0.0000
     18 C13       -3.1806   -2.4834    4.8136 C.ar      1 RES1    0.0000
     19 C14       -3.9451   -1.4570    4.3490 C.ar      1 RES1    0.0000
     20 C15       -4.5057   -0.5349    5.2339 C.ar      1 RES1    0.0000
     21 C16       -4.2556   -0.6764    6.5775 C.ar      1 RES1    0.0000
     22 C17       -3.4568   -1.7131    7.0333 C.ar      1 RES1    0.0000
     23 N2        -3.2314   -1.7327    8.4864 N.pl3     1 RES1    0.0000
     24 O5        -2.1574   -2.0270    8.9422 O.2       1 RES1    0.0000
     25 O6        -4.1872   -1.4178    9.1804 O.2       1 RES1    0.0000
@<TRIPOS>BOND
     1    1    2 1
     2    2    3 1
     3    4    2 2
     4    5    4 1
     5    6    5 2
     6    7    5 1
     7    8    7 1
     8    9    4 1
     9   10    9 1
    10   11   10 1
    11   12   11 2
    12   13   11 1
    13   14   13 1
    14   15    1 1
    15   16   15 1
    16   17    9 1
    17   18   17 ar
    18   19   18 ar
    19   20   19 ar
    20   21   20 ar
    21   22   17 ar
    22   23   22 1
    23   24   23 2
    24   25   23 2
    25   10   15 2
    26   21   22 ar
@<TRIPOS>SUBSTRUCTURE
     1 RES1 1

@<TRIPOS>CRYSIN
  10.9230   10.3260   14.8140  90.0000  92.7000  90.0000  14 1

