# MOL2 file generated by ConQuest
# Please check atom types

@<TRIPOS>MOLECULE
BICCIZ03
    86    88     2
SMALL
NO_CHARGES
****
Generated from CSD

@<TRIPOS>ATOM
      1 O1        -0.3077    6.1709    9.3499 O.2       1 RES1    0.0000
      2 O2         0.2830    6.8283    7.3008 O.3       1 RES1    0.0000
      3 O3         4.2002    4.7182    4.8708 O.2       1 RES1    0.0000
      4 O4         4.2817    2.5472    5.1982 O.3       1 RES1    0.0000
      5 O5         1.7708    6.5856    4.4547 O.2       1 RES1    0.0000
      6 O6         1.4461    8.6346    4.9613 O.2       1 RES1    0.0000
      7 N1         2.6520    3.1811    8.9974 N.pl3     1 RES1    0.0000
      8 H1         2.7857    2.6148    9.5862 H         1 RES1    0.0000
      9 N2         1.9961    7.5633    5.1295 N.pl3     1 RES1    0.0000
     10 C1         1.7281    4.1625    9.1916 C.2       1 RES1    0.0000
     11 C2         1.0602    4.0869   10.5460 C.3       1 RES1    0.0000
     12 H2         1.1615    4.9262   11.0000 H         1 RES1    0.0000
     13 H3         1.4675    3.3898   11.0656 H         1 RES1    0.0000
     14 H4         0.1257    3.8951   10.4310 H         1 RES1    0.0000
     15 C3         1.4889    5.0627    8.2243 C.2       1 RES1    0.0000
     16 C4         0.4194    6.0378    8.3963 C.2       1 RES1    0.0000
     17 C5        -0.7626    7.8257    7.3906 C.3       1 RES1    0.0000
     18 H5        -0.7533    8.3706    6.6002 H         1 RES1    0.0000
     19 H6        -0.6122    8.3778    8.1612 H         1 RES1    0.0000
     20 H7        -1.6143    7.3909    7.4710 H         1 RES1    0.0000
     21 C6         2.3302    5.1087    6.9565 C.3       1 RES1    0.0000
     22 H8         1.7253    5.1636    6.1883 H         1 RES1    0.0000
     23 C7         3.1793    3.8623    6.8068 C.2       1 RES1    0.0000
     24 C8         3.9291    3.7684    5.5538 C.2       1 RES1    0.0000
     25 C9         5.1261    2.4186    4.0448 C.3       1 RES1    0.0000
     26 H9         5.9561    2.8766    4.2031 H         1 RES1    0.0000
     27 H10        4.6888    2.8049    3.2828 H         1 RES1    0.0000
     28 H11        5.3004    1.4905    3.8765 H         1 RES1    0.0000
     29 C10        3.3204    2.9631    7.8124 C.2       1 RES1    0.0000
     30 C11        4.1500    1.7164    7.8310 C.3       1 RES1    0.0000
     31 H12        4.9125    1.8311    7.2595 H         1 RES1    0.0000
     32 H13        3.6225    0.9781    7.5168 H         1 RES1    0.0000
     33 H14        4.4446    1.5413    8.7265 H         1 RES1    0.0000
     34 C12        3.2002    6.3595    6.9664 C.ar      1 RES1    0.0000
     35 C13        4.2290    6.4267    7.9040 C.ar      1 RES1    0.0000
     36 H15        4.3781    5.6978    8.4618 H         1 RES1    0.0000
     37 C14        5.0279    7.5343    8.0289 C.ar      1 RES1    0.0000
     38 H16        5.7145    7.5405    8.6560 H         1 RES1    0.0000
     39 C15        4.8207    8.6358    7.2336 C.ar      1 RES1    0.0000
     40 H17        5.3652    9.3848    7.3189 H         1 RES1    0.0000
     41 C16        3.8102    8.6234    6.3170 C.ar      1 RES1    0.0000
     42 H18        3.6437    9.3733    5.7913 H         1 RES1    0.0000
     43 C17        3.0403    7.4895    6.1785 C.ar      1 RES1    0.0000
     44 O7         6.8324    9.9754    9.5021 O.2       2 RES2    0.0000
     45 O8         7.5639    9.5237   11.5523 O.3       2 RES2    0.0000
     46 O9        11.4582   11.8515   13.5926 O.2       2 RES2    0.0000
     47 O10       11.4614   14.0102   13.2111 O.3       2 RES2    0.0000
     48 O11        9.4563    9.6262   14.0226 O.2       2 RES2    0.0000
     49 O12        9.4500    7.5643   13.5567 O.2       2 RES2    0.0000
     50 N3         9.4493   13.3137    9.6233 N.pl3     2 RES2    0.0000
     51 H19        9.5295   13.8754    9.0048 H         2 RES2    0.0000
     52 N4         9.7481    8.7089   13.3019 N.pl3     2 RES2    0.0000
     53 C18        8.5754   12.2720    9.5169 C.2       2 RES2    0.0000
     54 C19        7.7344   12.3269    8.2713 C.3       2 RES2    0.0000
     55 H20        7.8057   11.4936    7.8001 H         2 RES2    0.0000
     56 H21        8.0430   13.0409    7.7085 H         2 RES2    0.0000
     57 H22        6.8181   12.4820    8.5113 H         2 RES2    0.0000
     58 C20        8.5267   11.3389   10.4842 C.2       2 RES2    0.0000
     59 C21        7.5602   10.2620   10.4149 C.2       2 RES2    0.0000
     60 C22        6.7121    8.3673   11.5578 C.3       2 RES2    0.0000
     61 H23        7.0401    7.7255   10.9233 H         2 RES2    0.0000
     62 H24        5.8202    8.6272   11.3191 H         2 RES2    0.0000
     63 H25        6.7083    7.9774   12.4348 H         2 RES2    0.0000
     64 C23        9.5375   11.3219   11.6321 C.3       2 RES2    0.0000
     65 H26        9.0557   11.1703   12.4719 H         2 RES2    0.0000
     66 C24       10.2717   12.6370   11.7236 C.2       2 RES2    0.0000
     67 C25       11.1106   12.7776   12.9148 C.2       2 RES2    0.0000
     68 C26       12.3921   14.1971   14.2939 C.3       2 RES2    0.0000
     69 H27       13.2848   14.0343   13.9798 H         2 RES2    0.0000
     70 H28       12.1846   13.5845   15.0027 H         2 RES2    0.0000
     71 H29       12.3261   15.0985   14.6192 H         2 RES2    0.0000
     72 C27       10.2256   13.5561   10.7378 C.2       2 RES2    0.0000
     73 C28       10.9342   14.8678   10.6660 C.3       2 RES2    0.0000
     74 H30       11.0059   15.1419    9.7482 H         2 RES2    0.0000
     75 H31       11.8121   14.7794   11.0433 H         2 RES2    0.0000
     76 H32       10.4395   15.5263   11.1583 H         2 RES2    0.0000
     77 C29       10.4913   10.1510   11.3958 C.ar      2 RES2    0.0000
     78 C30       11.3362   10.2355   10.3024 C.ar      2 RES2    0.0000
     79 H33       11.3365   11.0203    9.8039 H         2 RES2    0.0000
     80 C31       12.1708    9.2187    9.9214 C.ar      2 RES2    0.0000
     81 H34       12.7296    9.3246    9.1854 H         2 RES2    0.0000
     82 C32       12.1773    8.0421   10.6314 C.ar      2 RES2    0.0000
     83 H35       12.7420    7.3472   10.3840 H         2 RES2    0.0000
     84 C33       11.3481    7.9076   11.7026 C.ar      2 RES2    0.0000
     85 H36       11.3283    7.1064   12.1751 H         2 RES2    0.0000
     86 C34       10.5433    8.9503   12.0885 C.ar      2 RES2    0.0000
@<TRIPOS>BOND
     1    1   16 2
     2    2   16 1
     3    3   24 2
     4    4   24 1
     5    5    9 2
     6    6    9 2
     7    7    8 1
     8    9   43 1
     9   10    7 1
    10   11   10 1
    11   12   11 1
    12   13   11 1
    13   14   11 1
    14   15   10 2
    15   16   15 1
    16   17    2 1
    17   18   17 1
    18   19   17 1
    19   20   17 1
    20   21   15 1
    21   22   21 1
    22   23   21 1
    23   24   23 1
    24   25    4 1
    25   26   25 1
    26   27   25 1
    27   28   25 1
    28   29    7 1
    29   30   29 1
    30   31   30 1
    31   32   30 1
    32   33   30 1
    33   34   21 1
    34   35   34 ar
    35   36   35 1
    36   37   35 ar
    37   38   37 1
    38   39   37 ar
    39   40   39 1
    40   41   39 ar
    41   42   41 1
    42   43   34 ar
    43   44   59 2
    44   45   59 1
    45   46   67 2
    46   47   67 1
    47   48   52 2
    48   49   52 2
    49   50   51 1
    50   52   86 1
    51   53   50 1
    52   54   53 1
    53   55   54 1
    54   56   54 1
    55   57   54 1
    56   58   53 2
    57   59   58 1
    58   60   45 1
    59   61   60 1
    60   62   60 1
    61   63   60 1
    62   64   58 1
    63   65   64 1
    64   66   64 1
    65   67   66 1
    66   68   47 1
    67   69   68 1
    68   70   68 1
    69   71   68 1
    70   72   50 1
    71   73   72 1
    72   74   73 1
    73   75   73 1
    74   76   73 1
    75   77   64 1
    76   78   77 ar
    77   79   78 1
    78   80   78 ar
    79   81   80 1
    80   82   80 ar
    81   83   82 1
    82   84   82 ar
    83   85   84 1
    84   86   77 ar
    85   23   29 2
    86   41   43 ar
    87   66   72 2
    88   84   86 ar
@<TRIPOS>SUBSTRUCTURE
     1 RES1 1
     2 RES2 44

@<TRIPOS>CRYSIN
   9.8400   13.8070   14.2060  61.3900  79.7600  81.9900   2 1

