# MOL2 file generated by ConQuest
# Please check atom types

@<TRIPOS>MOLECULE
BICCIZ02
    86    88     2
SMALL
NO_CHARGES
****
Generated from CSD

@<TRIPOS>ATOM
      1 O1        -0.3531    6.2745    9.2796 O.2       1 RES1    0.0000
      2 O2         0.2837    6.8830    7.2154 O.3       1 RES1    0.0000
      3 O3         4.2490    4.6820    4.8941 O.2       1 RES1    0.0000
      4 O4         4.2239    2.4752    5.2151 O.3       1 RES1    0.0000
      5 O5         1.7714    6.5192    4.3816 O.2       1 RES1    0.0000
      6 O6         1.4241    8.6031    4.8448 O.2       1 RES1    0.0000
      7 N1         2.5776    3.2040    9.0118 N.pl3     1 RES1    0.0000
      8 H1         2.7031    2.5916    9.6713 H         1 RES1    0.0000
      9 N2         1.9913    7.5274    5.0409 N.pl3     1 RES1    0.0000
     10 C1         1.6629    4.2134    9.1795 C.2       1 RES1    0.0000
     11 C2         0.9810    4.1969   10.5181 C.3       1 RES1    0.0000
     12 H2         0.0309    3.9883   10.3988 H         1 RES1    0.0000
     13 H3         1.0708    5.0758   10.9414 H         1 RES1    0.0000
     14 H4         1.3969    3.5165   11.0872 H         1 RES1    0.0000
     15 C3         1.4488    5.1067    8.1876 C.2       1 RES1    0.0000
     16 C4         0.3848    6.1100    8.3310 C.2       1 RES1    0.0000
     17 C5        -0.7533    7.8838    7.2694 C.3       1 RES1    0.0000
     18 H5        -0.7364    8.4164    6.4463 H         1 RES1    0.0000
     19 H6        -0.6035    8.4684    8.0410 H         1 RES1    0.0000
     20 H7        -1.6257    7.4460    7.3563 H         1 RES1    0.0000
     21 C6         2.2974    5.1171    6.9178 C.3       1 RES1    0.0000
     22 H8         1.6851    5.1577    6.1278 H         1 RES1    0.0000
     23 C7         3.1388    3.8518    6.8127 C.2       1 RES1    0.0000
     24 C8         3.9095    3.7275    5.5666 C.2       1 RES1    0.0000
     25 C9         5.0797    2.3442    4.0608 C.3       1 RES1    0.0000
     26 H9         4.6532    2.7709    3.2887 H         1 RES1    0.0000
     27 H10        5.2267    1.3938    3.8692 H         1 RES1    0.0000
     28 H11        5.9394    2.7790    4.2404 H         1 RES1    0.0000
     29 C10        3.2561    2.9744    7.8306 C.2       1 RES1    0.0000
     30 C11        4.0646    1.7079    7.8660 C.3       1 RES1    0.0000
     31 H12        4.2868    1.4881    8.7943 H         1 RES1    0.0000
     32 H13        4.8908    1.8333    7.3539 H         1 RES1    0.0000
     33 H14        3.5435    0.9771    7.4727 H         1 RES1    0.0000
     34 C12        3.1841    6.3679    6.9102 C.ar      1 RES1    0.0000
     35 C13        4.2093    6.4576    7.8539 C.ar      1 RES1    0.0000
     36 H15        4.3565    5.7242    8.4391 H         1 RES1    0.0000
     37 C14        5.0177    7.5724    7.9694 C.ar      1 RES1    0.0000
     38 H16        5.7158    7.5893    8.6142 H         1 RES1    0.0000
     39 C15        4.8099    8.6679    7.1442 C.ar      1 RES1    0.0000
     40 H17        5.3608    9.4385    7.2216 H         1 RES1    0.0000
     41 C16        3.7973    8.6282    6.2116 C.ar      1 RES1    0.0000
     42 H18        3.6316    9.3791    5.6538 H         1 RES1    0.0000
     43 C17        3.0242    7.4907    6.0913 C.ar      1 RES1    0.0000
     44 O7         6.7273    9.9408    9.3888 O.2       2 RES2    0.0000
     45 O8         7.4895    9.5024   11.4509 O.3       2 RES2    0.0000
     46 O9        11.5043   11.8884   13.3612 O.2       2 RES2    0.0000
     47 O10       11.3147   14.0973   13.0703 O.3       2 RES2    0.0000
     48 O11        9.3831    9.7583   13.9574 O.2       2 RES2    0.0000
     49 O12        9.3072    7.6419   13.5420 O.2       2 RES2    0.0000
     50 N3         9.3327   13.3224    9.4651 N.pl3     2 RES2    0.0000
     51 H19        9.3821   13.8633    8.7955 H         2 RES2    0.0000
     52 N4         9.6387    8.7916   13.2529 N.pl3     2 RES2    0.0000
     53 C18        8.4575   12.2649    9.3778 C.2       2 RES2    0.0000
     54 C19        7.6136   12.2624    8.1336 C.3       2 RES2    0.0000
     55 H20        6.6720   12.3826    8.3778 H         2 RES2    0.0000
     56 H21        7.7236   11.4082    7.6662 H         2 RES2    0.0000
     57 H22        7.8948   12.9948    7.5462 H         2 RES2    0.0000
     58 C20        8.4161   11.3456   10.3681 C.2       2 RES2    0.0000
     59 C21        7.4645   10.2316   10.3073 C.2       2 RES2    0.0000
     60 C22        6.6990    8.2958   11.4320 C.3       2 RES2    0.0000
     61 H23        7.0544    7.6823   10.7552 H         2 RES2    0.0000
     62 H24        5.7692    8.5179   11.2145 H         2 RES2    0.0000
     63 H25        6.7346    7.8680   12.3132 H         2 RES2    0.0000
     64 C23        9.4226   11.3495   11.5117 C.3       2 RES2    0.0000
     65 H26        8.9346   11.2158   12.3745 H         2 RES2    0.0000
     66 C24       10.1750   12.6725   11.5675 C.2       2 RES2    0.0000
     67 C25       11.0499   12.8321   12.7382 C.2       2 RES2    0.0000
     68 C26       12.2663   14.2997   14.1391 C.3       2 RES2    0.0000
     69 H27       13.1667   14.0804   13.8210 H         2 RES2    0.0000
     70 H28       12.0368   13.7200   14.8952 H         2 RES2    0.0000
     71 H29       12.2411   15.2367   14.4260 H         2 RES2    0.0000
     72 C27       10.1239   13.5722   10.5692 C.2       2 RES2    0.0000
     73 C28       10.8531   14.8831   10.4848 C.3       2 RES2    0.0000
     74 H30       10.9086   15.1665    9.5488 H         2 RES2    0.0000
     75 H31       11.7579   14.7786   10.8483 H         2 RES2    0.0000
     76 H32       10.3698   15.5596   11.0026 H         2 RES2    0.0000
     77 C29       10.3730   10.1674   11.2888 C.ar      2 RES2    0.0000
     78 C30       11.1880   10.2031   10.1624 C.ar      2 RES2    0.0000
     79 H33       11.1776   10.9840    9.6210 H         2 RES2    0.0000
     80 C31       12.0121    9.1558    9.7930 C.ar      2 RES2    0.0000
     81 H34       12.5705    9.2348    9.0282 H         2 RES2    0.0000
     82 C32       12.0196    7.9921   10.5430 C.ar      2 RES2    0.0000
     83 H35       12.5775    7.2632   10.2959 H         2 RES2    0.0000
     84 C33       11.2083    7.9042   11.6506 C.ar      2 RES2    0.0000
     85 H36       11.1854    7.1025   12.1601 H         2 RES2    0.0000
     86 C34       10.4261    8.9792   12.0224 C.ar      2 RES2    0.0000
@<TRIPOS>BOND
     1    1   16 2
     2    2   16 1
     3    3   24 2
     4    4   24 1
     5    5    9 2
     6    6    9 2
     7    7    8 1
     8    9   43 1
     9   10    7 1
    10   11   10 1
    11   12   11 1
    12   13   11 1
    13   14   11 1
    14   15   10 2
    15   16   15 1
    16   17    2 1
    17   18   17 1
    18   19   17 1
    19   20   17 1
    20   21   15 1
    21   22   21 1
    22   23   21 1
    23   24   23 1
    24   25    4 1
    25   26   25 1
    26   27   25 1
    27   28   25 1
    28   29    7 1
    29   30   29 1
    30   31   30 1
    31   32   30 1
    32   33   30 1
    33   34   21 1
    34   35   34 ar
    35   36   35 1
    36   37   35 ar
    37   38   37 1
    38   39   37 ar
    39   40   39 1
    40   41   39 ar
    41   42   41 1
    42   43   34 ar
    43   44   59 2
    44   45   59 1
    45   46   67 2
    46   47   67 1
    47   48   52 2
    48   49   52 2
    49   50   51 1
    50   52   86 1
    51   53   50 1
    52   54   53 1
    53   55   54 1
    54   56   54 1
    55   57   54 1
    56   58   53 2
    57   59   58 1
    58   60   45 1
    59   61   60 1
    60   62   60 1
    61   63   60 1
    62   64   58 1
    63   65   64 1
    64   66   64 1
    65   67   66 1
    66   68   47 1
    67   69   68 1
    68   70   68 1
    69   71   68 1
    70   72   50 1
    71   73   72 1
    72   74   73 1
    73   75   73 1
    74   76   73 1
    75   77   64 1
    76   78   77 ar
    77   79   78 1
    78   80   78 ar
    79   81   80 1
    80   82   80 ar
    81   83   82 1
    82   84   82 ar
    83   85   84 1
    84   86   77 ar
    85   23   29 2
    86   41   43 ar
    87   66   72 2
    88   84   86 ar
@<TRIPOS>SUBSTRUCTURE
     1 RES1 1
     2 RES2 44

@<TRIPOS>CRYSIN
   9.6661   13.7006   14.1184  61.0280  79.6310  81.9040   2 1

