# MOL2 file generated by ConQuest
# Please check atom types

@<TRIPOS>MOLECULE
BICTUF
    94    99     1
SMALL
NO_CHARGES
****
Generated from CSD

@<TRIPOS>ATOM
      1 O1        17.9343    8.8222    6.5456 O.2       1 RES1    0.0000
      2 O2        17.6145    7.4789    8.1691 O.2       1 RES1    0.0000
      3 O3        11.0577   10.5375   11.1792 O.2       1 RES1    0.0000
      4 O4         7.4206    4.1774    9.3175 O.2       1 RES1    0.0000
      5 O5         4.3014    4.5902    9.9278 O.2       1 RES1    0.0000
      6 N1         9.8718    8.0242   13.1671 N.3       1 RES1    0.0000
      7 N2         8.1609    9.4400   12.4658 N.2       1 RES1    0.0000
      8 N3        11.2947   10.3501    8.9120 N.am      1 RES1    0.0000
      9 N4        17.2785    8.4147    7.4749 N.pl3     1 RES1    0.0000
     10 N5         6.8856    5.1772   11.2708 N.am      1 RES1    0.0000
     11 N6         5.0668    2.4712   10.2782 N.am      1 RES1    0.0000
     12 C1         9.0809    8.5987   12.2253 C.2       1 RES1    0.0000
     13 C2         7.6033   10.0692   11.3202 C.ar      1 RES1    0.0000
     14 C3         6.4155   10.7763   11.5077 C.ar      1 RES1    0.0000
     15 H1         5.9983   10.7693   12.3385 H         1 RES1    0.0000
     16 C4         5.8546   11.4921   10.4574 C.ar      1 RES1    0.0000
     17 H2         5.0611   11.9597   10.5857 H         1 RES1    0.0000
     18 C5         6.4670   11.5086    9.2346 C.ar      1 RES1    0.0000
     19 H3         6.1029   12.0036    8.5362 H         1 RES1    0.0000
     20 C6         7.6381   10.7764    9.0398 C.ar      1 RES1    0.0000
     21 H4         8.0433   10.7825    8.2036 H         1 RES1    0.0000
     22 C7         8.2097   10.0435   10.0608 C.ar      1 RES1    0.0000
     23 C8         9.4820    9.2008    9.8443 C.3       1 RES1    0.0000
     24 C9         9.4597    8.0423   10.8434 C.3       1 RES1    0.0000
     25 C10       10.7622    7.3302   11.1774 C.ar      1 RES1    0.0000
     26 C11       11.7036    6.7015   10.3853 C.ar      1 RES1    0.0000
     27 H5        11.6139    6.6929    9.4595 H         1 RES1    0.0000
     28 C12       12.7905    6.0806   10.9984 C.ar      1 RES1    0.0000
     29 H6        13.4474    5.6778   10.4781 H         1 RES1    0.0000
     30 C13       12.8974    6.0621   12.3689 C.ar      1 RES1    0.0000
     31 H7        13.6202    5.6252   12.7581 H         1 RES1    0.0000
     32 C14       11.9730    6.6655   13.1790 C.ar      1 RES1    0.0000
     33 H8        12.0542    6.6422   14.1051 H         1 RES1    0.0000
     34 C15       10.9170    7.3076   12.5657 C.ar      1 RES1    0.0000
     35 C16       10.7065   10.1026   10.1057 C.2       1 RES1    0.0000
     36 C17       10.6749    9.7385    7.7688 C.3       1 RES1    0.0000
     37 H9        11.3304    9.2819    7.2195 H         1 RES1    0.0000
     38 H10       10.2130   10.3979    7.2278 H         1 RES1    0.0000
     39 C18        9.6935    8.7520    8.3836 C.3       1 RES1    0.0000
     40 H11       10.0551    7.8523    8.3540 H         1 RES1    0.0000
     41 H12        8.8529    8.7640    7.9000 H         1 RES1    0.0000
     42 C19       12.4644   11.2114    8.7736 C.3       1 RES1    0.0000
     43 H13       12.6108   11.6830    9.6086 H         1 RES1    0.0000
     44 H14       12.2917   11.8724    8.0849 H         1 RES1    0.0000
     45 C20       13.7046   10.4426    8.4183 C.ar      1 RES1    0.0000
     46 C21       14.4071   10.7486    7.2743 C.ar      1 RES1    0.0000
     47 H15       14.0952   11.4183    6.7089 H         1 RES1    0.0000
     48 C22       15.5733   10.0729    6.9573 C.ar      1 RES1    0.0000
     49 H16       16.0500   10.2854    6.1872 H         1 RES1    0.0000
     50 C23       16.0073    9.0960    7.7927 C.ar      1 RES1    0.0000
     51 C24       15.3187    8.7336    8.9291 C.ar      1 RES1    0.0000
     52 H17       15.6233    8.0480    9.4788 H         1 RES1    0.0000
     53 C25       14.1563    9.4279    9.2248 C.ar      1 RES1    0.0000
     54 H18       13.6724    9.2019    9.9854 H         1 RES1    0.0000
     55 C26        9.7289    8.2573   14.5970 C.3       1 RES1    0.0000
     56 H19        9.9785    9.1633   14.7993 H         1 RES1    0.0000
     57 H20       10.3001    7.6546   15.0781 H         1 RES1    0.0000
     58 H21        8.8170    8.1113   14.8559 H         1 RES1    0.0000
     59 C27        8.3468    7.0275   10.4360 C.3       1 RES1    0.0000
     60 H22        7.5005    7.4987   10.3884 H         1 RES1    0.0000
     61 H23        8.5444    6.6898    9.5478 H         1 RES1    0.0000
     62 C28        8.1952    5.8541   11.3761 C.3       1 RES1    0.0000
     63 H24        8.8966    5.2102   11.1902 H         1 RES1    0.0000
     64 H25        8.3157    6.1652   12.2874 H         1 RES1    0.0000
     65 C29        6.6278    4.3801   10.2285 C.2       1 RES1    0.0000
     66 C30        5.2099    3.8088   10.1510 C.2       1 RES1    0.0000
     67 C31        5.9260    5.4500   12.3109 C.2       1 RES1    0.0000
     68 C32        5.6466    4.5576   13.1790 C.2       1 RES1    0.0000
     69 H26        6.0637    3.7277   13.1417 H         1 RES1    0.0000
     70 H27        5.0276    4.7386   13.8484 H         1 RES1    0.0000
     71 C33        5.3078    6.8001   12.2792 C.3       1 RES1    0.0000
     72 H28        4.6929    6.8865   13.0106 H         1 RES1    0.0000
     73 H29        4.8397    6.9182   11.4511 H         1 RES1    0.0000
     74 H30        5.9943    7.4672   12.3578 H         1 RES1    0.0000
     75 C34        2.7648    2.3006   11.1640 C.3       1 RES1    0.0000
     76 H31        2.5923    3.2418   11.0909 H         1 RES1    0.0000
     77 H32        3.1521    2.1114   12.0225 H         1 RES1    0.0000
     78 H33        1.9400    1.8169   11.0715 H         1 RES1    0.0000
     79 C35        3.7256    1.8760   10.0709 C.3       1 RES1    0.0000
     80 H34        3.8390    0.9076   10.1689 H         1 RES1    0.0000
     81 C36        3.1786    2.0948    8.6784 C.3       1 RES1    0.0000
     82 H35        2.9718    3.0249    8.5569 H         1 RES1    0.0000
     83 H36        2.3816    1.5724    8.5610 H         1 RES1    0.0000
     84 H37        3.8338    1.8254    8.0311 H         1 RES1    0.0000
     85 C37        5.9333    0.6792   11.7492 C.3       1 RES1    0.0000
     86 H38        5.0923    0.2316   11.6374 H         1 RES1    0.0000
     87 H39        5.9094    1.2098   12.5497 H         1 RES1    0.0000
     88 H40        6.6369    0.0299   11.8182 H         1 RES1    0.0000
     89 C38        6.1907    1.5793   10.5540 C.3       1 RES1    0.0000
     90 H41        6.9687    2.1362   10.7638 H         1 RES1    0.0000
     91 C39        6.5211    0.7779    9.3022 C.3       1 RES1    0.0000
     92 H42        7.2370    0.1665    9.4913 H         1 RES1    0.0000
     93 H43        6.7882    1.3763    8.5997 H         1 RES1    0.0000
     94 H44        5.7460    0.2841    9.0234 H         1 RES1    0.0000
@<TRIPOS>BOND
     1    1    9 2
     2    2    9 2
     3    3   35 2
     4    4   65 2
     5    5   66 2
     6    6   12 1
     7    7   12 2
     8    8   35 1
     9    9   50 1
    10   10   62 1
    11   11   66 1
    12   12   24 1
    13   13    7 1
    14   14   13 ar
    15   15   14 1
    16   16   14 ar
    17   17   16 1
    18   18   16 ar
    19   19   18 1
    20   20   18 ar
    21   21   20 1
    22   22   13 ar
    23   23   22 1
    24   24   23 1
    25   25   24 1
    26   26   25 ar
    27   27   26 1
    28   28   26 ar
    29   29   28 1
    30   30   28 ar
    31   31   30 1
    32   32   30 ar
    33   33   32 1
    34   34    6 1
    35   35   23 1
    36   36    8 1
    37   37   36 1
    38   38   36 1
    39   39   23 1
    40   40   39 1
    41   41   39 1
    42   42    8 1
    43   43   42 1
    44   44   42 1
    45   45   42 1
    46   46   45 ar
    47   47   46 1
    48   48   46 ar
    49   49   48 1
    50   50   48 ar
    51   51   50 ar
    52   52   51 1
    53   53   45 ar
    54   54   53 1
    55   55    6 1
    56   56   55 1
    57   57   55 1
    58   58   55 1
    59   59   24 1
    60   60   59 1
    61   61   59 1
    62   62   59 1
    63   63   62 1
    64   64   62 1
    65   65   10 1
    66   66   65 1
    67   67   10 1
    68   68   67 2
    69   69   68 1
    70   70   68 1
    71   71   67 1
    72   72   71 1
    73   73   71 1
    74   74   71 1
    75   75   76 1
    76   77   75 1
    77   78   75 1
    78   79   11 1
    79   80   79 1
    80   81   79 1
    81   82   81 1
    82   83   81 1
    83   84   81 1
    84   85   86 1
    85   87   85 1
    86   88   85 1
    87   89   11 1
    88   90   89 1
    89   91   89 1
    90   92   91 1
    91   93   91 1
    92   94   91 1
    93   20   22 ar
    94   25   34 ar
    95   32   34 ar
    96   36   39 1
    97   51   53 ar
    98   75   79 1
    99   85   89 1
@<TRIPOS>SUBSTRUCTURE
     1 RES1 1

@<TRIPOS>CRYSIN
  11.4742   13.6344   14.6597  76.4580  72.8620  75.0760   2 1

