# MOL2 file generated by ConQuest
# Please check atom types

@<TRIPOS>MOLECULE
BIDCEW
    29    31     1
SMALL
NO_CHARGES
****
Generated from CSD

@<TRIPOS>ATOM
      1 C1         2.6722    6.1369    6.5507 C.2       1 RES1    0.0000
      2 C2         2.3575    5.4833    5.4182 C.2       1 RES1    0.0000
      3 C3         2.3369    6.1443    4.1345 C.ar      1 RES1    0.0000
      4 C4         2.7422    7.4968    4.0302 C.ar      1 RES1    0.0000
      5 C5         3.1949    8.2859    5.2461 C.3       1 RES1    0.0000
      6 C6         2.9618    7.5936    6.6254 C.3       1 RES1    0.0000
      7 C7         2.4188    9.6290    5.4095 C.3       1 RES1    0.0000
      8 C8         2.0467    9.6593    6.8844 C.3       1 RES1    0.0000
      9 O1         1.8138    8.2708    7.2173 O.3       1 RES1    0.0000
     10 N1         2.6930    5.3840    7.7927 N.pl3     1 RES1    0.0000
     11 O2         2.4030    4.1869    7.7796 O.2       1 RES1    0.0000
     12 O3         3.0144    5.9732    8.8391 O.2       1 RES1    0.0000
     13 C9         1.9239    5.4268    2.9898 C.ar      1 RES1    0.0000
     14 O4         1.5389    4.1226    3.1532 O.3       1 RES1    0.0000
     15 C10        1.9199    6.0429    1.7470 C.ar      1 RES1    0.0000
     16 C11        2.3180    7.3698    1.6444 C.ar      1 RES1    0.0000
     17 C12        2.7344    8.0899    2.7665 C.ar      1 RES1    0.0000
     18 O5         3.1671    9.3969    2.6630 O.3       1 RES1    0.0000
     19 H1         2.1418    4.5593    5.4643 H         1 RES1    0.0000
     20 H2         4.1696    8.4888    5.1514 H         1 RES1    0.0000
     21 H3         3.7631    7.7389    7.2051 H         1 RES1    0.0000
     22 H4         2.9920   10.4011    5.1722 H         1 RES1    0.0000
     23 H5         1.6094    9.6420    4.8402 H         1 RES1    0.0000
     24 H6         2.7846   10.0343    7.4276 H         1 RES1    0.0000
     25 H7         1.2310   10.2006    7.0330 H         1 RES1    0.0000
     26 H8         1.0215    3.8951    2.5101 H         1 RES1    0.0000
     27 H9         1.6485    5.5626    0.9743 H         1 RES1    0.0000
     28 H10        2.3060    7.7951    0.7944 H         1 RES1    0.0000
     29 H11        3.0541    9.6440    1.8921 H         1 RES1    0.0000
@<TRIPOS>BOND
     1    1    2 2
     2    2    3 1
     3    3    4 ar
     4    4    5 1
     5    5    6 1
     6    6    1 1
     7    7    5 1
     8    8    7 1
     9    9    6 1
    10   10    1 1
    11   11   10 2
    12   12   10 2
    13   13    3 ar
    14   14   13 1
    15   15   13 ar
    16   16   15 ar
    17   17    4 ar
    18   18   17 1
    19   19    2 1
    20   20    5 1
    21   21    6 1
    22   22    7 1
    23   23    7 1
    24   24    8 1
    25   25    8 1
    26   26   14 1
    27   27   15 1
    28   28   16 1
    29   29   18 1
    30    8    9 1
    31   16   17 ar
@<TRIPOS>SUBSTRUCTURE
     1 RES1 1

@<TRIPOS>CRYSIN
   6.9206    8.4993    9.2958  69.3510  86.4310  86.0840   2 1

