# MOL2 file generated by ConQuest
# Please check atom types

@<TRIPOS>MOLECULE
BIDJIH
    12    11     1
SMALL
NO_CHARGES
****
Generated from CSD

@<TRIPOS>ATOM
      1 O1         1.5970    4.2144    0.2841 O.2       1 RES1    0.0000
      2 O2         2.4890    6.5758    3.9118 O.2       1 RES1    0.0000
      3 N1         3.3717    3.6690    1.5720 N.am      1 RES1    0.0000
      4 N2         2.0189    5.4962    2.1128 N.am      1 RES1    0.0000
      5 N3         2.8077    5.6490    3.1672 N.2       1 RES1    0.0000
      6 C1         2.3171    4.3992    1.2446 C.2       1 RES1    0.0000
      7 C2         0.8623    6.3523    1.8808 C.3       1 RES1    0.0000
      8 H1         3.8373    3.8218    2.2375 H         1 RES1    0.0000
      9 H2         3.5614    3.0697    1.0053 H         1 RES1    0.0000
     10 H3         0.2700    6.3393    2.6282 H         1 RES1    0.0000
     11 H4         0.4463    6.1023    1.0871 H         1 RES1    0.0000
     12 H5         1.1345    7.2735    1.7727 H         1 RES1    0.0000
@<TRIPOS>BOND
     1    1    6 2
     2    2    5 2
     3    3    6 1
     4    4    5 1
     5    6    4 1
     6    7    4 1
     7    8    3 1
     8    9    3 1
     9   10    7 1
    10   11    7 1
    11   12    7 1
@<TRIPOS>SUBSTRUCTURE
     1 RES1 1

@<TRIPOS>CRYSIN
   5.3020    5.6170   15.4420  90.0000  90.0900  90.0000 231 1

