# MOL2 file generated by ConQuest
# Please check atom types

@<TRIPOS>MOLECULE
BIDKEE
    66    71     1
SMALL
NO_CHARGES
****
Generated from CSD

@<TRIPOS>ATOM
      1 O1        11.0264    3.9466    0.5042 O.3       1 RES1    0.0000
      2 O2         8.6324    1.4487    1.0883 O.2       1 RES1    0.0000
      3 O3         9.6959    5.4199    2.5782 O.3       1 RES1    0.0000
      4 N1         9.9005    3.1276    0.2761 N.am      1 RES1    0.0000
      5 C1        10.0183    2.8859    3.6332 C.ar      1 RES1    0.0000
      6 C2         8.6940    4.7901   -1.0977 C.ar      1 RES1    0.0000
      7 C3         8.6887    3.6037    3.6812 C.ar      1 RES1    0.0000
      8 C4        10.4300    2.2397    2.4781 C.ar      1 RES1    0.0000
      9 C5         7.5399    2.9903    4.2774 C.ar      1 RES1    0.0000
     10 C6         9.5753    2.2257    1.2337 C.2       1 RES1    0.0000
     11 C7        10.8692    2.8588    4.7949 C.ar      1 RES1    0.0000
     12 C8         9.5985    5.8294   -1.3311 C.ar      1 RES1    0.0000
     13 C9        11.6785    1.5490    2.4314 C.ar      1 RES1    0.0000
     14 C10        9.9418    2.8662   -2.2140 C.ar      1 RES1    0.0000
     15 C11       12.1296    2.1895    4.7335 C.ar      1 RES1    0.0000
     16 C12       10.5179    3.4796    6.0246 C.ar      1 RES1    0.0000
     17 C13        6.2668    5.0278    3.8732 C.ar      1 RES1    0.0000
     18 C14        7.5606    1.6617    4.7628 C.ar      1 RES1    0.0000
     19 C15       12.4974    1.5276    3.5358 C.ar      1 RES1    0.0000
     20 C16       12.9834    2.2027    5.8765 C.ar      1 RES1    0.0000
     21 C17        7.3428    5.1108   -0.9977 C.ar      1 RES1    0.0000
     22 C18        9.1638    3.3455   -0.9790 C.3       1 RES1    0.0000
     23 C19        8.5652    4.8855    3.1717 C.ar      1 RES1    0.0000
     24 C20        9.4445    3.1392   -3.4878 C.ar      1 RES1    0.0000
     25 C21        6.3169    3.7188    4.3881 C.ar      1 RES1    0.0000
     26 C22        7.3412    5.6082    3.2704 C.ar      1 RES1    0.0000
     27 C23       11.3598    3.4516    7.1209 C.ar      1 RES1    0.0000
     28 C24       10.0698    2.6376   -4.6241 C.ar      1 RES1    0.0000
     29 C25        7.8214    7.4409   -1.3017 C.ar      1 RES1    0.0000
     30 C26        9.1548    7.1499   -1.4165 C.ar      1 RES1    0.0000
     31 C27       11.0968    2.0867   -2.1100 C.ar      1 RES1    0.0000
     32 C28       12.6088    2.8111    7.0436 C.ar      1 RES1    0.0000
     33 C29        6.9256    6.4436   -1.1070 C.ar      1 RES1    0.0000
     34 C30        5.1783    3.0594    4.9722 C.ar      1 RES1    0.0000
     35 C31        6.4432    1.0771    5.3244 C.ar      1 RES1    0.0000
     36 C32        5.2365    1.7825    5.4177 C.ar      1 RES1    0.0000
     37 C33       11.7111    1.5811   -3.2530 C.ar      1 RES1    0.0000
     38 C34       11.2040    1.8532   -4.5108 C.ar      1 RES1    0.0000
     39 C35        9.6825    6.8267    2.2380 C.3       1 RES1    0.0000
     40 H1         8.3158    2.7215   -0.8536 H         1 RES1    0.0000
     41 H2         8.6450    3.6917   -3.6011 H         1 RES1    0.0000
     42 H3         9.6560    3.8232    6.1620 H         1 RES1    0.0000
     43 H4         8.4572    1.1429    4.6815 H         1 RES1    0.0000
     44 H5        10.6246    5.5416   -1.4405 H         1 RES1    0.0000
     45 H6        11.9835    1.1429    1.5472 H         1 RES1    0.0000
     46 H7        10.9951    3.8643    8.0159 H         1 RES1    0.0000
     47 H8        13.2366    2.7708    7.8958 H         1 RES1    0.0000
     48 H9         9.3168    7.3011    3.1210 H         1 RES1    0.0000
     49 H10       11.7228    1.4882   -5.4551 H         1 RES1    0.0000
     50 H11        4.3080    3.5355    5.0416 H         1 RES1    0.0000
     51 H12       13.8111    1.6691    5.7752 H         1 RES1    0.0000
     52 H13       10.6243    7.0051    1.8939 H         1 RES1    0.0000
     53 H14        6.7133    4.3905   -0.9203 H         1 RES1    0.0000
     54 H15        9.6505    2.7297   -5.5351 H         1 RES1    0.0000
     55 H16       13.3953    1.0195    3.5211 H         1 RES1    0.0000
     56 H17       12.6284    0.9866   -3.0543 H         1 RES1    0.0000
     57 H18        5.3025    5.6238    3.9346 H         1 RES1    0.0000
     58 H19       11.4423    1.8828   -1.1470 H         1 RES1    0.0000
     59 H20        7.4351    6.4872    2.8009 H         1 RES1    0.0000
     60 H21        6.5321    0.0987    5.7218 H         1 RES1    0.0000
     61 H22        4.3433    1.3813    5.8285 H         1 RES1    0.0000
     62 H23        7.4832    8.5427   -1.4138 H         1 RES1    0.0000
     63 H24        9.8517    7.8191   -1.6005 H         1 RES1    0.0000
     64 H25        9.0806    6.9723    1.4538 H         1 RES1    0.0000
     65 H26        5.9842    6.6352   -1.0537 H         1 RES1    0.0000
     66 H27       10.6493    4.5961    1.2271 H         1 RES1    0.0000
@<TRIPOS>BOND
     1    1    4 1
     2    2   10 2
     3    3   23 1
     4    4   10 1
     5    5    7 1
     6    6   12 ar
     7    7    9 ar
     8    8    5 ar
     9    9   18 ar
    10   10    8 1
    11   11    5 ar
    12   12   30 ar
    13   13    8 ar
    14   14   22 1
    15   15   11 ar
    16   16   11 ar
    17   17   25 ar
    18   18   35 ar
    19   19   13 ar
    20   20   15 ar
    21   21    6 ar
    22   22    4 1
    23   23    7 ar
    24   24   14 ar
    25   25    9 ar
    26   26   17 ar
    27   27   16 ar
    28   28   24 ar
    29   29   30 ar
    30   30   63 1
    31   31   14 ar
    32   32   20 ar
    33   33   21 ar
    34   34   25 ar
    35   35   36 ar
    36   36   34 ar
    37   37   31 ar
    38   38   28 ar
    39   39    3 1
    40   40   22 1
    41   41   24 1
    42   42   16 1
    43   43   18 1
    44   44   12 1
    45   45   13 1
    46   46   27 1
    47   47   32 1
    48   48   39 1
    49   49   38 1
    50   50   34 1
    51   51   20 1
    52   52   39 1
    53   53   21 1
    54   54   28 1
    55   55   19 1
    56   56   37 1
    57   57   17 1
    58   58   31 1
    59   59   26 1
    60   60   35 1
    61   61   36 1
    62   62   29 1
    63   64   39 1
    64   65   33 1
    65   66    1 1
    66    6   22 1
    67   15   19 ar
    68   23   26 ar
    69   27   32 ar
    70   29   33 ar
    71   37   38 ar
@<TRIPOS>SUBSTRUCTURE
     1 RES1 1

@<TRIPOS>CRYSIN
  12.4420    8.2220   13.6680  90.0000 102.6240  90.0000   4 1

