# MOL2 file generated by ConQuest
# Please check atom types

@<TRIPOS>MOLECULE
BIDKAA
    21    21     1
SMALL
NO_CHARGES
****
Generated from CSD

@<TRIPOS>ATOM
      1 C1         0.9884   -5.1618    2.1052 C.ar      1 RES1    0.0000
      2 C2        -0.0053   -5.2709    1.1308 C.ar      1 RES1    0.0000
      3 C3        -1.0909   -4.4308    1.1538 C.ar      1 RES1    0.0000
      4 C4        -1.1874   -3.5211    2.1822 C.ar      1 RES1    0.0000
      5 C5        -0.2401   -3.3987    3.1629 C.ar      1 RES1    0.0000
      6 C6         0.8637   -4.2036    3.1034 C.ar      1 RES1    0.0000
      7 C7         2.2428   -5.9393    2.0758 C.2       1 RES1    0.0000
      8 C8         3.4753   -8.0238    1.4926 C.3       1 RES1    0.0000
      9 N1        -2.3536   -2.6232    2.2250 N.pl3     1 RES1    0.0000
     10 N2         2.2207   -7.2904    1.6941 N.am      1 RES1    0.0000
     11 N3         1.0145   -7.9024    1.6807 N.2       1 RES1    0.0000
     12 O1        -2.9966   -2.4913    1.1966 O.2       1 RES1    0.0000
     13 O2        -2.6124   -2.0509    3.2621 O.2       1 RES1    0.0000
     14 O3         1.0681   -9.0867    1.4021 O.2       1 RES1    0.0000
     15 O4         3.3012   -5.4390    2.3567 O.2       1 RES1    0.0000
     16 H1         0.0814   -5.9833    0.3880 H         1 RES1    0.0000
     17 H2        -1.8613   -4.5202    0.5190 H         1 RES1    0.0000
     18 H3        -0.2984   -2.7188    3.7271 H         1 RES1    0.0000
     19 H4         1.4790   -4.1514    3.7311 H         1 RES1    0.0000
     20 H5         3.5130   -8.4529    0.7705 H         1 RES1    0.0000
     21 H6         3.4030   -8.6825    1.9870 H         1 RES1    0.0000
@<TRIPOS>BOND
     1    1    2 ar
     2    2    3 ar
     3    3    4 ar
     4    4    5 ar
     5    5    6 ar
     6    6    1 ar
     7    7    1 1
     8    8   10 1
     9    9    4 1
    10   10    7 1
    11   11   10 1
    12   12    9 2
    13   13    9 2
    14   14   11 2
    15   15    7 2
    16   16    2 1
    17   17    3 1
    18   18    5 1
    19   19    6 1
    20   20    8 1
    21   21    8 1
@<TRIPOS>SUBSTRUCTURE
     1 RES1 1

@<TRIPOS>CRYSIN
   7.1160    8.4140    8.4620 103.2400 103.1100  97.9800   2 1

