# MOL2 file generated by ConQuest
# Please check atom types

@<TRIPOS>MOLECULE
BIDKOO
    50    51     1
SMALL
NO_CHARGES
****
Generated from CSD

@<TRIPOS>ATOM
      1 O1        -4.2741    4.9879    6.7932 O.2       1 RES1    0.0000
      2 O2        -2.8116    3.7167    5.8472 O.2       1 RES1    0.0000
      3 N1        -3.2486    4.3382    6.7932 N.pl3     1 RES1    0.0000
      4 C1        -2.4087    4.3687    8.0241 C.ar      1 RES1    0.0000
      5 C2        -1.2541    3.6297    8.0276 C.ar      1 RES1    0.0000
      6 C3        -0.4777    3.6121    9.1768 C.ar      1 RES1    0.0000
      7 C4        -0.8625    4.3290   10.2874 C.ar      1 RES1    0.0000
      8 C5        -2.0352    5.0987   10.2408 C.ar      1 RES1    0.0000
      9 C6        -2.8207    5.1093    9.1052 C.ar      1 RES1    0.0000
     10 N2        -0.1947    4.3031   11.5161 N.am      1 RES1    0.0000
     11 C7         1.0708    3.8320   11.7194 C.2       1 RES1    0.0000
     12 O3         1.8042    3.4800   10.8302 O.2       1 RES1    0.0000
     13 C8         1.5009    3.8290   13.1945 C.3       1 RES1    0.0000
     14 N3         2.6441    2.9578   13.3274 N.am      1 RES1    0.0000
     15 C9         2.5966    1.8393   14.0451 C.2       1 RES1    0.0000
     16 O4         1.5937    1.4682   14.6106 O.2       1 RES1    0.0000
     17 C10        3.8779    1.0239   14.0860 C.3       1 RES1    0.0000
     18 C11        5.1660    1.7812   14.5186 C.3       1 RES1    0.0000
     19 C12        5.1139    2.0630   15.9983 C.3       1 RES1    0.0000
     20 C13        6.3160    2.8211   16.5582 C.2       1 RES1    0.0000
     21 O5         7.2079    3.1212   15.6270 O.3       1 RES1    0.0000
     22 O6         6.4541    3.1143   17.7085 O.2       1 RES1    0.0000
     23 C14        1.8586    5.2590   13.6647 C.3       1 RES1    0.0000
     24 C15        2.2615    5.2117   15.1455 C.ar      1 RES1    0.0000
     25 C16        3.5859    5.4132   15.5202 C.ar      1 RES1    0.0000
     26 C17        3.9571    5.3758   16.8489 C.ar      1 RES1    0.0000
     27 C18        3.0244    5.0941   17.8335 C.ar      1 RES1    0.0000
     28 C19        1.7024    4.8582   17.4780 C.ar      1 RES1    0.0000
     29 C20        1.3175    4.9276   16.1335 C.ar      1 RES1    0.0000
     30 H1        -1.1319    2.8631    7.5745 H         1 RES1    0.0000
     31 H2         0.4528    2.9471    9.2438 H         1 RES1    0.0000
     32 H3        -2.2638    5.7263   10.9813 H         1 RES1    0.0000
     33 H4        -3.3957    6.0469    9.0848 H         1 RES1    0.0000
     34 H5        -0.5659    4.4512   12.4916 H         1 RES1    0.0000
     35 H6         0.5660    3.4968   13.6272 H         1 RES1    0.0000
     36 H7         3.3957    3.1838   12.8663 H         1 RES1    0.0000
     37 H8         4.0975    0.2138   14.3881 H         1 RES1    0.0000
     38 H9         4.0975    0.6337   13.0935 H         1 RES1    0.0000
     39 H10        5.9764    1.1682   14.2631 H         1 RES1    0.0000
     40 H11        5.0936    2.5425   14.0019 H         1 RES1    0.0000
     41 H12        4.5276    2.8631   16.2504 H         1 RES1    0.0000
     42 H13        5.0936    1.2750   16.6593 H         1 RES1    0.0000
     43 H14        8.0818    3.3823   16.0120 H         1 RES1    0.0000
     44 H15        2.8298    5.7263   13.2525 H         1 RES1    0.0000
     45 H16        1.1319    5.8331   13.6272 H         1 RES1    0.0000
     46 H17        4.3918    5.5965   14.7969 H         1 RES1    0.0000
     47 H18        5.0936    5.4056   17.0340 H         1 RES1    0.0000
     48 H19        3.3957    5.0925   18.9305 H         1 RES1    0.0000
     49 H20        1.1319    4.7719   18.1696 H         1 RES1    0.0000
     50 H21        0.5660    4.4512   15.8984 H         1 RES1    0.0000
@<TRIPOS>BOND
     1    1    3 2
     2    2    3 2
     3    3    4 1
     4    4    5 ar
     5    5    6 ar
     6    6    7 ar
     7    7    8 ar
     8    8    9 ar
     9    9    4 ar
    10   10    7 1
    11   11   10 1
    12   12   11 2
    13   13   11 1
    14   14   13 1
    15   15   14 1
    16   16   15 2
    17   17   15 1
    18   18   17 1
    19   19   18 1
    20   20   19 1
    21   21   20 1
    22   22   20 2
    23   23   13 1
    24   24   23 1
    25   25   24 ar
    26   26   25 ar
    27   27   26 ar
    28   28   27 ar
    29   29   24 ar
    30   30    5 1
    31   31    6 1
    32   32    8 1
    33   33    9 1
    34   34   10 1
    35   35   13 1
    36   36   14 1
    37   37   17 1
    38   38   17 1
    39   39   18 1
    40   40   18 1
    41   41   19 1
    42   42   19 1
    43   43   21 1
    44   44   23 1
    45   45   23 1
    46   46   25 1
    47   47   26 1
    48   48   27 1
    49   49   28 1
    50   50   29 1
    51   28   29 ar
@<TRIPOS>SUBSTRUCTURE
     1 RES1 1

@<TRIPOS>CRYSIN
  22.6380    7.6350   11.3560  90.0000  90.0000  90.0000  19 1

