# MOL2 file generated by ConQuest
# Please check atom types

@<TRIPOS>MOLECULE
BIDTOY
    54    54     2
SMALL
NO_CHARGES
****
Generated from CSD

@<TRIPOS>ATOM
      1 O1         6.1644    4.2436    9.4299 O.3       1 RES1    0.0000
      2 O2         4.9268    3.6246   11.2052 O.2       1 RES1    0.0000
      3 O3         2.2081    6.3291    9.8956 O.3       1 RES1    0.0000
      4 H1         1.8921    6.8005   10.4864 H         1 RES1    0.0000
      5 O4         4.9323    6.6778    8.0406 O.2       1 RES1    0.0000
      6 N1         3.1266    5.4836   10.4335 N.2       1 RES1    0.0000
      7 C1         8.4043    3.5457    9.0390 C.3       1 RES1    0.0000
      8 H2         8.1949    3.2700    8.1405 H         1 RES1    0.0000
      9 H3         9.1262    3.0114    9.3762 H         1 RES1    0.0000
     10 H4         8.6615    4.4696    9.0365 H         1 RES1    0.0000
     11 C2         7.2231    3.3669    9.8932 C.3       1 RES1    0.0000
     12 H5         6.9273    2.4440    9.8587 H         1 RES1    0.0000
     13 H6         7.4472    3.5793   10.8163 H         1 RES1    0.0000
     14 C3         5.0683    4.2587   10.1615 C.2       1 RES1    0.0000
     15 C4         4.0414    5.1592    9.6224 C.2       1 RES1    0.0000
     16 C5         4.1865    5.7607    8.1897 C.2       1 RES1    0.0000
     17 C6         3.3470    5.1884    7.1436 C.ar      1 RES1    0.0000
     18 C7         2.4579    4.1432    7.3750 C.ar      1 RES1    0.0000
     19 H7         2.3881    3.7663    8.2217 H         1 RES1    0.0000
     20 C8         1.6809    3.6694    6.3362 C.ar      1 RES1    0.0000
     21 H8         1.0820    2.9768    6.4962 H         1 RES1    0.0000
     22 C9         1.7727    4.1910    5.0857 C.ar      1 RES1    0.0000
     23 H9         1.2510    3.8481    4.3964 H         1 RES1    0.0000
     24 C10        2.6232    5.2118    4.8494 C.ar      1 RES1    0.0000
     25 H10        2.6747    5.5776    3.9952 H         1 RES1    0.0000
     26 C11        3.4150    5.7178    5.8561 C.ar      1 RES1    0.0000
     27 H11        4.0010    6.4177    5.6740 H         1 RES1    0.0000
     28 O5        10.5848    4.3332    1.1506 O.3       2 RES2    0.0000
     29 O6         9.3871    3.6470   -0.6132 O.2       2 RES2    0.0000
     30 O7         6.5269    6.2078    0.6671 O.3       2 RES2    0.0000
     31 H12        5.9023    6.2779    0.1403 H         2 RES2    0.0000
     32 O8         9.2493    6.7533    2.4412 O.2       2 RES2    0.0000
     33 N2         7.5023    5.4134    0.1157 N.2       2 RES2    0.0000
     34 C12       12.8719    3.8768    1.5656 C.3       2 RES2    0.0000
     35 H13       13.1309    4.7715    1.3416 H         2 RES2    0.0000
     36 H14       13.5938    3.2749    1.3711 H         2 RES2    0.0000
     37 H15       12.6569    3.8272    2.5010 H         2 RES2    0.0000
     38 C13       11.6852    3.4906    0.7656 C.3       2 RES2    0.0000
     39 H16       11.8707    3.5987   -0.1797 H         2 RES2    0.0000
     40 H17       11.4629    2.5604    0.9305 H         2 RES2    0.0000
     41 C14        9.5138    4.2918    0.3815 C.2       2 RES2    0.0000
     42 C15        8.4410    5.1738    0.9305 C.2       2 RES2    0.0000
     43 C16        8.5696    5.7865    2.3238 C.2       2 RES2    0.0000
     44 C17        7.8109    5.1441    3.4413 C.ar      2 RES2    0.0000
     45 C18        6.9586    4.0741    3.2025 C.ar      2 RES2    0.0000
     46 H18        6.8667    3.7142    2.3484 H         2 RES2    0.0000
     47 C19        6.2550    3.5637    4.2733 C.ar      2 RES2    0.0000
     48 H19        5.6451    2.8789    4.1158 H         2 RES2    0.0000
     49 C20        6.4056    4.0059    5.5189 C.ar      2 RES2    0.0000
     50 H20        5.9409    3.6031    6.2155 H         2 RES2    0.0000
     51 C21        7.2562    5.0652    5.7774 C.ar      2 RES2    0.0000
     52 H21        7.3553    5.3779    6.6488 H         2 RES2    0.0000
     53 C22        7.9763    5.6735    4.7263 C.ar      2 RES2    0.0000
     54 H22        8.5384    6.3978    4.8814 H         2 RES2    0.0000
@<TRIPOS>BOND
     1    1   11 1
     2    2   14 2
     3    3    4 1
     4    5   16 2
     5    6    3 1
     6    7    8 1
     7    9    7 1
     8   10    7 1
     9   11    7 1
    10   12   11 1
    11   13   11 1
    12   14    1 1
    13   15    6 2
    14   16   15 1
    15   17   16 1
    16   18   17 ar
    17   19   18 1
    18   20   18 ar
    19   21   20 1
    20   22   20 ar
    21   23   22 1
    22   24   22 ar
    23   25   24 1
    24   26   17 ar
    25   27   26 1
    26   28   38 1
    27   29   41 2
    28   30   31 1
    29   32   43 2
    30   33   30 1
    31   34   35 1
    32   36   34 1
    33   37   34 1
    34   38   34 1
    35   39   38 1
    36   40   38 1
    37   41   28 1
    38   42   33 2
    39   43   42 1
    40   44   43 1
    41   45   44 ar
    42   46   45 1
    43   47   45 ar
    44   48   47 1
    45   49   47 ar
    46   50   49 1
    47   51   49 ar
    48   52   51 1
    49   53   44 ar
    50   54   53 1
    51   14   15 1
    52   24   26 ar
    53   41   42 1
    54   51   53 ar
@<TRIPOS>SUBSTRUCTURE
     1 RES1 1
     2 RES2 28

@<TRIPOS>CRYSIN
  18.3700    4.8704   24.6160  90.0000  90.0000  90.0000  33 1

