# MOL2 file generated by ConQuest
# Please check atom types

@<TRIPOS>MOLECULE
BIDVER
    94    98     2
SMALL
NO_CHARGES
****
Generated from CSD

@<TRIPOS>ATOM
      1 O1         1.3198   17.2315    1.8109 O.2       1 RES1    0.0000
      2 O2         3.0552   15.9626    1.7648 O.2       1 RES1    0.0000
      3 O3         1.0550   18.0066   -3.3915 O.2       1 RES1    0.0000
      4 O4         2.8013   16.7489   -3.5237 O.2       1 RES1    0.0000
      5 N1         2.4294   16.9307    2.1715 N.pl3     1 RES1    0.0000
      6 N2         2.2565   19.6412    0.1102 N.ar      1 RES1    0.0000
      7 N3         2.1330   17.6102   -2.9668 N.pl3     1 RES1    0.0000
      8 C1         3.7925   19.8684    1.9592 C.3       1 RES1    0.0000
      9 H1         4.7426   19.6412    2.1725 H         1 RES1    0.0000
     10 C2         2.8836   19.2628    3.0699 C.3       1 RES1    0.0000
     11 H2         1.9361   19.4193    2.7925 H         1 RES1    0.0000
     12 C3         3.0579   17.7569    3.2432 C.3       1 RES1    0.0000
     13 H3         4.0264   17.5528    3.2733 H         1 RES1    0.0000
     14 H4         2.6700   17.4926    4.1146 H         1 RES1    0.0000
     15 C4         3.4564   19.2755    0.6090 C.ar      1 RES1    0.0000
     16 C5         4.2911   18.3761   -0.0481 C.ar      1 RES1    0.0000
     17 H5         5.1385   18.1549    0.3185 H         1 RES1    0.0000
     18 C6         3.8743   17.8070   -1.2450 C.ar      1 RES1    0.0000
     19 H6         4.4170   17.1820   -1.7128 H         1 RES1    0.0000
     20 C7         2.6428   18.1860   -1.7218 C.ar      1 RES1    0.0000
     21 C8         1.8662   19.1027   -1.0417 C.ar      1 RES1    0.0000
     22 H7         1.0277   19.3559   -1.4073 H         1 RES1    0.0000
     23 C9         3.0765   19.9498    4.4051 C.ar      1 RES1    0.0000
     24 C10        4.2502   19.8123    5.1232 C.ar      1 RES1    0.0000
     25 H8         4.9460   19.2640    4.7827 H         1 RES1    0.0000
     26 C11        4.4270   20.4689    6.3412 C.ar      1 RES1    0.0000
     27 H9         5.2420   20.3700    6.8190 H         1 RES1    0.0000
     28 C12        3.4203   21.2595    6.8500 C.ar      1 RES1    0.0000
     29 H10        3.5417   21.7136    7.6764 H         1 RES1    0.0000
     30 C13        2.2381   21.3907    6.1589 C.ar      1 RES1    0.0000
     31 H11        1.5407   21.9291    6.5135 H         1 RES1    0.0000
     32 C14        2.0579   20.7338    4.9339 C.ar      1 RES1    0.0000
     33 H12        1.2374   20.8263    4.4632 H         1 RES1    0.0000
     34 C15        3.6564   21.3980    1.9441 C.3       1 RES1    0.0000
     35 H13        2.6935   21.6186    1.8800 H         1 RES1    0.0000
     36 H14        3.9808   21.7453    2.8125 H         1 RES1    0.0000
     37 C16        4.3838   22.1373    0.8424 C.ar      1 RES1    0.0000
     38 C17        3.8125   23.2766    0.2995 C.ar      1 RES1    0.0000
     39 H15        2.9582   23.5611    0.6010 H         1 RES1    0.0000
     40 C18        4.4746   24.0099   -0.6831 C.ar      1 RES1    0.0000
     41 H16        4.0697   24.7875   -1.0467 H         1 RES1    0.0000
     42 C19        5.7105   23.6099   -1.1288 C.ar      1 RES1    0.0000
     43 H17        6.1613   24.1094   -1.7989 H         1 RES1    0.0000
     44 C20        6.2934   22.4796   -0.5980 C.ar      1 RES1    0.0000
     45 H18        7.1480   22.1985   -0.9045 H         1 RES1    0.0000
     46 C21        5.6331   21.7438    0.3866 C.ar      1 RES1    0.0000
     47 H19        6.0428   20.9658    0.7492 H         1 RES1    0.0000
     48 O5         7.7566   14.5506    9.4372 O.2       2 RES2    0.0000
     49 O6         6.2620   16.0102    8.9394 O.2       2 RES2    0.0000
     50 O7         7.6016   14.5372    4.1206 O.2       2 RES2    0.0000
     51 O8         5.7925   15.6610    3.9684 O.2       2 RES2    0.0000
     52 N4         6.6458   15.0268    9.5534 N.pl3     2 RES2    0.0000
     53 N5         6.3522   12.6273    7.4770 N.ar      2 RES2    0.0000
     54 N6         6.4891   14.8383    4.5123 N.pl3     2 RES2    0.0000
     55 C22        4.7986   12.3199    9.3060 C.3       2 RES2    0.0000
     56 H20        3.8455   12.5427    9.5123 H         2 RES2    0.0000
     57 C23        5.6944   12.8786   10.4568 C.3       2 RES2    0.0000
     58 H21        6.6331   12.5839   10.2765 H         2 RES2    0.0000
     59 C24        5.6996   14.4060   10.5430 C.3       2 RES2    0.0000
     60 H22        4.7850   14.7451   10.3747 H         2 RES2    0.0000
     61 H23        5.9614   14.6786   11.4585 H         2 RES2    0.0000
     62 C25        5.1657   12.9683    7.9778 C.ar      2 RES2    0.0000
     63 C26        4.3221   13.8924    7.3649 C.ar      2 RES2    0.0000
     64 H24        3.4704   14.0892    7.7365 H         2 RES2    0.0000
     65 C27        4.7485   14.5195    6.1980 C.ar      2 RES2    0.0000
     66 H25        4.2018   15.1539    5.7493 H         2 RES2    0.0000
     67 C28        5.9864   14.1868    5.7252 C.ar      2 RES2    0.0000
     68 C29        6.7540   13.2364    6.3592 C.ar      2 RES2    0.0000
     69 H26        7.5979   13.0054    5.9886 H         2 RES2    0.0000
     70 C30        5.2805   12.2952   11.8000 C.ar      2 RES2    0.0000
     71 C31        4.0501   12.5994   12.3819 C.ar      2 RES2    0.0000
     72 H27        3.4584   13.1987   11.9432 H         2 RES2    0.0000
     73 C32        3.6811   12.0363   13.5949 C.ar      2 RES2    0.0000
     74 H28        2.8424   12.2512   13.9865 H         2 RES2    0.0000
     75 C33        4.5518   11.1534   14.2349 C.ar      2 RES2    0.0000
     76 H29        4.3048   10.7586   15.0633 H         2 RES2    0.0000
     77 C34        5.7507   10.8571   13.6750 C.ar      2 RES2    0.0000
     78 H30        6.3375   10.2547   14.1147 H         2 RES2    0.0000
     79 C35        6.1340   11.4263   12.4621 C.ar      2 RES2    0.0000
     80 H31        6.9816   11.2181   12.0875 H         2 RES2    0.0000
     81 C36        4.9399   10.7934    9.2499 C.3       2 RES2    0.0000
     82 H32        5.9018   10.5780    9.1648 H         2 RES2    0.0000
     83 H33        4.6312   10.4258   10.1153 H         2 RES2    0.0000
     84 C37        4.2018   10.0830    8.1491 C.ar      2 RES2    0.0000
     85 C38        2.9408   10.4819    7.7264 C.ar      2 RES2    0.0000
     86 H34        2.5347   11.2466    8.1161 H         2 RES2    0.0000
     87 C39        2.2624    9.7699    6.7338 C.ar      2 RES2    0.0000
     88 H35        1.3994   10.0519    6.4534 H         2 RES2    0.0000
     89 C40        2.8493    8.6547    6.1589 C.ar      2 RES2    0.0000
     90 H36        2.3933    8.1727    5.4798 H         2 RES2    0.0000
     91 C41        4.0880    8.2500    6.5746 C.ar      2 RES2    0.0000
     92 H37        4.4817    7.4787    6.1830 H         2 RES2    0.0000
     93 C42        4.7866    8.9510    7.5642 C.ar      2 RES2    0.0000
     94 H38        5.6493    8.6607    7.8376 H         2 RES2    0.0000
@<TRIPOS>BOND
     1    1    5 2
     2    2    5 2
     3    3    7 2
     4    4    7 2
     5    5   12 1
     6    6   15 ar
     7    7   20 1
     8    8    9 1
     9   10    8 1
    10   11   10 1
    11   12   10 1
    12   13   12 1
    13   14   12 1
    14   15    8 1
    15   16   15 ar
    16   17   16 1
    17   18   16 ar
    18   19   18 1
    19   20   18 ar
    20   21    6 ar
    21   22   21 1
    22   23   10 1
    23   24   23 ar
    24   25   24 1
    25   26   24 ar
    26   27   26 1
    27   28   26 ar
    28   29   28 1
    29   30   28 ar
    30   31   30 1
    31   32   23 ar
    32   33   32 1
    33   34    8 1
    34   35   34 1
    35   36   34 1
    36   37   34 1
    37   38   37 ar
    38   39   38 1
    39   40   38 ar
    40   41   40 1
    41   42   40 ar
    42   43   42 1
    43   44   42 ar
    44   45   44 1
    45   46   37 ar
    46   47   46 1
    47   48   52 2
    48   49   52 2
    49   50   54 2
    50   51   54 2
    51   52   59 1
    52   53   62 ar
    53   54   67 1
    54   55   56 1
    55   57   55 1
    56   58   57 1
    57   59   57 1
    58   60   59 1
    59   61   59 1
    60   62   55 1
    61   63   62 ar
    62   64   63 1
    63   65   63 ar
    64   66   65 1
    65   67   65 ar
    66   68   53 ar
    67   69   68 1
    68   70   57 1
    69   71   70 ar
    70   72   71 1
    71   73   71 ar
    72   74   73 1
    73   75   73 ar
    74   76   75 1
    75   77   75 ar
    76   78   77 1
    77   79   70 ar
    78   80   79 1
    79   81   55 1
    80   82   81 1
    81   83   81 1
    82   84   81 1
    83   85   84 ar
    84   86   85 1
    85   87   85 ar
    86   88   87 1
    87   89   87 ar
    88   90   89 1
    89   91   89 ar
    90   92   91 1
    91   93   84 ar
    92   94   93 1
    93   20   21 ar
    94   30   32 ar
    95   44   46 ar
    96   67   68 ar
    97   77   79 ar
    98   91   93 ar
@<TRIPOS>SUBSTRUCTURE
     1 RES1 1
     2 RES2 48

@<TRIPOS>CRYSIN
   5.9405   31.6895   10.0206  90.0000  91.7156  90.0000   4 1

