# MOL2 file generated by ConQuest
# Please check atom types

@<TRIPOS>MOLECULE
BIDWIU
    30    32     1
SMALL
NO_CHARGES
****
Generated from CSD

@<TRIPOS>ATOM
      1 C1         2.1057    2.4636    0.9107 C.ar      1 RES1    0.0000
      2 C2         2.8998    1.6289    1.7161 C.ar      1 RES1    0.0000
      3 C3         3.5150    2.0509    2.8836 C.ar      1 RES1    0.0000
      4 C4         3.4229    3.3734    3.2247 C.ar      1 RES1    0.0000
      5 C5         2.8060    4.2628    2.3662 C.ar      1 RES1    0.0000
      6 C6         2.1646    3.8564    1.2089 C.ar      1 RES1    0.0000
      7 C7         1.3758    1.8274   -0.1826 C.ar      1 RES1    0.0000
      8 C8         1.8843    0.6003   -0.6602 C.ar      1 RES1    0.0000
      9 C9         1.3860   -0.0360   -1.7910 C.ar      1 RES1    0.0000
     10 C10        0.2882    0.4987   -2.4060 C.ar      1 RES1    0.0000
     11 C11       -0.3508    1.5945   -1.8519 C.ar      1 RES1    0.0000
     12 C12        0.1516    2.2620   -0.7406 C.ar      1 RES1    0.0000
     13 C13        1.7075    4.9397    0.2677 C.3       1 RES1    0.0000
     14 C14       -0.7470    3.2874   -0.0960 C.3       1 RES1    0.0000
     15 N1         3.1691    0.2892    1.3197 N.pl3     1 RES1    0.0000
     16 N2         2.8770   -0.0938    0.0710 N.pl3     1 RES1    0.0000
     17 O1         3.8389   -0.4862    2.0408 O.2       1 RES1    0.0000
     18 O2         3.3398   -1.2037   -0.3231 O.2       1 RES1    0.0000
     19 H1         4.0056    1.4428    3.3737 H         1 RES1    0.0000
     20 H2         3.8475    3.6688    4.0597 H         1 RES1    0.0000
     21 H3         2.8676    5.2258    2.5371 H         1 RES1    0.0000
     22 H4         1.8753   -0.8754   -2.0392 H         1 RES1    0.0000
     23 H5        -0.1113    0.0735   -3.1349 H         1 RES1    0.0000
     24 H6        -1.2195    1.9009   -2.2117 H         1 RES1    0.0000
     25 H7         1.5356    4.6099   -0.6704 H         1 RES1    0.0000
     26 H8        -0.4462    3.5031    0.8467 H         1 RES1    0.0000
     27 H9         0.8870    5.4259    0.5736 H         1 RES1    0.0000
     28 H10        2.3986    5.5947    0.2560 H         1 RES1    0.0000
     29 H11       -1.6983    2.8919   -0.0538 H         1 RES1    0.0000
     30 H12       -0.7887    4.1284   -0.6345 H         1 RES1    0.0000
@<TRIPOS>BOND
     1    1    2 ar
     2    2    3 ar
     3    3    4 ar
     4    4    5 ar
     5    5    6 ar
     6    6    1 ar
     7    7    1 1
     8    8    7 ar
     9    9    8 ar
    10   10    9 ar
    11   11   10 ar
    12   12    7 ar
    13   13    6 1
    14   14   12 1
    15   15    2 1
    16   16    8 1
    17   17   15 2
    18   18   16 2
    19   19    3 1
    20   20    4 1
    21   21    5 1
    22   22    9 1
    23   23   10 1
    24   24   11 1
    25   25   13 1
    26   26   14 1
    27   27   13 1
    28   28   13 1
    29   29   14 1
    30   30   14 1
    31   11   12 ar
    32   15   16 1
@<TRIPOS>SUBSTRUCTURE
     1 RES1 1

@<TRIPOS>CRYSIN
   9.2130   15.6320    8.4200  90.0000 112.0500  90.0000  14 1

