# MOL2 file generated by ConQuest
# Please check atom types

@<TRIPOS>MOLECULE
BIDWOB
    47    49     1
SMALL
NO_CHARGES
****
Generated from CSD

@<TRIPOS>ATOM
      1 N1         7.9105    1.9975   10.2258 N.3       1 RES1    0.0000
      2 O1         8.7589    1.8186   11.3934 O.3       1 RES1    0.0000
      3 C1         9.8504    2.6628   11.2471 C.3       1 RES1    0.0000
      4 H1        10.5350    2.2407   10.7037 H         1 RES1    0.0000
      5 H2        10.2319    2.8784   12.1125 H         1 RES1    0.0000
      6 O2         8.2965    5.4100    7.7847 O.3       1 RES1    0.0000
      7 C2         9.3479    3.8795   10.5891 C.3       1 RES1    0.0000
      8 H3        10.0524    4.3364   10.1035 H         1 RES1    0.0000
      9 H4         8.9517    4.4906   11.2297 H         1 RES1    0.0000
     10 O3         6.9481    7.2103    7.4050 O.3       1 RES1    0.0000
     11 C3         8.2996    3.3106    9.6420 C.3       1 RES1    0.0000
     12 H5         8.7110    3.1592    8.7657 H         1 RES1    0.0000
     13 O4         6.1551    3.5510    8.5862 O.3       1 RES1    0.0000
     14 C4         7.0701    4.1924    9.4663 C.3       1 RES1    0.0000
     15 H6         6.6400    4.3126   10.3382 H         1 RES1    0.0000
     16 C5         7.4464    5.5623    8.9098 C.3       1 RES1    0.0000
     17 H7         7.9348    6.0550    9.6016 H         1 RES1    0.0000
     18 C6         6.3328    6.4340    8.4013 C.3       1 RES1    0.0000
     19 H8         5.6131    5.9000    8.0313 H         1 RES1    0.0000
     20 H9         5.9783    6.9946    9.1094 H         1 RES1    0.0000
     21 C7         7.9844    6.4166    6.8321 C.3       1 RES1    0.0000
     22 C8         9.1908    7.2727    6.6488 C.3       1 RES1    0.0000
     23 H10        9.0014    7.9590    6.0049 H         1 RES1    0.0000
     24 H11        9.9215    6.7340    6.3378 H         1 RES1    0.0000
     25 H12        9.4259    7.6773    7.4879 H         1 RES1    0.0000
     26 C9         7.5430    5.7926    5.5455 C.3       1 RES1    0.0000
     27 H13        7.3391    6.4817    4.9094 H         1 RES1    0.0000
     28 H14        6.7604    5.2586    5.7016 H         1 RES1    0.0000
     29 H15        8.2458    5.2366    5.2018 H         1 RES1    0.0000
     30 C10        8.2140    0.9139    9.3233 C.3       1 RES1    0.0000
     31 H16        7.9551    0.0807    9.7249 H         1 RES1    0.0000
     32 H17        9.1573    0.9020    9.1433 H         1 RES1    0.0000
     33 H18        7.7324    1.0369    8.5016 H         1 RES1    0.0000
     34 C11        4.9276    3.2271    9.1935 C.3       1 RES1    0.0000
     35 H19        4.4983    4.0346    9.5176 H         1 RES1    0.0000
     36 H20        5.0804    2.6398    9.9508 H         1 RES1    0.0000
     37 C12        4.0439    2.5499    8.2005 C.ar      1 RES1    0.0000
     38 C13        4.1904    1.2139    7.9037 C.ar      1 RES1    0.0000
     39 H21        4.8491    0.7212    8.3380 H         1 RES1    0.0000
     40 C14        3.3923    0.5955    6.9849 C.ar      1 RES1    0.0000
     41 H22        3.5052   -0.3083    6.7994 H         1 RES1    0.0000
     42 C15        2.4548    1.2929    6.3618 C.ar      1 RES1    0.0000
     43 H23        1.9283    0.8625    5.7278 H         1 RES1    0.0000
     44 C16        2.2305    2.5967    6.6040 C.ar      1 RES1    0.0000
     45 H24        1.5530    3.0592    6.1654 H         1 RES1    0.0000
     46 C17        3.0590    3.2363    7.5479 C.ar      1 RES1    0.0000
     47 H25        2.9334    4.1401    7.7291 H         1 RES1    0.0000
@<TRIPOS>BOND
     1    1    2 1
     2    2    3 1
     3    3    4 1
     4    5    3 1
     5    6   16 1
     6    7    3 1
     7    8    7 1
     8    9    7 1
     9   10   18 1
    10   11    1 1
    11   12   11 1
    12   13   14 1
    13   14   11 1
    14   15   14 1
    15   16   14 1
    16   17   16 1
    17   18   16 1
    18   19   18 1
    19   20   18 1
    20   21    6 1
    21   22   21 1
    22   23   22 1
    23   24   22 1
    24   25   22 1
    25   26   21 1
    26   27   26 1
    27   28   26 1
    28   29   26 1
    29   30    1 1
    30   31   30 1
    31   32   30 1
    32   33   30 1
    33   34   13 1
    34   35   34 1
    35   36   34 1
    36   37   34 1
    37   38   37 ar
    38   39   38 1
    39   40   38 ar
    40   41   40 1
    41   42   40 ar
    42   43   42 1
    43   44   42 ar
    44   45   44 1
    45   46   37 ar
    46   47   46 1
    47    7   11 1
    48   10   21 1
    49   44   46 ar
@<TRIPOS>SUBSTRUCTURE
     1 RES1 1

@<TRIPOS>CRYSIN
   8.5470    9.1757   11.1660  90.0000 102.2410  90.0000   4 1

