# MOL2 file generated by ConQuest
# Please check atom types

@<TRIPOS>MOLECULE
BIDYUI
    79    84     1
SMALL
NO_CHARGES
****
Generated from CSD

@<TRIPOS>ATOM
      1 C1         2.0337    8.9692    8.2004 C.3       1 RES1    0.0000
      2 C2         3.3296    9.7177    8.3599 C.3       1 RES1    0.0000
      3 C3         3.2854   11.1247    7.8691 C.3       1 RES1    0.0000
      4 C4         2.7873   11.1420    6.4165 C.3       1 RES1    0.0000
      5 C5         1.4441   10.4293    6.1838 C.3       1 RES1    0.0000
      6 C6         1.1256   10.3935    4.6638 C.3       1 RES1    0.0000
      7 C7         2.1661    9.6081    3.9033 C.3       1 RES1    0.0000
      8 C8         2.5508    8.3268    4.5306 C.2       1 RES1    0.0000
      9 C9         2.2733    8.0212    5.8427 C.2       1 RES1    0.0000
     10 C10        1.4661    8.9519    6.7124 C.3       1 RES1    0.0000
     11 C11        2.6706    6.6580    6.3787 C.3       1 RES1    0.0000
     12 C12        2.4278    5.6004    5.3206 C.3       1 RES1    0.0000
     13 C13        3.2413    5.8530    4.0390 C.3       1 RES1    0.0000
     14 C14        3.3926    7.3834    3.6986 C.3       1 RES1    0.0000
     15 C15        4.8840    7.7075    3.6468 C.3       1 RES1    0.0000
     16 C16        5.5398    6.3674    3.3303 C.3       1 RES1    0.0000
     17 C17        4.7390    5.3951    4.2124 C.3       1 RES1    0.0000
     18 C18        2.5855    5.1495    2.8247 C.3       1 RES1    0.0000
     19 C19        0.0221    8.4179    6.8169 C.3       1 RES1    0.0000
     20 C20        4.9975    3.9005    3.9757 C.2       1 RES1    0.0000
     21 C21        5.0164    3.1024    5.0271 C.2       1 RES1    0.0000
     22 C22        5.1961    3.3388    2.6924 C.2       1 RES1    0.0000
     23 C23        5.3475    1.9848    2.5403 C.2       1 RES1    0.0000
     24 C24        5.2529    1.2075    3.6723 C.2       1 RES1    0.0000
     25 C25        2.2355   13.1303    8.7504 C.2       1 RES1    0.0000
     26 C26        1.0909   13.5397    9.6613 C.3       1 RES1    0.0000
     27 C27        6.4983    8.7259    5.0839 C.2       1 RES1    0.0000
     28 C28        6.7537    9.1145    6.5423 C.ar      1 RES1    0.0000
     29 C29        6.8767    8.1700    7.5600 C.ar      1 RES1    0.0000
     30 C30        7.0785    8.5425    8.8869 C.ar      1 RES1    0.0000
     31 C31        7.1258    9.8780    9.1812 C.ar      1 RES1    0.0000
     32 C32        7.0154   10.8145    8.1980 C.ar      1 RES1    0.0000
     33 C33        6.8294   10.4616    6.8547 C.ar      1 RES1    0.0000
     34 O1         2.2449   11.7694    8.7291 O.3       1 RES1    0.0000
     35 O2         5.3002    8.1227    4.9893 O.3       1 RES1    0.0000
     36 O3         5.1615    1.7196    4.9416 O.3       1 RES1    0.0000
     37 O4         5.3727   -0.0588    3.6814 O.2       1 RES1    0.0000
     38 O5         2.9796   13.8211    8.1413 O.2       1 RES1    0.0000
     39 O6         7.2361    8.9761    4.1820 O.2       1 RES1    0.0000
     40 N1         6.8357    6.7007    7.2427 N.pl3     1 RES1    0.0000
     41 O7         7.3023    6.3501    6.1962 O.2       1 RES1    0.0000
     42 O8         6.2556    5.9937    8.0426 O.2       1 RES1    0.0000
     43 H1         2.1945    7.9485    8.5137 H         1 RES1    0.0000
     44 H2         1.2927    9.4294    8.8392 H         1 RES1    0.0000
     45 H3         4.0957    9.1883    7.8157 H         1 RES1    0.0000
     46 H4         3.5787    9.7385    9.4098 H         1 RES1    0.0000
     47 H5         4.2502   11.6103    7.9037 H         1 RES1    0.0000
     48 H6         2.6769   12.1731    6.1140 H         1 RES1    0.0000
     49 H7         3.5314   10.6623    5.7991 H         1 RES1    0.0000
     50 H8         0.6842   10.9806    6.7198 H         1 RES1    0.0000
     51 H9         1.1067   11.4050    4.2856 H         1 RES1    0.0000
     52 H10        0.1577    9.9368    4.5142 H         1 RES1    0.0000
     53 H11        3.0521   10.2182    3.8145 H         1 RES1    0.0000
     54 H12        1.7751    9.3948    2.9193 H         1 RES1    0.0000
     55 H13        2.0810    6.4308    7.2550 H         1 RES1    0.0000
     56 H14        3.7174    6.6672    6.6426 H         1 RES1    0.0000
     57 H15        2.7021    4.6374    5.7235 H         1 RES1    0.0000
     58 H16        1.3779    5.5993    5.0674 H         1 RES1    0.0000
     59 H17        2.9544    7.5576    2.7269 H         1 RES1    0.0000
     60 H18        5.1331    8.4837    2.9382 H         1 RES1    0.0000
     61 H19        5.4389    6.1206    2.2830 H         1 RES1    0.0000
     62 H20        6.5835    6.3697    3.6008 H         1 RES1    0.0000
     63 H21        5.0606    5.4551    5.2417 H         1 RES1    0.0000
     64 H22        2.6454    4.0815    2.9793 H         1 RES1    0.0000
     65 H23        3.0899    5.4090    1.9056 H         1 RES1    0.0000
     66 H24        1.5481    5.4447    2.7623 H         1 RES1    0.0000
     67 H25       -0.6085    9.0719    7.3989 H         1 RES1    0.0000
     68 H26        0.0599    7.4446    7.2822 H         1 RES1    0.0000
     69 H27       -0.3784    8.3245    5.8180 H         1 RES1    0.0000
     70 H28        4.9124    3.5464    6.0063 H         1 RES1    0.0000
     71 H29        5.2088    3.9800    1.8234 H         1 RES1    0.0000
     72 H30        5.5524    1.5500    1.5735 H         1 RES1    0.0000
     73 H31        1.0846   14.6169    9.7419 H         1 RES1    0.0000
     74 H32        1.0720   13.1049   10.6503 H         1 RES1    0.0000
     75 H33        0.2239   13.2145    9.1072 H         1 RES1    0.0000
     76 H34        7.1857    7.7975    9.6613 H         1 RES1    0.0000
     77 H35        7.2645   10.1929   10.2047 H         1 RES1    0.0000
     78 H36        7.0690   11.8605    8.4619 H         1 RES1    0.0000
     79 H37        6.7474   11.2158    6.0860 H         1 RES1    0.0000
@<TRIPOS>BOND
     1    1    2 1
     2    2    3 1
     3    3    4 1
     4    4    5 1
     5    5    6 1
     6    6    7 1
     7    7    8 1
     8    8    9 2
     9    9   10 1
    10   10    1 1
    11   11    9 1
    12   12   11 1
    13   13   12 1
    14   14    8 1
    15   15   14 1
    16   16   15 1
    17   17   13 1
    18   18   13 1
    19   19   10 1
    20   20   17 1
    21   21   20 2
    22   22   20 1
    23   23   22 2
    24   24   23 1
    25   25   26 1
    26   26   73 1
    27   27   28 1
    28   28   29 ar
    29   29   30 ar
    30   30   31 ar
    31   31   32 ar
    32   32   33 ar
    33   33   28 ar
    34   34    3 1
    35   35   15 1
    36   36   21 1
    37   37   24 2
    38   38   25 2
    39   39   27 2
    40   40   29 1
    41   41   40 2
    42   42   40 2
    43   43    1 1
    44   44    1 1
    45   45    2 1
    46   46    2 1
    47   47    3 1
    48   48    4 1
    49   49    4 1
    50   50    5 1
    51   51    6 1
    52   52    6 1
    53   53    7 1
    54   54    7 1
    55   55   11 1
    56   56   11 1
    57   57   12 1
    58   58   12 1
    59   59   14 1
    60   60   15 1
    61   61   16 1
    62   62   16 1
    63   63   17 1
    64   64   18 1
    65   65   18 1
    66   66   18 1
    67   67   19 1
    68   68   19 1
    69   69   19 1
    70   70   21 1
    71   71   22 1
    72   72   23 1
    73   74   26 1
    74   75   26 1
    75   76   30 1
    76   77   31 1
    77   78   32 1
    78   79   33 1
    79    5   10 1
    80   13   14 1
    81   16   17 1
    82   24   36 1
    83   25   34 1
    84   27   35 1
@<TRIPOS>SUBSTRUCTURE
     1 RES1 1

@<TRIPOS>CRYSIN
  31.5300   11.5330    8.2210  90.0000  90.0000  90.0000  19 1

