# MOL2 file generated by ConQuest
# Please check atom types

@<TRIPOS>MOLECULE
BIFNIP
    47    46     2
SMALL
NO_CHARGES
****
Generated from CSD

@<TRIPOS>ATOM
      1 O1         1.8918    5.7631    4.7477 O.3       1 RES1    0.0000
      2 O2         2.9800    3.0114    2.6399 O.3       1 RES1    0.0000
      3 O3         4.3583    6.2615    0.5636 O.2       1 RES1    0.0000
      4 O4         2.8106    3.9293   -3.5631 O.2       1 RES1    0.0000
      5 O5         2.5015    1.7978   -3.4480 O.2       1 RES1    0.0000
      6 O6        -1.6117    7.0038    6.8193 O.2       1 RES1    0.0000
      7 O7        -2.2053    4.8442    7.0062 O.3       1 RES1    0.0000
      8 N1         2.4616    6.3092    1.8115 N.am      1 RES1    0.0000
      9 N2         2.6935    2.8901   -2.9279 N.pl3     1 RES1    0.0000
     10 C1         0.6145    6.2938    5.1375 C.3       1 RES1    0.0000
     11 H1         0.7813    7.1018    5.7026 H         1 RES1    0.0000
     12 C2        -0.1921    6.7281    3.9455 C.2       1 RES1    0.0000
     13 H2        -0.9754    7.2447    4.0931 H         1 RES1    0.0000
     14 C3         0.1381    6.4236    2.6952 C.2       1 RES1    0.0000
     15 H3        -0.3882    6.7555    1.9761 H         1 RES1    0.0000
     16 C4         1.3373    5.5589    2.4018 C.3       1 RES1    0.0000
     17 H4         1.0547    4.8668    1.7377 H         1 RES1    0.0000
     18 C5         1.7710    4.8274    3.6751 C.3       1 RES1    0.0000
     19 H5         1.0765    4.1479    3.9137 H         1 RES1    0.0000
     20 C6         3.1148    4.1343    3.5431 C.3       1 RES1    0.0000
     21 H6         3.7881    4.7697    3.1909 H         1 RES1    0.0000
     22 H7         3.4183    3.8174    4.4314 H         1 RES1    0.0000
     23 C7         2.9251    3.1340    1.2858 C.ar      1 RES1    0.0000
     24 C8         2.7438    1.8929    0.6523 C.ar      1 RES1    0.0000
     25 H8         2.6719    1.1072    1.1815 H         1 RES1    0.0000
     26 C9         2.6676    1.7906   -0.7217 C.ar      1 RES1    0.0000
     27 H9         2.5386    0.9495   -1.1457 H         1 RES1    0.0000
     28 C10        2.7863    2.9588   -1.4683 C.ar      1 RES1    0.0000
     29 C11        2.9823    4.1833   -0.8750 C.ar      1 RES1    0.0000
     30 H10        3.0758    4.9583   -1.4173 H         1 RES1    0.0000
     31 C12        3.0455    4.3016    0.5195 C.ar      1 RES1    0.0000
     32 C13        3.3451    5.7106    0.9955 C.2       1 RES1    0.0000
     33 C14        2.7853    7.6526    2.2946 C.3       1 RES1    0.0000
     34 H11        2.0642    7.9729    2.8757 H         1 RES1    0.0000
     35 H12        2.8824    8.2595    1.5327 H         1 RES1    0.0000
     36 H13        3.6247    7.6246    2.7988 H         1 RES1    0.0000
     37 C15       -0.1394    5.2724    5.9969 C.3       1 RES1    0.0000
     38 H14       -0.3923    4.5008    5.4310 H         1 RES1    0.0000
     39 H15        0.4668    4.9396    6.7048 H         1 RES1    0.0000
     40 C16       -1.3814    5.8324    6.6412 C.2       1 RES1    0.0000
     41 C17       -3.4251    5.2539    7.6700 C.3       1 RES1    0.0000
     42 H16       -3.2112    5.6071    8.5578 H         1 RES1    0.0000
     43 H17       -4.0225    4.4822    7.7607 H         1 RES1    0.0000
     44 H18       -3.8680    5.9498    7.1405 H         1 RES1    0.0000
     45 H19        3.6500    7.9318    1.9274 Du        2 SUP2    0.0000
     46 H20        2.8318    7.6452    3.2729 Du        2 SUP2    0.0000
     47 H21        2.0895    8.2800    2.0068 Du        2 SUP2    0.0000
@<TRIPOS>BOND
     1    1   10 1
     2    2   20 1
     3    3   32 2
     4    4    9 2
     5    5    9 2
     6    6   40 2
     7    7   40 1
     8    8   16 1
     9    9   28 1
    10   10   11 1
    11   12   10 1
    12   13   12 1
    13   14   12 2
    14   15   14 1
    15   16   14 1
    16   17   16 1
    17   18    1 1
    18   19   18 1
    19   20   18 1
    20   21   20 1
    21   22   20 1
    22   23    2 1
    23   24   23 ar
    24   25   24 1
    25   26   24 ar
    26   27   26 1
    27   28   26 ar
    28   29   28 ar
    29   30   29 1
    30   31   23 ar
    31   32    8 1
    32   33    8 1
    33   34   33 1
    34   35   33 1
    35   36   33 1
    36   37   10 1
    37   38   37 1
    38   39   37 1
    39   40   37 1
    40   41    7 1
    41   42   41 1
    42   43   41 1
    43   44   41 1
    44   16   18 1
    45   29   31 ar
    46   31   32 1
@<TRIPOS>SUBSTRUCTURE
     1 RES1 1
     2 SUP2 45

@<TRIPOS>CRYSIN
   6.8352    9.3359   25.6298  90.0000  90.0000  90.0000  19 1

