# MOL2 file generated by ConQuest
# Please check atom types

@<TRIPOS>MOLECULE
BIFSAM
    69    66     2
SMALL
NO_CHARGES
****
Generated from CSD

@<TRIPOS>ATOM
      1 O1         5.3255   11.3446    1.0790 O.2       1 RES1    0.0000
      2 O2         4.6491   10.4669   -0.7595 O.2       1 RES1    0.0000
      3 O3         8.0148    4.7442    1.2710 O.2       1 RES1    0.0000
      4 O4         9.7531    6.1063    1.6542 O.3       1 RES1    0.0000
      5 O5        10.7615    6.0636    6.1833 O.2       1 RES1    0.0000
      6 O6         8.6309    7.6442    4.8573 O.2       1 RES1    0.0000
      7 N1         5.3063   10.4515    0.2662 N.pl3     1 RES1    0.0000
      8 C1         6.1480    9.2702    0.5502 C.ar      1 RES1    0.0000
      9 C2         7.1835    9.3806    1.4465 C.ar      1 RES1    0.0000
     10 H1         7.3430   10.1822    1.8896 H         1 RES1    0.0000
     11 C3         7.9840    8.2794    1.6755 C.ar      1 RES1    0.0000
     12 H2         8.7293    8.3210    2.2476 H         1 RES1    0.0000
     13 C4         7.7115    7.0816    1.0320 C.ar      1 RES1    0.0000
     14 C5         6.6422    6.9975    0.1477 C.ar      1 RES1    0.0000
     15 H3         6.4638    6.1909   -0.2836 H         1 RES1    0.0000
     16 C6         5.8606    8.0987   -0.1123 C.ar      1 RES1    0.0000
     17 H4         5.1107    8.0879   -0.7089 H         1 RES1    0.0000
     18 C7         8.4913    5.8469    1.3229 C.2       1 RES1    0.0000
     19 C8        10.5651    4.9389    2.0319 C.3       1 RES1    0.0000
     20 H5        10.3698    4.1730    1.4530 H         1 RES1    0.0000
     21 C9        12.0002    5.3138    1.9509 C.2       1 RES1    0.0000
     22 H6        12.4241    5.5506    1.0950 H         1 RES1    0.0000
     23 C10       12.6017    5.2931    3.1321 C.2       1 RES1    0.0000
     24 C11       11.6429    4.9849    4.2603 C.3       1 RES1    0.0000
     25 C12       10.3488    4.5824    3.4981 C.3       1 RES1    0.0000
     26 H7         9.5816    4.9915    3.8845 H         1 RES1    0.0000
     27 H8        10.2116    3.6035    3.5939 H         1 RES1    0.0000
     28 C13       11.3389    6.2146    5.1266 C.2       1 RES1    0.0000
     29 C14       11.6985    7.6092    4.6760 C.2       1 RES1    0.0000
     30 C15       13.0746    7.8906    4.1021 C.3       1 RES1    0.0000
     31 H9        12.9811    7.9144    3.1264 H         1 RES1    0.0000
     32 C16       14.0969    6.8084    4.4294 C.3       1 RES1    0.0000
     33 H10       13.9369    6.4756    5.3262 H         1 RES1    0.0000
     34 H11       14.9881    7.1903    4.4053 H         1 RES1    0.0000
     35 C17       14.0179    5.6451    3.4365 C.3       1 RES1    0.0000
     36 C18       10.8235    8.5919    4.9160 C.2       1 RES1    0.0000
     37 C19       11.1170   10.0697    4.7177 C.3       1 RES1    0.0000
     38 H12       11.1287   10.4773    5.6084 H         1 RES1    0.0000
     39 C20       12.4858   10.3063    4.1095 C.3       1 RES1    0.0000
     40 H13       12.4106   10.2820    3.1432 H         1 RES1    0.0000
     41 H14       12.7946   11.1902    4.3618 H         1 RES1    0.0000
     42 C21       13.5052    9.2847    4.5486 C.3       1 RES1    0.0000
     43 H15       13.5926    9.3059    5.5143 H         1 RES1    0.0000
     44 H16       14.3692    9.4996    4.1624 H         1 RES1    0.0000
     45 C22       12.1386    3.8490    5.1689 C.3       1 RES1    0.0000
     46 H17       11.4925    3.6884    5.8611 H         1 RES1    0.0000
     47 H18       12.9762    4.0976    5.5649 H         1 RES1    0.0000
     48 H19       12.2548    3.0502    4.6482 H         1 RES1    0.0000
     49 C23       10.0232   10.7776    3.9238 C.3       1 RES1    0.0000
     50 H20       10.2441   11.7075    3.8339 H         1 RES1    0.0000
     51 H21        9.1854   10.6909    4.3856 H         1 RES1    0.0000
     52 H22        9.9516   10.3802    3.0534 H         1 RES1    0.0000
     53 C24        9.4443    8.3100    5.4305 C.2       1 RES1    0.0000
     54 O7         9.2037    8.9750    6.5616 O.3       1 RES1    0.0000
     55 C25        7.8518    8.9342    7.0895 C.3       1 RES1    0.0000
     56 C26        7.5427   10.2043    7.6791 C.3       1 RES1    0.0000
     57 H23       14.5237    4.8855    3.7595 H         1 RES1    0.0000
     58 H24       14.4650    5.8597    2.6519 H         1 RES1    0.0000
     59 H25        7.2246    8.7412    6.3763 H         1 RES1    0.0000
     60 H26        7.7791    8.2344    7.7577 H         1 RES1    0.0000
     61 H27        8.1113   10.3510    8.4386 H         1 RES1    0.0000
     62 H28        6.6253   10.2124    7.9599 H         1 RES1    0.0000
     63 H29        7.6856   10.9004    7.0333 H         1 RES1    0.0000
     64 C27        7.2690   10.2346    7.0909 Du        2 SUP2    0.0000
     65 H30        7.8685    8.5867    7.9949 Du        2 SUP2    0.0000
     66 H31        7.3107    8.3379    6.5490 Du        2 SUP2    0.0000
     67 H32        6.4416   10.2148    7.5766 Du        2 SUP2    0.0000
     68 H33        7.1029   10.5113    6.1868 Du        2 SUP2    0.0000
     69 H34        7.8710   10.8545    7.5092 Du        2 SUP2    0.0000
@<TRIPOS>BOND
     1    1    7 2
     2    2    7 2
     3    3   18 2
     4    4   18 1
     5    5   28 2
     6    6   53 2
     7    7    8 1
     8    8    9 ar
     9    9   10 1
    10   11    9 ar
    11   12   11 1
    12   13   11 ar
    13   14   13 ar
    14   15   14 1
    15   16    8 ar
    16   17   16 1
    17   18   13 1
    18   19    4 1
    19   20   19 1
    20   21   19 1
    21   22   21 1
    22   23   21 2
    23   24   23 1
    24   25   19 1
    25   26   25 1
    26   27   25 1
    27   28   24 1
    28   29   28 1
    29   30   29 1
    30   31   30 1
    31   32   30 1
    32   33   32 1
    33   34   32 1
    34   35   23 1
    35   36   29 2
    36   37   36 1
    37   38   37 1
    38   39   37 1
    39   40   39 1
    40   41   39 1
    41   42   30 1
    42   43   42 1
    43   44   42 1
    44   45   24 1
    45   46   45 1
    46   47   45 1
    47   48   45 1
    48   49   37 1
    49   50   49 1
    50   51   49 1
    51   52   49 1
    52   53   36 1
    53   54   53 1
    54   55   54 1
    55   56   55 1
    56   57   35 1
    57   58   35 1
    58   59   55 1
    59   60   55 1
    60   61   56 1
    61   62   56 1
    62   63   56 1
    63   14   16 ar
    64   24   25 1
    65   32   35 1
    66   39   42 1
@<TRIPOS>SUBSTRUCTURE
     1 RES1 1
     2 SUP2 64

@<TRIPOS>CRYSIN
   8.9470   10.2863   14.9572  70.2580  79.2870  69.1890   2 1

