# MOL2 file generated by ConQuest
# Please check atom types

@<TRIPOS>MOLECULE
BIFZEY
    51    42     2
SMALL
NO_CHARGES
****
Generated from CSD

@<TRIPOS>ATOM
      1 O1        -0.8671   12.5228    9.1987 O.3       1 RES1    0.0000
      2 C1        -1.3549   13.4917   11.2560 C.3       1 RES1    0.0000
      3 H1        -2.0232   13.7103   11.9094 H         1 RES1    0.0000
      4 H2        -0.6953   12.9176   11.6525 H         1 RES1    0.0000
      5 H3        -0.9340   14.2968   10.9464 H         1 RES1    0.0000
      6 C2        -1.9839   12.8038   10.1264 C.3       1 RES1    0.0000
      7 H4        -2.6487   13.3705    9.7048 H         1 RES1    0.0000
      8 H5        -2.4085   11.9818   10.4158 H         1 RES1    0.0000
      9 C3        -0.3587   11.3125    9.1307 C.2       1 RES1    0.0000
     10 C4         0.5637   11.1371    7.9803 C.ar      1 RES1    0.0000
     11 C5         1.2981    9.9801    7.9034 C.ar      1 RES1    0.0000
     12 H6         1.2134    9.3360    8.5693 H         1 RES1    0.0000
     13 C6         2.1600    9.7617    6.8487 C.ar      1 RES1    0.0000
     14 H7         2.6502    8.9722    6.8132 H         1 RES1    0.0000
     15 C7         2.3065   10.6990    5.8452 C.ar      1 RES1    0.0000
     16 C8         1.5830   11.8693    5.9342 C.ar      1 RES1    0.0000
     17 H8         1.6865   12.5219    5.2802 H         1 RES1    0.0000
     18 C9         0.7056   12.0871    6.9806 C.ar      1 RES1    0.0000
     19 H9         0.2099   12.8732    7.0139 H         1 RES1    0.0000
     20 C10        3.4205    9.3624    4.3307 C.2       1 RES1    0.0000
     21 H10        2.9346    8.6622    4.7023 H         1 RES1    0.0000
     22 C11        4.3926    9.0547    3.2791 C.ar      1 RES1    0.0000
     23 C12        4.5801    7.7381    2.9291 C.ar      1 RES1    0.0000
     24 H11        4.0858    7.0660    3.3399 H         1 RES1    0.0000
     25 C13        5.5210    7.4253    1.9499 C.ar      1 RES1    0.0000
     26 C14        6.2664    8.4027    1.2969 C.ar      1 RES1    0.0000
     27 C15        6.0646    9.7503    1.6802 C.ar      1 RES1    0.0000
     28 C16        5.1471   10.0607    2.6496 C.ar      1 RES1    0.0000
     29 H12        5.0218   10.9489    2.8944 H         1 RES1    0.0000
     30 C17        6.8070   11.9965    1.4306 C.3       1 RES1    0.0000
     31 H13        5.9228   12.3427    1.2886 H         1 RES1    0.0000
     32 H14        7.4371   12.5076    0.9180 H         1 RES1    0.0000
     33 H15        7.0283   12.0570    2.3628 H         1 RES1    0.0000
     34 N1         3.2090   10.5359    4.7586 N.2       1 RES1    0.0000
     35 N2         5.7069    6.0221    1.6364 N.pl3     1 RES1    0.0000
     36 O2        -0.5383   10.4715    9.9719 O.2       1 RES1    0.0000
     37 O3         4.9061    5.1970    2.0484 O.2       1 RES1    0.0000
     38 O4         6.6691    5.7631    0.9055 O.2       1 RES1    0.0000
     39 O5         7.1714    8.1878    0.3280 O.3       1 RES1    0.0000
     40 H16        7.1757    7.2810    0.2375 H         1 RES1    0.0000
     41 O6         6.8542   10.6330    1.0190 O.3       1 RES1    0.0000
     42 O7        -1.0952   12.4508    9.0458 Du        2 SUP2    0.0000
     43 C18       -1.2905   13.7109   11.1922 Du        2 SUP2    0.0000
     44 H17       -1.8157   13.7669   11.9938 Du        2 SUP2    0.0000
     45 H18       -0.3782   13.5221   11.4183 Du        2 SUP2    0.0000
     46 H19       -1.3354   14.5519   10.7247 Du        2 SUP2    0.0000
     47 C19       -1.8222   12.6373   10.3268 Du        2 SUP2    0.0000
     48 H20       -2.7495   12.8342   10.1297 Du        2 SUP2    0.0000
     49 H21       -1.7942   11.8065   10.8220 Du        2 SUP2    0.0000
     50 O8         5.1404    5.1948    2.3305 Du        2 SUP2    0.0000
     51 O9         6.4736    5.6287    0.7422 Du        2 SUP2    0.0000
@<TRIPOS>BOND
     1    1    6 1
     2    2    3 1
     3    4    2 1
     4    5    2 1
     5    6    2 1
     6    7    6 1
     7    8    6 1
     8    9    1 1
     9   10    9 1
    10   11   10 ar
    11   12   11 1
    12   13   11 ar
    13   14   13 1
    14   15   13 ar
    15   16   15 ar
    16   17   16 1
    17   18   10 ar
    18   19   18 1
    19   20   21 1
    20   22   20 1
    21   23   22 ar
    22   24   23 1
    23   25   23 ar
    24   26   25 ar
    25   27   26 ar
    26   28   22 ar
    27   29   28 1
    28   30   31 1
    29   32   30 1
    30   33   30 1
    31   34   15 1
    32   35   25 1
    33   36    9 2
    34   37   35 2
    35   38   35 2
    36   39   26 1
    37   40   39 1
    38   41   27 1
    39   16   18 ar
    40   20   34 2
    41   27   28 ar
    42   30   41 1
@<TRIPOS>SUBSTRUCTURE
     1 RES1 1
     2 SUP2 42

@<TRIPOS>CRYSIN
   4.7565   11.3377   15.7590  70.4150  87.2300  85.2380   2 1

