# MOL2 file generated by ConQuest
# Please check atom types

@<TRIPOS>MOLECULE
BIGBAX
   104   112     2
SMALL
NO_CHARGES
****
Generated from CSD

@<TRIPOS>ATOM
      1 C1        11.7445    8.0685    5.1153 C.2       1 RES1    0.0000
      2 C2        12.1827    7.2716    3.9630 C.ar      1 RES1    0.0000
      3 C3        11.4764    7.2944    2.7561 C.ar      1 RES1    0.0000
      4 H1        10.7104    7.8160    2.6791 H         1 RES1    0.0000
      5 C4        11.9048    6.5542    1.6877 C.ar      1 RES1    0.0000
      6 H2        11.4220    6.5620    0.8928 H         1 RES1    0.0000
      7 C5        13.0546    5.7955    1.7903 C.ar      1 RES1    0.0000
      8 H3        13.3502    5.3088    1.0550 H         1 RES1    0.0000
      9 C6        13.7676    5.7501    2.9658 C.ar      1 RES1    0.0000
     10 H4        14.5362    5.2303    3.0275 H         1 RES1    0.0000
     11 C7        13.3320    6.4856    4.0583 C.ar      1 RES1    0.0000
     12 C8        13.4493    6.8115    6.4321 C.3       1 RES1    0.0000
     13 H5        14.2028    6.8845    7.0767 H         1 RES1    0.0000
     14 C9        12.7776    8.1606    6.2506 C.3       1 RES1    0.0000
     15 C10       12.2016    8.8627    7.4885 C.3       1 RES1    0.0000
     16 H6        11.2447    8.6716    7.5778 H         1 RES1    0.0000
     17 C11       12.9327    8.5387    8.7811 C.ar      1 RES1    0.0000
     18 C12       14.2481    8.9424    8.9890 C.ar      1 RES1    0.0000
     19 H7        14.6645    9.4924    8.3652 H         1 RES1    0.0000
     20 C13       14.9426    8.5344   10.1132 C.ar      1 RES1    0.0000
     21 H8        15.8211    8.8067   10.2517 H         1 RES1    0.0000
     22 C14       14.3115    7.7199   11.0217 C.ar      1 RES1    0.0000
     23 C15       13.0017    7.3189   10.8634 C.ar      1 RES1    0.0000
     24 H9        12.5915    6.7720   11.4939 H         1 RES1    0.0000
     25 C16       12.3118    7.7506    9.7425 C.ar      1 RES1    0.0000
     26 H10       11.4204    7.5096    9.6318 H         1 RES1    0.0000
     27 C17       12.4815    5.7389    6.8822 C.3       1 RES1    0.0000
     28 H11       11.7761    5.6531    6.2368 H         1 RES1    0.0000
     29 H12       12.1090    5.9808    7.7333 H         1 RES1    0.0000
     30 H13       12.9457    4.9024    6.9622 H         1 RES1    0.0000
     31 C18       12.4182   10.2929    7.0260 C.2       1 RES1    0.0000
     32 C19       11.6681   11.4550    7.5007 C.ar      1 RES1    0.0000
     33 C20       10.8812   11.3880    8.6408 C.ar      1 RES1    0.0000
     34 H14       10.8533   10.6019    9.1370 H         1 RES1    0.0000
     35 C21       10.1365   12.4831    9.0455 C.ar      1 RES1    0.0000
     36 H15        9.6168   12.4228    9.8145 H         1 RES1    0.0000
     37 C22       10.1519   13.6626    8.3287 C.ar      1 RES1    0.0000
     38 C23       10.9142   13.7173    7.1798 C.ar      1 RES1    0.0000
     39 H16       10.9203   14.4985    6.6754 H         1 RES1    0.0000
     40 C24       11.6617   12.6458    6.7654 C.ar      1 RES1    0.0000
     41 H17       12.1693   12.7108    5.9889 H         1 RES1    0.0000
     42 C25        9.3273   14.8522    8.7826 C.3       1 RES1    0.0000
     43 H18        8.7687   15.1483    8.0604 H         1 RES1    0.0000
     44 H19        9.9137   15.5649    9.0468 H         1 RES1    0.0000
     45 H20        8.7791   14.5958    9.5275 H         1 RES1    0.0000
     46 N1        13.3145   10.4064    6.1146 N.2       1 RES1    0.0000
     47 N2        15.0652    7.2517   12.1989 N.pl3     1 RES1    0.0000
     48 O1        10.6774    8.6453    5.1686 O.2       1 RES1    0.0000
     49 O2        14.0887    6.4180    5.1922 O.3       1 RES1    0.0000
     50 O3        13.7757    9.1062    5.7597 O.3       1 RES1    0.0000
     51 O4        14.6253    6.3015   12.8293 O.2       1 RES1    0.0000
     52 O5        16.1119    7.8227   12.4673 O.2       1 RES1    0.0000
     53 C26        9.3908   11.2387    0.3043 C.2       2 RES2    0.0000
     54 C27        9.0513    9.9850   -0.3746 C.ar      2 RES2    0.0000
     55 C28        7.7505    9.7427   -0.8330 C.ar      2 RES2    0.0000
     56 H21        7.0965   10.3975   -0.7410 H         2 RES2    0.0000
     57 C29        7.4385    8.5362   -1.4205 C.ar      2 RES2    0.0000
     58 H22        6.5685    8.3668   -1.7040 H         2 RES2    0.0000
     59 C30        8.4197    7.5785   -1.5871 C.ar      2 RES2    0.0000
     60 H23        8.2038    6.7696   -1.9917 H         2 RES2    0.0000
     61 C31        9.7053    7.7965   -1.1684 C.ar      2 RES2    0.0000
     62 H24       10.3595    7.1500   -1.3050 H         2 RES2    0.0000
     63 C32       10.0224    8.9962   -0.5358 C.ar      2 RES2    0.0000
     64 C33       11.7578   10.4525    0.2523 C.3       2 RES2    0.0000
     65 H25       12.5488   10.2877    0.7986 H         2 RES2    0.0000
     66 C34       10.7225   11.2054    1.0603 C.3       2 RES2    0.0000
     67 C35       11.1316   12.5788    1.5930 C.3       2 RES2    0.0000
     68 H26       10.8773   13.2859    0.9639 H         2 RES2    0.0000
     69 C36       12.5947   12.7153    1.9981 C.ar      2 RES2    0.0000
     70 C37       13.1004   11.9925    3.0782 C.ar      2 RES2    0.0000
     71 H27       12.5493   11.3944    3.5293 H         2 RES2    0.0000
     72 C38       14.4076   12.1540    3.4853 C.ar      2 RES2    0.0000
     73 H28       14.7444   11.6758    4.2084 H         2 RES2    0.0000
     74 C39       15.2003   13.0396    2.7958 C.ar      2 RES2    0.0000
     75 C40       14.7444   13.7632    1.7168 C.ar      2 RES2    0.0000
     76 H29       15.3069   14.3488    1.2633 H         2 RES2    0.0000
     77 C41       13.4307   13.5973    1.3253 C.ar      2 RES2    0.0000
     78 H30       13.1017   14.0817    0.6026 H         2 RES2    0.0000
     79 C42       12.1235   11.2078   -1.0161 C.3       2 RES2    0.0000
     80 H31       12.7995   10.7220   -1.4942 H         2 RES2    0.0000
     81 H32       12.4574   12.0778   -0.7854 H         2 RES2    0.0000
     82 H33       11.3444   11.3003   -1.5693 H         2 RES2    0.0000
     83 C43       10.2459   12.6074    2.8209 C.2       2 RES2    0.0000
     84 C44        9.8365   13.8251    3.5288 C.ar      2 RES2    0.0000
     85 C45       10.5534   15.0133    3.4006 C.ar      2 RES2    0.0000
     86 H34       11.3111   15.0366    2.8619 H         2 RES2    0.0000
     87 C46       10.1534   16.1543    4.0625 C.ar      2 RES2    0.0000
     88 H35       10.6543   16.9327    3.9724 H         2 RES2    0.0000
     89 C47        9.0245   16.1647    4.8563 C.ar      2 RES2    0.0000
     90 C48        8.2952   14.9880    4.9536 C.ar      2 RES2    0.0000
     91 H36        7.5207   14.9763    5.4683 H         2 RES2    0.0000
     92 C49        8.6888   13.8365    4.3075 C.ar      2 RES2    0.0000
     93 H37        8.1817   13.0617    4.3943 H         2 RES2    0.0000
     94 C50        8.5971   17.4118    5.5902 C.3       2 RES2    0.0000
     95 H38        8.9651   17.4035    6.4767 H         2 RES2    0.0000
     96 H39        7.6387   17.4400    5.6420 H         2 RES2    0.0000
     97 H40        8.9148   18.1853    5.1188 H         2 RES2    0.0000
     98 N3         9.8762   11.4406    3.2141 N.2       2 RES2    0.0000
     99 N4        16.5836   13.2260    3.2453 N.pl3     2 RES2    0.0000
    100 O6         8.6476   12.2013    0.3597 O.2       2 RES2    0.0000
    101 O7        11.2949    9.1254   -0.0921 O.3       2 RES2    0.0000
    102 O8        10.3759   10.4697    2.2770 O.3       2 RES2    0.0000
    103 O9        16.9525   12.6667    4.2470 O.2       2 RES2    0.0000
    104 O10       17.3009   13.9152    2.5876 O.2       2 RES2    0.0000
@<TRIPOS>BOND
     1    1    2 1
     2    2    3 ar
     3    3    4 1
     4    5    3 ar
     5    6    5 1
     6    7    5 ar
     7    8    7 1
     8    9    7 ar
     9   10    9 1
    10   11    2 ar
    11   12   13 1
    12   14    1 1
    13   15   14 1
    14   16   15 1
    15   17   15 1
    16   18   17 ar
    17   19   18 1
    18   20   18 ar
    19   21   20 1
    20   22   20 ar
    21   23   22 ar
    22   24   23 1
    23   25   17 ar
    24   26   25 1
    25   27   12 1
    26   28   27 1
    27   29   27 1
    28   30   27 1
    29   31   15 1
    30   32   31 1
    31   33   32 ar
    32   34   33 1
    33   35   33 ar
    34   36   35 1
    35   37   35 ar
    36   38   37 ar
    37   39   38 1
    38   40   32 ar
    39   41   40 1
    40   42   37 1
    41   43   42 1
    42   44   42 1
    43   45   42 1
    44   46   31 2
    45   47   22 1
    46   48    1 2
    47   49   11 1
    48   50   14 1
    49   51   47 2
    50   52   47 2
    51   53   54 1
    52   54   55 ar
    53   55   56 1
    54   57   55 ar
    55   58   57 1
    56   59   57 ar
    57   60   59 1
    58   61   59 ar
    59   62   61 1
    60   63   54 ar
    61   64   65 1
    62   66   53 1
    63   67   66 1
    64   68   67 1
    65   69   67 1
    66   70   69 ar
    67   71   70 1
    68   72   70 ar
    69   73   72 1
    70   74   72 ar
    71   75   74 ar
    72   76   75 1
    73   77   69 ar
    74   78   77 1
    75   79   64 1
    76   80   79 1
    77   81   79 1
    78   82   79 1
    79   83   67 1
    80   84   83 1
    81   85   84 ar
    82   86   85 1
    83   87   85 ar
    84   88   87 1
    85   89   87 ar
    86   90   89 ar
    87   91   90 1
    88   92   84 ar
    89   93   92 1
    90   94   89 1
    91   95   94 1
    92   96   94 1
    93   97   94 1
    94   98   83 2
    95   99   74 1
    96  100   53 2
    97  101   63 1
    98  102   66 1
    99  103   99 2
   100  104   99 2
   101    9   11 ar
   102   12   14 1
   103   12   49 1
   104   23   25 ar
   105   38   40 ar
   106   46   50 1
   107   61   63 ar
   108   64   66 1
   109   64  101 1
   110   75   77 ar
   111   90   92 ar
   112   98  102 1
@<TRIPOS>SUBSTRUCTURE
     1 RES1 1
     2 RES2 53

@<TRIPOS>CRYSIN
  11.5219   14.2321   14.7033  72.2010  73.4690  73.6470   2 1

