# MOL2 file generated by ConQuest
# Please check atom types

@<TRIPOS>MOLECULE
BIGNIR
   235   224     5
SMALL
NO_CHARGES
****
Generated from CSD

@<TRIPOS>ATOM
      1 C1       -17.1742  -11.8984    0.1370 C.3       1 RES1    0.0000
      2 H1       -16.2210  -12.1569    0.2045 H         1 RES1    0.0000
      3 H2       -17.7095  -12.6410    0.5140 H         1 RES1    0.0000
      4 C2       -17.3997  -10.6506    1.0031 C.3       1 RES1    0.0000
      5 H3       -16.5528  -10.1389    1.0173 H         1 RES1    0.0000
      6 H4       -17.5729  -10.9545    1.9280 H         1 RES1    0.0000
      7 C3       -18.5517   -9.6558    0.6029 C.3       1 RES1    0.0000
      8 H5       -18.5828   -8.9248    1.2699 H         1 RES1    0.0000
      9 H6       -18.3321   -9.2527   -0.2739 H         1 RES1    0.0000
     10 C4       -19.9546  -10.3017    0.5140 C.3       1 RES1    0.0000
     11 C5       -19.9576  -11.4998   -0.4642 C.3       1 RES1    0.0000
     12 H7       -19.6738  -12.3010    0.0623 H         1 RES1    0.0000
     13 C6       -21.2631  -11.8823   -1.1828 C.3       1 RES1    0.0000
     14 H8       -21.9319  -12.2336   -0.5425 H         1 RES1    0.0000
     15 H9       -21.6489  -11.1052   -1.6594 H         1 RES1    0.0000
     16 C7       -20.8196  -12.9694   -2.1699 C.3       1 RES1    0.0000
     17 H10      -21.4719  -13.0723   -2.9080 H         1 RES1    0.0000
     18 H11      -20.7030  -13.8405   -1.7145 H         1 RES1    0.0000
     19 C8       -19.4492  -12.4146   -2.6963 C.3       1 RES1    0.0000
     20 C9       -18.9796  -11.3858   -1.6630 C.3       1 RES1    0.0000
     21 H12      -19.0199  -10.4650   -2.0525 H         1 RES1    0.0000
     22 C10      -17.5257  -11.7553   -1.3322 C.3       1 RES1    0.0000
     23 C11      -17.3193  -13.1085   -2.0347 C.2       1 RES1    0.0000
     24 O1       -18.4490  -13.4935   -2.6768 O.3       1 RES1    0.0000
     25 O2       -16.6067  -10.7102   -1.7946 O.3       1 RES1    0.0000
     26 C12      -16.2065  -10.6808   -3.0841 C.2       1 RES1    0.0000
     27 C13      -15.3936   -9.4646   -3.3775 C.ar      1 RES1    0.0000
     28 C14      -14.7212   -9.4253   -4.6065 C.ar      1 RES1    0.0000
     29 H13      -14.7721  -10.1629   -5.2023 H         1 RES1    0.0000
     30 C15      -13.9789   -8.2973   -4.9480 C.ar      1 RES1    0.0000
     31 H14      -13.5089   -8.2551   -5.7715 H         1 RES1    0.0000
     32 C16      -13.9419   -7.2497   -4.0623 C.ar      1 RES1    0.0000
     33 N1       -13.2165   -6.0125   -4.4696 N.pl3     1 RES1    0.0000
     34 O3       -12.5754   -6.0460   -5.5118 O.2       1 RES1    0.0000
     35 O4       -13.3426   -5.0142   -3.7421 O.2       1 RES1    0.0000
     36 C17      -14.6001   -7.2584   -2.8582 C.ar      1 RES1    0.0000
     37 H15      -14.5629   -6.5027   -2.2855 H         1 RES1    0.0000
     38 C18      -15.3180   -8.3814   -2.4900 C.ar      1 RES1    0.0000
     39 H16      -15.7557   -8.4184   -1.6487 H         1 RES1    0.0000
     40 C19      -20.8013   -9.1121   -0.0818 C.3       1 RES1    0.0000
     41 H17      -21.7532   -9.3452   -0.0587 H         1 RES1    0.0000
     42 H18      -20.5277   -8.9477   -1.0085 H         1 RES1    0.0000
     43 H19      -20.6498   -8.3037    0.4518 H         1 RES1    0.0000
     44 C20      -20.6013  -10.6935    1.7857 C.3       1 RES1    0.0000
     45 H20      -20.5006   -9.9705    2.4384 H         1 RES1    0.0000
     46 H21      -20.1772  -11.5067    2.1307 H         1 RES1    0.0000
     47 H22      -21.5536  -10.8620    1.6292 H         1 RES1    0.0000
     48 C21      -19.5836  -11.9188   -4.1316 C.3       1 RES1    0.0000
     49 H23      -19.7524  -12.6798   -4.7257 H         1 RES1    0.0000
     50 H24      -18.7544  -11.4709   -4.4020 H         1 RES1    0.0000
     51 H25      -20.3306  -11.2869   -4.1903 H         1 RES1    0.0000
     52 O5       -16.3542  -13.8097   -1.9262 O.2       1 RES1    0.0000
     53 O6       -16.4675  -11.5408   -3.8986 O.2       1 RES1    0.0000
     54 H26      -16.7415  -10.6421    1.7412 Du        5 SUP5    0.0000
     55 H27      -17.2524   -9.8408    0.4535 Du        5 SUP5    0.0000
     56 C22      -18.7536  -10.6173    1.5616 Du        5 SUP5    0.0000
     57 H28      -18.7814   -9.9323    2.2748 Du        5 SUP5    0.0000
     58 H29      -18.9388  -11.4934    1.9849 Du        5 SUP5    0.0000
     59 C23       -6.2196   -1.2641   -7.5607 C.3       2 RES2    0.0000
     60 H30       -7.1926   -1.1835   -7.7208 H         2 RES2    0.0000
     61 H31       -5.7642   -0.6112   -8.1494 H         2 RES2    0.0000
     62 C24       -5.9285   -0.8885   -6.0916 C.3       2 RES2    0.0000
     63 H32       -5.8799    0.0989   -6.0400 H         2 RES2    0.0000
     64 H33       -6.7114   -1.1670   -5.5527 H         2 RES2    0.0000
     65 C25       -4.6886   -1.4430   -5.4158 C.3       2 RES2    0.0000
     66 H34       -4.8227   -2.4156   -5.2877 H         2 RES2    0.0000
     67 H35       -4.6278   -1.0361   -4.5158 H         2 RES2    0.0000
     68 C26       -3.3366   -1.2427   -6.1130 C.3       2 RES2    0.0000
     69 C27       -3.3860   -1.7457   -7.5767 C.3       2 RES2    0.0000
     70 H36       -3.7793   -0.9991   -8.1139 H         2 RES2    0.0000
     71 C28       -2.0951   -2.1487   -8.2899 C.3       2 RES2    0.0000
     72 H37       -1.5022   -1.3676   -8.4305 H         2 RES2    0.0000
     73 H38       -1.6047   -2.8428   -7.7813 H         2 RES2    0.0000
     74 C29       -2.6143   -2.6964   -9.6168 C.3       2 RES2    0.0000
     75 H39       -1.9341   -3.2613  -10.0614 H         2 RES2    0.0000
     76 H40       -2.8767   -1.9637  -10.2286 H         2 RES2    0.0000
     77 C30       -3.8342   -3.5274   -9.1935 C.3       2 RES2    0.0000
     78 C31       -4.2916   -2.9737   -7.8168 C.3       2 RES2    0.0000
     79 H41       -4.1449   -3.6574   -7.1036 H         2 RES2    0.0000
     80 C32       -5.7761   -2.6635   -7.9520 C.3       2 RES2    0.0000
     81 C33       -6.0785   -2.8619   -9.4620 C.2       2 RES2    0.0000
     82 O7        -4.9552   -3.2412  -10.1165 O.3       2 RES2    0.0000
     83 O8        -6.6217   -3.5418   -7.1410 O.3       2 RES2    0.0000
     84 C34       -6.9684   -4.7470   -7.6034 C.2       2 RES2    0.0000
     85 C35       -7.8637   -5.4772   -6.6448 C.ar      2 RES2    0.0000
     86 C36       -8.2816   -6.7566   -7.0058 C.ar      2 RES2    0.0000
     87 H42       -8.0046   -7.1235   -7.8382 H         2 RES2    0.0000
     88 C37       -9.0876   -7.4888   -6.1770 C.ar      2 RES2    0.0000
     89 H43       -9.3557   -8.3706   -6.4082 H         2 RES2    0.0000
     90 C38       -9.4980   -6.9113   -4.9978 C.ar      2 RES2    0.0000
     91 N2       -10.3417   -7.6739   -4.0676 N.pl3     2 RES2    0.0000
     92 O9       -10.6901   -8.8277   -4.4073 O.2       2 RES2    0.0000
     93 O10      -10.6875   -7.1681   -3.0254 O.2       2 RES2    0.0000
     94 C39       -9.1197   -5.6623   -4.6190 C.ar      2 RES2    0.0000
     95 H44       -9.4309   -5.2952   -3.7990 H         2 RES2    0.0000
     96 C40       -8.2708   -4.9288   -5.4442 C.ar      2 RES2    0.0000
     97 H45       -7.9751   -4.0639   -5.1846 H         2 RES2    0.0000
     98 C41       -2.3475   -2.1066   -5.2628 C.3       2 RES2    0.0000
     99 H46       -1.4369   -1.7613   -5.3695 H         2 RES2    0.0000
    100 H47       -2.3820   -3.0379   -5.5687 H         2 RES2    0.0000
    101 H48       -2.6058   -2.0632   -4.3184 H         2 RES2    0.0000
    102 C42       -2.8072    0.1498   -6.0561 C.3       2 RES2    0.0000
    103 H49       -3.3678    0.7365   -6.6056 H         2 RES2    0.0000
    104 H50       -1.8886    0.1650   -6.3958 H         2 RES2    0.0000
    105 H51       -2.8176    0.4645   -5.1276 H         2 RES2    0.0000
    106 C43       -3.5542   -5.0191   -9.2095 C.3       2 RES2    0.0000
    107 H52       -3.4375   -5.3201  -10.1343 H         2 RES2    0.0000
    108 H53       -4.3075   -5.4966   -8.8022 H         2 RES2    0.0000
    109 H54       -2.7382   -5.2040   -8.6990 H         2 RES2    0.0000
    110 O11       -7.1073   -2.6258  -10.0027 O.2       2 RES2    0.0000
    111 O12       -6.6210   -5.1950   -8.6652 O.2       2 RES2    0.0000
    112 C44        1.3530  -12.4732  -10.1503 C.3       3 RES3    0.0000
    113 H55        0.3861  -12.6235  -10.0009 H         3 RES3    0.0000
    114 H56        1.8468  -13.0584   -9.5225 H         3 RES3    0.0000
    115 C45        1.6969  -12.9013  -11.5910 C.3       3 RES3    0.0000
    116 H57        0.8708  -12.8254  -12.1299 H         3 RES3    0.0000
    117 H58        1.9406  -13.8612  -11.5679 H         3 RES3    0.0000
    118 C46        2.8234  -12.1484  -12.3469 C.3       3 RES3    0.0000
    119 H59        2.5721  -11.1944  -12.4269 H         3 RES3    0.0000
    120 H60        2.8944  -12.5180  -13.2628 H         3 RES3    0.0000
    121 C47        4.2544  -12.2504  -11.6354 C.3       3 RES3    0.0000
    122 C48        4.1391  -11.8006  -10.1806 C.3       3 RES3    0.0000
    123 H61        3.7734  -12.5823   -9.6755 H         3 RES3    0.0000
    124 C49        5.3779  -11.3395   -9.4193 C.3       3 RES3    0.0000
    125 H62        5.8340  -10.5941   -9.8853 H         3 RES3    0.0000
    126 H63        6.0182  -12.0822   -9.2842 H         3 RES3    0.0000
    127 C50        4.7578  -10.8755   -8.0783 C.3       3 RES3    0.0000
    128 H64        4.4770  -11.6470   -7.5252 H         3 RES3    0.0000
    129 H65        5.3920  -10.3173   -7.5625 H         3 RES3    0.0000
    130 C51        3.5426  -10.0533   -8.5514 C.3       3 RES3    0.0000
    131 C52        3.1597  -10.6235   -9.9280 C.3       3 RES3    0.0000
    132 H66        3.2740   -9.9248  -10.6341 H         3 RES3    0.0000
    133 C53        1.6732  -11.0291   -9.8177 C.3       3 RES3    0.0000
    134 C54        1.3114  -10.7025   -8.3611 C.2       3 RES3    0.0000
    135 O13        2.3913  -10.2948   -7.6799 O.3       3 RES3    0.0000
    136 O14        0.8403  -10.2920  -10.7800 O.3       3 RES3    0.0000
    137 C55        0.4784   -9.0300  -10.5256 C.2       3 RES3    0.0000
    138 C56       -0.3423   -8.4604  -11.6230 C.ar      3 RES3    0.0000
    139 C57       -0.9951   -7.2392  -11.3882 C.ar      3 RES3    0.0000
    140 H67       -0.9314   -6.8178  -10.5381 H         3 RES3    0.0000
    141 C58       -1.7348   -6.6531  -12.4056 C.ar      3 RES3    0.0000
    142 H68       -2.2074   -5.8425  -12.2580 H         3 RES3    0.0000
    143 C59       -1.7658   -7.2683  -13.6221 C.ar      3 RES3    0.0000
    144 N3        -2.4800   -6.5863  -14.7266 N.pl3     3 RES3    0.0000
    145 O15       -3.1400   -5.5795  -14.4403 O.2       3 RES3    0.0000
    146 O16       -2.3809   -7.0401  -15.8578 O.2       3 RES3    0.0000
    147 C60       -1.1377   -8.4466  -13.8889 C.ar      3 RES3    0.0000
    148 H69       -1.1866   -8.8362  -14.7551 H         3 RES3    0.0000
    149 C61       -0.4207   -9.0669  -12.8698 C.ar      3 RES3    0.0000
    150 H70        0.0108   -9.8993  -13.0245 H         3 RES3    0.0000
    151 C62        5.1372  -11.2457  -12.4732 C.3       3 RES3    0.0000
    152 H71        4.8075  -10.3321  -12.3398 H         3 RES3    0.0000
    153 H72        5.0836  -11.4765  -13.4229 H         3 RES3    0.0000
    154 H73        6.0691  -11.3025  -12.1761 H         3 RES3    0.0000
    155 C63        4.7916  -13.6494  -11.7955 C.3       3 RES3    0.0000
    156 H74        4.8871  -13.8555  -12.7488 H         3 RES3    0.0000
    157 H75        4.1706  -14.2858  -11.3847 H         3 RES3    0.0000
    158 H76        5.6652  -13.7155  -11.3562 H         3 RES3    0.0000
    159 C64        3.8343   -8.5686   -8.5265 C.3       3 RES3    0.0000
    160 H77        3.9948   -8.2826   -7.6034 H         3 RES3    0.0000
    161 H78        3.0677   -8.0794   -8.8929 H         3 RES3    0.0000
    162 H79        4.6288   -8.3832   -9.0690 H         3 RES3    0.0000
    163 O17        0.2351  -10.8489   -7.8649 O.2       3 RES3    0.0000
    164 O18        0.8048   -8.4277   -9.5261 O.2       3 RES3    0.0000
    165 H80        1.5188  -12.1453  -12.2046 Du        5 SUP5    0.0000
    166 H81        1.1070  -13.6512  -11.8542 Du        5 SUP5    0.0000
    167 C65        3.1845  -13.3436  -11.7439 Du        5 SUP5    0.0000
    168 H82        3.3747  -14.0270  -11.0539 Du        5 SUP5    0.0000
    169 H83        3.2841  -13.7836  -12.6261 Du        5 SUP5    0.0000
    170 C66        4.2500  -11.2483  -12.6457 Du        5 SUP5    0.0000
    171 H84        3.3753  -10.8086  -12.6652 Du        5 SUP5    0.0000
    172 H85        4.4295  -11.6611  -13.5154 Du        5 SUP5    0.0000
    173 H86        4.9445  -10.5849  -12.4500 Du        5 SUP5    0.0000
    174 C67        5.6550  -13.0257  -11.6852 Du        5 SUP5    0.0000
    175 H87        5.8033  -13.3777  -12.5888 Du        5 SUP5    0.0000
    176 H88        5.6433  -13.7671  -11.0450 Du        5 SUP5    0.0000
    177 H89        6.3813  -12.4066  -11.4558 Du        5 SUP5    0.0000
    178 C68       -9.4508   -1.8926  -17.6630 C.3       4 RES4    0.0000
    179 H90       -8.4888   -1.6605  -17.6257 H         4 RES4    0.0000
    180 H91       -9.9258   -1.1302  -18.0775 H         4 RES4    0.0000
    181 C69       -9.6230   -3.1450  -18.5843 C.3       4 RES4    0.0000
    182 H92       -9.7091   -2.8258  -19.5181 H         4 RES4    0.0000
    183 H93       -8.7909   -3.6783  -18.5328 H         4 RES4    0.0000
    184 C70      -10.8178   -4.0929  -18.2909 C.3       4 RES4    0.0000
    185 H94      -10.7916   -4.8294  -18.9525 H         4 RES4    0.0000
    186 H95      -10.6735   -4.4962  -17.3980 H         4 RES4    0.0000
    187 C71      -12.2433   -3.4820  -18.3140 C.3       4 RES4    0.0000
    188 C72      -12.2893   -2.2765  -17.3696 C.3       4 RES4    0.0000
    189 H96      -11.9167   -1.5003  -17.8783 H         4 RES4    0.0000
    190 C73      -13.6396   -1.8324  -16.8218 C.3       4 RES4    0.0000
    191 H97      -14.1158   -2.5828  -16.3860 H         4 RES4    0.0000
    192 H98      -14.2108   -1.4525  -17.5350 H         4 RES4    0.0000
    193 C74      -13.2338   -0.7623  -15.8027 C.3       4 RES4    0.0000
    194 H99      -12.9943    0.0855  -16.2544 H         4 RES4    0.0000
    195 H100     -13.9669   -0.5894  -15.1606 H         4 RES4    0.0000
    196 C75      -12.0195   -1.3679  -15.0966 C.3       4 RES4    0.0000
    197 C76      -11.4422   -2.4100  -16.0748 C.3       4 RES4    0.0000
    198 H101     -11.5398   -3.3292  -15.6942 H         4 RES4    0.0000
    199 C77       -9.9598   -2.0636  -16.2437 C.3       4 RES4    0.0000
    200 C78       -9.7880   -0.7375  -15.4772 C.2       4 RES4    0.0000
    201 O19      -10.9649   -0.3477  -14.9561 O.3       4 RES4    0.0000
    202 O20       -9.0570   -3.0990  -15.7066 O.3       4 RES4    0.0000
    203 C79       -8.8025   -3.1247  -14.3922 C.2       4 RES4    0.0000
    204 C80       -7.8124   -4.2020  -14.0508 C.ar      4 RES4    0.0000
    205 C81       -7.3340   -4.2140  -12.7364 C.ar      4 RES4    0.0000
    206 H102      -7.6036   -3.5382  -12.1246 H         4 RES4    0.0000
    207 C82       -6.4593   -5.2199  -12.3291 C.ar      4 RES4    0.0000
    208 H103      -6.1277   -5.2522  -11.4398 H         4 RES4    0.0000
    209 C83       -6.0929   -6.1682  -13.2646 C.ar      4 RES4    0.0000
    210 N4        -5.2133   -7.2811  -12.8378 N.pl3     4 RES4    0.0000
    211 O21       -4.8516   -7.3155  -11.6621 O.2       4 RES4    0.0000
    212 O22       -4.8782   -8.1117  -13.6897 O.2       4 RES4    0.0000
    213 C84       -6.5253   -6.1659  -14.5719 C.ar      4 RES4    0.0000
    214 H104      -6.2407   -6.8335  -15.1837 H         4 RES4    0.0000
    215 C85       -7.3936   -5.1479  -14.9667 C.ar      4 RES4    0.0000
    216 H105      -7.6973   -5.1058  -15.8649 H         4 RES4    0.0000
    217 C86      -13.0506   -4.6745  -17.7111 C.3       4 RES4    0.0000
    218 H106     -12.8607   -4.7477  -16.7524 H         4 RES4    0.0000
    219 H107     -12.7884   -5.5063  -18.1593 H         4 RES4    0.0000
    220 H108     -14.0088   -4.5204  -17.8427 H         4 RES4    0.0000
    221 C87      -12.9168   -3.1700  -19.5661 C.3       4 RES4    0.0000
    222 H109     -13.0111   -3.9880  -20.0997 H         4 RES4    0.0000
    223 H110     -12.3892   -2.5130  -20.0659 H         4 RES4    0.0000
    224 H111     -13.8042   -2.7994  -19.3776 H         4 RES4    0.0000
    225 C88      -12.3781   -1.9120  -13.7199 C.3       4 RES4    0.0000
    226 H112     -12.6850   -1.1781  -13.1472 H         4 RES4    0.0000
    227 H113     -11.5891   -2.3319  -13.3180 H         4 RES4    0.0000
    228 H114     -13.0922   -2.5772  -13.8071 H         4 RES4    0.0000
    229 O23       -8.8072   -0.0715  -15.4434 O.2       4 RES4    0.0000
    230 O24       -9.2905   -2.3907  -13.5777 O.2       4 RES4    0.0000
    231 H115      -8.8873   -3.1478  -19.2478 Du        5 SUP5    0.0000
    232 H116      -9.5238   -3.9576  -18.0277 Du        5 SUP5    0.0000
    233 C89      -10.8816   -3.2345  -19.3011 Du        5 SUP5    0.0000
    234 H117     -10.8245   -3.9794  -19.9521 Du        5 SUP5    0.0000
    235 H118     -11.0138   -2.3980  -19.8151 Du        5 SUP5    0.0000
@<TRIPOS>BOND
     1    1    2 1
     2    3    1 1
     3    4    1 1
     4    5    4 1
     5    6    4 1
     6    7    4 1
     7    8    7 1
     8    9    7 1
     9   10    7 1
    10   11   10 1
    11   12   11 1
    12   13   11 1
    13   14   13 1
    14   15   13 1
    15   16   13 1
    16   17   16 1
    17   18   16 1
    18   19   16 1
    19   20   11 1
    20   21   20 1
    21   22    1 1
    22   23   22 1
    23   24   19 1
    24   25   22 1
    25   26   25 1
    26   27   26 1
    27   28   27 ar
    28   29   28 1
    29   30   28 ar
    30   31   30 1
    31   32   30 ar
    32   33   32 1
    33   34   33 2
    34   35   33 2
    35   36   32 ar
    36   37   36 1
    37   38   27 ar
    38   39   38 1
    39   40   10 1
    40   41   40 1
    41   42   40 1
    42   43   40 1
    43   44   10 1
    44   45   44 1
    45   46   44 1
    46   47   44 1
    47   48   19 1
    48   49   48 1
    49   50   48 1
    50   51   48 1
    51   52   23 2
    52   53   26 2
    53   59   60 1
    54   61   59 1
    55   62   59 1
    56   63   62 1
    57   64   62 1
    58   65   62 1
    59   66   65 1
    60   67   65 1
    61   68   65 1
    62   69   68 1
    63   70   69 1
    64   71   69 1
    65   72   71 1
    66   73   71 1
    67   74   71 1
    68   75   74 1
    69   76   74 1
    70   77   74 1
    71   78   69 1
    72   79   78 1
    73   80   59 1
    74   81   80 1
    75   82   77 1
    76   83   80 1
    77   84   83 1
    78   85   84 1
    79   86   85 ar
    80   87   86 1
    81   88   86 ar
    82   89   88 1
    83   90   88 ar
    84   91   90 1
    85   92   91 2
    86   93   91 2
    87   94   90 ar
    88   95   94 1
    89   96   85 ar
    90   97   96 1
    91   98   68 1
    92   99   98 1
    93  100   98 1
    94  101   98 1
    95  102   68 1
    96  103  102 1
    97  104  102 1
    98  105  102 1
    99  106   77 1
   100  107  106 1
   101  108  106 1
   102  109  106 1
   103  110   81 2
   104  111   84 2
   105  112  113 1
   106  114  112 1
   107  115  112 1
   108  116  115 1
   109  117  115 1
   110  118  115 1
   111  119  118 1
   112  120  118 1
   113  121  118 1
   114  122  121 1
   115  123  122 1
   116  124  122 1
   117  125  124 1
   118  126  124 1
   119  127  124 1
   120  128  127 1
   121  129  127 1
   122  130  127 1
   123  131  122 1
   124  132  131 1
   125  133  112 1
   126  134  133 1
   127  135  130 1
   128  136  133 1
   129  137  136 1
   130  138  137 1
   131  139  138 ar
   132  140  139 1
   133  141  139 ar
   134  142  141 1
   135  143  141 ar
   136  144  143 1
   137  145  144 2
   138  146  144 2
   139  147  143 ar
   140  148  147 1
   141  149  138 ar
   142  150  149 1
   143  151  121 1
   144  152  151 1
   145  153  151 1
   146  154  151 1
   147  155  121 1
   148  156  155 1
   149  157  155 1
   150  158  155 1
   151  159  130 1
   152  160  159 1
   153  161  159 1
   154  162  159 1
   155  163  134 2
   156  164  137 2
   157  178  179 1
   158  180  178 1
   159  181  178 1
   160  182  181 1
   161  183  181 1
   162  184  181 1
   163  185  184 1
   164  186  184 1
   165  187  184 1
   166  188  187 1
   167  189  188 1
   168  190  188 1
   169  191  190 1
   170  192  190 1
   171  193  190 1
   172  194  193 1
   173  195  193 1
   174  196  193 1
   175  197  188 1
   176  198  197 1
   177  199  178 1
   178  200  199 1
   179  201  196 1
   180  202  199 1
   181  203  202 1
   182  204  203 1
   183  205  204 ar
   184  206  205 1
   185  207  205 ar
   186  208  207 1
   187  209  207 ar
   188  210  209 1
   189  211  210 2
   190  212  210 2
   191  213  209 ar
   192  214  213 1
   193  215  204 ar
   194  216  215 1
   195  217  187 1
   196  218  217 1
   197  219  217 1
   198  220  217 1
   199  221  187 1
   200  222  221 1
   201  223  221 1
   202  224  221 1
   203  225  196 1
   204  226  225 1
   205  227  225 1
   206  228  225 1
   207  229  200 2
   208  230  203 2
   209   19   20 1
   210   20   22 1
   211   23   24 1
   212   36   38 ar
   213   77   78 1
   214   78   80 1
   215   81   82 1
   216   94   96 ar
   217  130  131 1
   218  131  133 1
   219  134  135 1
   220  147  149 ar
   221  196  197 1
   222  197  199 1
   223  200  201 1
   224  213  215 ar
@<TRIPOS>SUBSTRUCTURE
     1 RES1 1
     2 RES2 59
     3 RES3 112
     4 RES4 178
     5 SUP5 54

@<TRIPOS>CRYSIN
   7.9748   14.1924   17.9030  89.1869  83.5067  74.6777   1 1

