# MOL2 file generated by ConQuest
# Please check atom types

@<TRIPOS>MOLECULE
BIGWUK
    70    74     2
SMALL
NO_CHARGES
****
Generated from CSD

@<TRIPOS>ATOM
      1 O1         2.9918    1.6577    1.1613 O.2       1 RES1    0.0000
      2 O2         2.6416   -3.5624    1.2645 O.3       1 RES1    0.0000
      3 H1         2.5316   -4.4310    1.2198 H         1 RES1    0.0000
      4 O3        -3.4625    2.7278   -0.0185 O.2       1 RES1    0.0000
      5 O4        -2.0184    2.0803    1.4524 O.2       1 RES1    0.0000
      6 N1        -2.3114    2.5386    0.3532 N.pl3     1 RES1    0.0000
      7 C1         1.8593   -0.9030   -0.6072 C.2       1 RES1    0.0000
      8 H2         2.2552   -1.4997   -1.2303 H         1 RES1    0.0000
      9 C2         0.7419   -0.2647   -0.9442 C.2       1 RES1    0.0000
     10 H3         0.3732   -0.4311   -1.8035 H         1 RES1    0.0000
     11 C3         0.0255    0.7118   -0.0342 C.3       1 RES1    0.0000
     12 H4        -0.8998    0.3639    0.1062 H         1 RES1    0.0000
     13 C4         0.7263    0.7550    1.3654 C.3       1 RES1    0.0000
     14 H5         0.4511    1.5509    1.9045 H         1 RES1    0.0000
     15 C5         0.4988   -0.5711    2.1175 C.3       1 RES1    0.0000
     16 H6        -0.3169   -1.0214    1.7838 H         1 RES1    0.0000
     17 H7         0.3914   -0.4031    3.0876 H         1 RES1    0.0000
     18 C6         1.7551   -1.4573    1.8533 C.3       1 RES1    0.0000
     19 H8         2.3188   -1.4565    2.6797 H         1 RES1    0.0000
     20 C7         2.5179   -0.7030    0.7459 C.3       1 RES1    0.0000
     21 H9         3.4981   -0.9038    0.7384 H         1 RES1    0.0000
     22 C8         2.2116    0.7278    1.1045 C.2       1 RES1    0.0000
     23 C9         1.4152   -2.8905    1.5122 C.3       1 RES1    0.0000
     24 H10        0.9356   -3.3185    2.2652 H         1 RES1    0.0000
     25 H11        0.8370   -2.9249    0.7096 H         1 RES1    0.0000
     26 C10       -0.0983    2.0755   -0.6975 C.ar      1 RES1    0.0000
     27 C11        0.8799    2.5362   -1.5762 C.ar      1 RES1    0.0000
     28 H12        1.6713    2.0227   -1.6959 H         1 RES1    0.0000
     29 C12        0.7341    3.7224   -2.2822 C.ar      1 RES1    0.0000
     30 H13        1.4264    4.0119   -2.8633 H         1 RES1    0.0000
     31 C13       -0.4061    4.4854   -2.1488 C.ar      1 RES1    0.0000
     32 H14       -0.5097    5.2860   -2.6508 H         1 RES1    0.0000
     33 C14       -1.3963    4.0743   -1.2795 C.ar      1 RES1    0.0000
     34 H15       -2.1890    4.5886   -1.1726 H         1 RES1    0.0000
     35 C15       -1.2173    2.9033   -0.5664 C.ar      1 RES1    0.0000
     36 O5         5.3926    3.2529   11.4277 O.2       2 RES2    0.0000
     37 O6         7.4954    5.8139    7.4026 O.3       2 RES2    0.0000
     38 H16        7.4858    5.2868    6.7156 H         2 RES2    0.0000
     39 O7        -0.9366    4.7021   11.0045 O.2       2 RES2    0.0000
     40 O8         0.9879    5.6043   11.3261 O.2       2 RES2    0.0000
     41 N2         0.2765    4.6278   11.1571 N.pl3     2 RES2    0.0000
     42 C16        4.7126    3.4704    8.1585 C.2       2 RES2    0.0000
     43 H17        5.0427    3.0809    7.3583 H         2 RES2    0.0000
     44 C17        3.4015    3.4848    8.3588 C.2       2 RES2    0.0000
     45 H18        2.8389    3.0945    7.7006 H         2 RES2    0.0000
     46 C18        2.7642    4.0935    9.5878 C.3       2 RES2    0.0000
     47 H19        2.0828    4.7597    9.2837 H         2 RES2    0.0000
     48 C19        3.8474    4.8541   10.4104 C.3       2 RES2    0.0000
     49 H20        3.5213    5.1292   11.3141 H         2 RES2    0.0000
     50 C20        4.4026    6.0474    9.5865 C.3       2 RES2    0.0000
     51 H21        4.4952    6.8513   10.1573 H         2 RES2    0.0000
     52 H22        3.7973    6.2610    8.8325 H         2 RES2    0.0000
     53 C21        5.7900    5.5867    9.0606 C.3       2 RES2    0.0000
     54 H23        6.4837    5.8963    9.7100 H         2 RES2    0.0000
     55 C22        5.7084    4.0463    9.1489 C.3       2 RES2    0.0000
     56 H24        6.6015    3.5992    9.1172 H         2 RES2    0.0000
     57 C23        5.0336    3.9311   10.4794 C.2       2 RES2    0.0000
     58 C24        6.1427    6.1338    7.7094 C.3       2 RES2    0.0000
     59 H25        5.5446    5.7451    7.0238 H         2 RES2    0.0000
     60 H26        6.0217    7.1160    7.7045 H         2 RES2    0.0000
     61 C25        2.0519    3.0433   10.4364 C.ar      2 RES2    0.0000
     62 C26        2.5279    1.7324   10.5039 C.ar      2 RES2    0.0000
     63 H27        3.3146    1.5029   10.0248 H         2 RES2    0.0000
     64 C27        1.8859    0.7574   11.2486 C.ar      2 RES2    0.0000
     65 H28        2.2382   -0.1248   11.2761 H         2 RES2    0.0000
     66 C28        0.7348    1.0638   11.9515 C.ar      2 RES2    0.0000
     67 H29        0.2979    0.3935   12.4631 H         2 RES2    0.0000
     68 C29        0.2288    2.3267   11.9080 C.ar      2 RES2    0.0000
     69 H30       -0.5652    2.5418   12.3831 H         2 RES2    0.0000
     70 C30        0.8849    3.2985   11.1628 C.ar      2 RES2    0.0000
@<TRIPOS>BOND
     1    1   22 2
     2    2    3 1
     3    4    6 2
     4    5    6 2
     5    6   35 1
     6    7    8 1
     7    9    7 2
     8   10    9 1
     9   11    9 1
    10   12   11 1
    11   13   11 1
    12   14   13 1
    13   15   13 1
    14   16   15 1
    15   17   15 1
    16   18   15 1
    17   19   18 1
    18   20    7 1
    19   21   20 1
    20   22   13 1
    21   23    2 1
    22   24   23 1
    23   25   23 1
    24   26   11 1
    25   27   26 ar
    26   28   27 1
    27   29   27 ar
    28   30   29 1
    29   31   29 ar
    30   32   31 1
    31   33   31 ar
    32   34   33 1
    33   35   26 ar
    34   36   57 2
    35   37   38 1
    36   39   41 2
    37   40   41 2
    38   41   70 1
    39   42   43 1
    40   44   42 2
    41   45   44 1
    42   46   44 1
    43   47   46 1
    44   48   46 1
    45   49   48 1
    46   50   48 1
    47   51   50 1
    48   52   50 1
    49   53   50 1
    50   54   53 1
    51   55   42 1
    52   56   55 1
    53   57   48 1
    54   58   37 1
    55   59   58 1
    56   60   58 1
    57   61   46 1
    58   62   61 ar
    59   63   62 1
    60   64   62 ar
    61   65   64 1
    62   66   64 ar
    63   67   66 1
    64   68   66 ar
    65   69   68 1
    66   70   61 ar
    67   18   20 1
    68   18   23 1
    69   20   22 1
    70   33   35 ar
    71   53   55 1
    72   53   58 1
    73   55   57 1
    74   68   70 ar
@<TRIPOS>SUBSTRUCTURE
     1 RES1 1
     2 RES2 36

@<TRIPOS>CRYSIN
  25.7419    7.9982   14.0165  90.0000 110.6460  90.0000   9 1

