# MOL2 file generated by ConQuest
# Please check atom types

@<TRIPOS>MOLECULE
BIGWOE
    38    41     1
SMALL
NO_CHARGES
****
Generated from CSD

@<TRIPOS>ATOM
      1 O1        -2.1005    2.8949    7.9562 O.2       1 RES1    0.0000
      2 O2         1.1339    6.8413    8.1905 O.2       1 RES1    0.0000
      3 O3         0.6532    8.9029    8.5930 O.2       1 RES1    0.0000
      4 N1         0.3520    7.7164    8.5505 N.pl3     1 RES1    0.0000
      5 C1        -1.1616    3.0100    8.7254 C.2       1 RES1    0.0000
      6 C2        -0.7966    2.1025    9.8805 C.3       1 RES1    0.0000
      7 H1        -1.4245    1.2919    9.9645 H         1 RES1    0.0000
      8 C3         0.6650    1.7768    9.5048 C.3       1 RES1    0.0000
      9 H2         0.6576    1.0730    8.8602 H         1 RES1    0.0000
     10 C4         1.6805    1.4716   10.6105 C.3       1 RES1    0.0000
     11 H3         1.8127    0.4914   10.7422 H         1 RES1    0.0000
     12 H4         1.3638    1.8485   11.4991 H         1 RES1    0.0000
     13 C5         2.9444    2.2013   10.1622 C.3       1 RES1    0.0000
     14 H5         3.3900    1.7064    9.4357 H         1 RES1    0.0000
     15 H6         3.6236    2.3281   10.8977 H         1 RES1    0.0000
     16 C6         2.4001    3.5203    9.6233 C.3       1 RES1    0.0000
     17 H7         3.0603    4.0212    9.0894 H         1 RES1    0.0000
     18 H8         2.1505    4.0646   10.3969 H         1 RES1    0.0000
     19 C7         1.1812    3.0933    8.8072 C.3       1 RES1    0.0000
     20 H9         1.4893    2.8696    7.8876 H         1 RES1    0.0000
     21 C8        -0.0472    4.0247    8.6528 C.3       1 RES1    0.0000
     22 H10       -0.0539    4.5092    7.8316 H         1 RES1    0.0000
     23 C9        -0.2620    5.0256    9.8280 C.3       1 RES1    0.0000
     24 H11        0.5760    5.4719   10.0008 H         1 RES1    0.0000
     25 C10       -0.6458    4.2824   11.0832 C.2       1 RES1    0.0000
     26 H12       -0.6691    4.8134   11.8869 H         1 RES1    0.0000
     27 C11       -0.8902    2.9826   11.1177 C.2       1 RES1    0.0000
     28 H13       -1.1192    2.5354   11.9761 H         1 RES1    0.0000
     29 C12       -1.3013    6.0822    9.4702 C.ar      1 RES1    0.0000
     30 C13       -1.0180    7.3402    8.9236 C.ar      1 RES1    0.0000
     31 C14       -1.9893    8.3059    8.6919 C.ar      1 RES1    0.0000
     32 H14       -1.6965    9.1320    8.3407 H         1 RES1    0.0000
     33 C15       -3.3072    8.0118    8.9580 C.ar      1 RES1    0.0000
     34 H15       -3.9697    8.6474    8.7617 H         1 RES1    0.0000
     35 C16       -3.6350    6.7745    9.4760 C.ar      1 RES1    0.0000
     36 H16       -4.5707    6.5365    9.6742 H         1 RES1    0.0000
     37 C17       -2.6489    5.8372    9.7392 C.ar      1 RES1    0.0000
     38 H17       -2.8977    4.9721   10.1543 H         1 RES1    0.0000
@<TRIPOS>BOND
     1    1    5 2
     2    2    4 2
     3    3    4 2
     4    4   30 1
     5    5    6 1
     6    6    7 1
     7    8    6 1
     8    9    8 1
     9   10    8 1
    10   11   10 1
    11   12   10 1
    12   13   10 1
    13   14   13 1
    14   15   13 1
    15   16   13 1
    16   17   16 1
    17   18   16 1
    18   19    8 1
    19   20   19 1
    20   21    5 1
    21   22   21 1
    22   23   21 1
    23   24   23 1
    24   25   23 1
    25   26   25 1
    26   27    6 1
    27   28   27 1
    28   29   23 1
    29   30   29 ar
    30   31   30 ar
    31   32   31 1
    32   33   31 ar
    33   34   33 1
    34   35   33 ar
    35   36   35 1
    36   37   29 ar
    37   38   37 1
    38   16   19 1
    39   19   21 1
    40   25   27 2
    41   35   37 ar
@<TRIPOS>SUBSTRUCTURE
     1 RES1 1

@<TRIPOS>CRYSIN
   7.9469   16.7131   10.3861  90.0000  93.2980  90.0000 231 1

