# MOL2 file generated by ConQuest
# Please check atom types

@<TRIPOS>MOLECULE
BIGZIB
    80    69     2
SMALL
USER_CHARGES
****
Generated from CSD

@<TRIPOS>ATOM
      1 O1         3.6142   11.7957   18.7765 O.2       1 RES1   -1.0000
      2 O2         1.8084    8.1815   18.8426 O.3       1 RES1    0.0000
      3 O3         0.2544    8.7839   20.3681 O.3       1 RES1    0.0000
      4 O4         2.0333   11.8488   21.1977 O.3       1 RES1    0.0000
      5 O5         1.9305    9.9321   14.6695 O.2       1 RES1    0.0000
      6 O6         3.0929    8.2164   15.4621 O.3       1 RES1    0.0000
      7 N1         2.6352   11.4532   17.9922 N.pl3     1 RES1    1.0000
      8 C1         1.8740   10.4374   18.2225 C.2       1 RES1    0.0000
      9 C2         2.1833    9.4770   19.3235 C.3       1 RES1    0.0000
     10 C3         1.3690    9.6328   20.6101 C.3       1 RES1    0.0000
     11 C4         0.9037   11.0258   20.9635 C.3       1 RES1    0.0000
     12 C5         0.0656   11.0210   22.2123 C.3       1 RES1    0.0000
     13 C6         2.5260   12.2247   16.7178 C.3       1 RES1    0.0000
     14 C7         3.7029   11.8144   15.8441 C.3       1 RES1    0.0000
     15 C8         4.0041   10.3325   15.7835 C.3       1 RES1    0.0000
     16 C9         2.8998    9.5152   15.2415 C.2       1 RES1    0.0000
     17 C10        0.7541    7.6579   19.6533 C.3       1 RES1    0.0000
     18 C11       -0.3168    7.1411   18.7517 C.3       1 RES1    0.0000
     19 C12        1.3001    6.6085   20.5667 C.3       1 RES1    0.0000
     20 C13        2.4340   13.7162   16.9876 C.3       1 RES1    0.0000
     21 C14        1.3216   14.0644   17.9666 C.3       1 RES1    0.0000
     22 C15        1.1694   15.5687   18.1522 C.3       1 RES1    0.0000
     23 C16        0.9602   16.2667   16.8351 C.3       1 RES1    0.0000
     24 C17        2.0784   15.9567   15.8819 C.3       1 RES1    0.0000
     25 C18        2.2258   14.4651   15.6743 C.3       1 RES1    0.0000
     26 C19        2.0300    7.3192   15.0223 C.3       1 RES1    0.0000
     27 C20        2.2269    6.0185   15.7857 C.3       1 RES1    0.0000
     28 C21        2.5765    5.9358   14.8912 Du        2 SUP2    0.0000
     29 C22        3.3834    5.2934   15.3357 C.3       1 RES1    0.0000
     30 C23        2.3345    5.2012   16.0830 Du        2 SUP2    0.0000
     31 C24        3.4856    3.9371   15.9635 C.3       1 RES1    0.0000
     32 C25        2.5604    3.7463   16.1552 Du        2 SUP2    0.0000
     33 H1         2.5604   11.8303   20.4198 H         1 RES1    0.0000
     34 H2         1.1027   10.2991   17.6832 H         1 RES1    0.0000
     35 H3         3.1144    9.4945   19.5224 H         1 RES1    0.0000
     36 H4         1.8719    9.2814   21.3366 H         1 RES1    0.0000
     37 H5         0.3980   11.3819   20.2447 H         1 RES1    0.0000
     38 H6        -0.6939   10.4708   22.0561 H         1 RES1    0.0000
     39 H7        -0.2152   11.9067   22.4145 H         1 RES1    0.0000
     40 H8         0.5702   10.6759   22.9396 H         1 RES1    0.0000
     41 H9         1.7267   11.9560   16.2803 H         1 RES1    0.0000
     42 H10        4.4753   12.2549   16.1747 H         1 RES1    0.0000
     43 H11        3.5232   12.1118   14.9606 H         1 RES1    0.0000
     44 H12        4.1956   10.0304   16.6636 H         1 RES1    0.0000
     45 H13        4.7658   10.2053   15.2329 H         1 RES1    0.0000
     46 H14       -1.0166    6.7945   19.2890 H         1 RES1    0.0000
     47 H15        0.0323    6.4542   18.1972 H         1 RES1    0.0000
     48 H16       -0.6509    7.8487   18.2111 H         1 RES1    0.0000
     49 H17        0.5971    6.2602   21.1060 H         1 RES1    0.0000
     50 H18        1.9687    6.9901   21.1254 H         1 RES1    0.0000
     51 H19        1.6782    5.9072   20.0503 H         1 RES1    0.0000
     52 H20        3.2597   14.0008   17.3637 H         1 RES1    0.0000
     53 H21        1.5223   13.6701   18.8084 H         1 RES1    0.0000
     54 H22        0.5056   13.7130   17.6360 H         1 RES1    0.0000
     55 H23        1.9580   15.9105   18.5612 H         1 RES1    0.0000
     56 H24        0.4196   15.7356   18.7140 H         1 RES1    0.0000
     57 H25        0.9252   17.2049   16.9831 H         1 RES1    0.0000
     58 H26        0.1399   15.9757   16.4553 H         1 RES1    0.0000
     59 H27        2.8885   16.3017   16.2330 H         1 RES1    0.0000
     60 H28        1.8934   16.3685   15.0467 H         1 RES1    0.0000
     61 H29        1.4416   14.1360   15.2551 H         1 RES1    0.0000
     62 H30        2.9746   14.3077   15.1106 H         1 RES1    0.0000
     63 H31        2.0924    7.1666   14.0883 H         1 RES1    0.0000
     64 H32        1.1780    7.6929   15.2245 H         1 RES1    0.0000
     65 H33        1.6944    7.6102   14.1827 Du        2 SUP2    0.0000
     66 H34        1.3286    7.3240   15.6607 Du        2 SUP2    0.0000
     67 H35        1.4577    5.4715   15.6635 H         1 RES1    0.0000
     68 H36        2.3345    6.2173   16.7081 H         1 RES1    0.0000
     69 H37        3.5125    5.9820   14.7356 Du        2 SUP2    0.0000
     70 H38        2.1570    5.4986   14.1605 Du        2 SUP2    0.0000
     71 H39        4.1580    5.7911   15.5579 H         1 RES1    0.0000
     72 H40        3.3296    5.1933   14.3911 H         1 RES1    0.0000
     73 H41        1.4201    5.3411   16.2969 Du        2 SUP2    0.0000
     74 H42        2.8831    5.5956   16.7525 Du        2 SUP2    0.0000
     75 H43        4.2494    3.4569   15.6607 H         1 RES1    0.0000
     76 H44        2.7056    3.4394   15.7357 H         1 RES1    0.0000
     77 H45        3.5394    4.0373   16.9026 H         1 RES1    0.0000
     78 H46        2.3990    3.2581   16.9665 Du        2 SUP2    0.0000
     79 H47        3.4748    3.6095   15.9552 Du        2 SUP2    0.0000
     80 H48        2.0117    3.3551   15.4996 Du        2 SUP2    0.0000
@<TRIPOS>BOND
     1    1    7 1
     2    2    9 1
     3    3   10 1
     4    4   11 1
     5    5   16 2
     6    6   16 1
     7    7    8 2
     8    8    9 1
     9    9   10 1
    10   10   11 1
    11   11   12 1
    12   12   38 1
    13   13    7 1
    14   14   13 1
    15   15   14 1
    16   16   15 1
    17   17    2 1
    18   18   17 1
    19   19   17 1
    20   20   13 1
    21   21   20 1
    22   22   21 1
    23   23   22 1
    24   24   23 1
    25   25   20 1
    26   26    6 1
    27   27   26 1
    28   29   27 1
    29   31   29 1
    30   33    4 1
    31   34    8 1
    32   35    9 1
    33   36   10 1
    34   37   11 1
    35   39   12 1
    36   40   12 1
    37   41   13 1
    38   42   14 1
    39   43   14 1
    40   44   15 1
    41   45   15 1
    42   46   18 1
    43   47   18 1
    44   48   18 1
    45   49   19 1
    46   50   19 1
    47   51   19 1
    48   52   20 1
    49   53   21 1
    50   54   21 1
    51   55   22 1
    52   56   22 1
    53   57   23 1
    54   58   23 1
    55   59   24 1
    56   60   24 1
    57   61   25 1
    58   62   25 1
    59   63   26 1
    60   64   26 1
    61   67   27 1
    62   68   27 1
    63   71   29 1
    64   72   29 1
    65   75   31 1
    66   76   31 1
    67   77   31 1
    68    3   17 1
    69   24   25 1
@<TRIPOS>SUBSTRUCTURE
     1 RES1 1
     2 SUP2 28

@<TRIPOS>CRYSIN
   5.3790   15.9010   27.7820  90.0000  90.0000  90.0000  19 1

