# MOL2 file generated by ConQuest
# Please check atom types

@<TRIPOS>MOLECULE
BIGZOH
    73    74     1
SMALL
USER_CHARGES
****
Generated from CSD

@<TRIPOS>ATOM
      1 O1         3.2608    1.6335    3.2020 O.2       1 RES1   -1.0000
      2 O2         6.3248    3.2671    5.3160 O.3       1 RES1    0.0000
      3 O3         7.2339    3.9800    3.3900 O.3       1 RES1    0.0000
      4 O4         7.1920    1.1862    2.7140 O.3       1 RES1    0.0000
      5 O5         6.3739    3.6325    0.1160 O.3       1 RES1    0.0000
      6 O6         6.1404    1.6375   -0.9720 O.3       1 RES1    0.0000
      7 O7         0.0850   -0.6051    6.6220 O.2       1 RES1    0.0000
      8 O8         0.9627    0.8407    8.0980 O.3       1 RES1    0.0000
      9 N1         4.0385    0.9306    3.9860 N.pl3     1 RES1    1.0000
     10 C1         5.0986    1.4518    4.5160 C.2       1 RES1    0.0000
     11 C2         5.3811    2.8777    4.3040 C.3       1 RES1    0.0000
     12 C3         6.0508    3.3030    2.9760 C.3       1 RES1    0.0000
     13 C4         6.4236    2.1747    2.0520 C.3       1 RES1    0.0000
     14 C5         7.1639    2.6680    0.8220 C.3       1 RES1    0.0000
     15 C6         7.3510    1.5637   -0.2140 C.3       1 RES1    0.0000
     16 C7         3.6539   -0.4853    4.2420 C.3       1 RES1    0.0000
     17 C8         2.3165   -0.5452    4.9720 C.3       1 RES1    0.0000
     18 C9         2.3034    0.2396    6.2780 C.3       1 RES1    0.0000
     19 C10        0.9993    0.0959    6.9960 C.2       1 RES1    0.0000
     20 C11       -0.2551    0.7828    8.8960 C.3       1 RES1    0.0000
     21 C12       -1.1903    1.8772    8.5080 C.3       1 RES1    0.0000
     22 C13       -0.6847    3.2631    8.7780 C.3       1 RES1    0.0000
     23 C14       -1.6723    4.3495    8.4320 C.3       1 RES1    0.0000
     24 C15        3.6768   -1.2302    2.9060 C.3       1 RES1    0.0000
     25 C16        5.1084   -1.4299    2.4180 C.3       1 RES1    0.0000
     26 C17        2.9410   -2.5282    2.9500 C.3       1 RES1    0.0000
     27 C18        5.8219    3.0294   -1.0580 C.3       1 RES1    0.0000
     28 C19        4.3190    3.1573   -1.0220 C.3       1 RES1    0.0000
     29 C20        6.4399    3.6525   -2.2720 C.3       1 RES1    0.0000
     30 C21        7.1037    4.3335    4.7520 C.3       1 RES1    0.0000
     31 C22        8.4464    4.2975    5.4020 C.3       1 RES1    0.0000
     32 C23        6.3896    5.6555    4.9100 C.3       1 RES1    0.0000
     33 H1         7.9062    1.5756    3.0640 H         1 RES1    0.0000
     34 H2         5.6905    0.9166    5.0300 H         1 RES1    0.0000
     35 H3         4.5793    3.3749    4.4240 H         1 RES1    0.0000
     36 H4         5.4825    3.9101    2.5180 H         1 RES1    0.0000
     37 H5         5.6179    1.7673    1.7600 H         1 RES1    0.0000
     38 H6         8.0043    3.0394    1.0640 H         1 RES1    0.0000
     39 H7         8.1083    1.7354   -0.7620 H         1 RES1    0.0000
     40 H8         7.4445    0.7169    0.2000 H         1 RES1    0.0000
     41 H9         4.3157   -0.8727    4.8040 H         1 RES1    0.0000
     42 H10        2.1209   -1.4538    5.1700 H         1 RES1    0.0000
     43 H11        1.6448   -0.1917    4.4040 H         1 RES1    0.0000
     44 H12        2.4479    1.1583    6.0860 H         1 RES1    0.0000
     45 H13        2.9992   -0.0819    6.8380 H         1 RES1    0.0000
     46 H14       -0.0301    0.8727    9.8160 H         1 RES1    0.0000
     47 H15       -0.6802   -0.0559    8.7560 H         1 RES1    0.0000
     48 H16       -2.0006    1.7594    8.9940 H         1 RES1    0.0000
     49 H17       -1.3656    1.8033    7.5780 H         1 RES1    0.0000
     50 H18        0.1027    3.3969    8.2660 H         1 RES1    0.0000
     51 H19       -0.4787    3.3310    9.7020 H         1 RES1    0.0000
     52 H20       -1.3485    5.2261    8.6000 H         1 RES1    0.0000
     53 H21       -2.4584    4.2137    8.9420 H         1 RES1    0.0000
     54 H22       -1.8770    4.2796    7.5060 H         1 RES1    0.0000
     55 H23        3.2399   -0.6750    2.2720 H         1 RES1    0.0000
     56 H24        5.1221   -1.8912    1.5900 H         1 RES1    0.0000
     57 H25        5.5878   -1.9351    3.0640 H         1 RES1    0.0000
     58 H26        5.5204   -0.5811    2.3100 H         1 RES1    0.0000
     59 H27        2.9548   -2.9895    2.1160 H         1 RES1    0.0000
     60 H28        2.0352   -2.3545    3.1800 H         1 RES1    0.0000
     61 H29        3.3374   -3.0814    3.6080 H         1 RES1    0.0000
     62 H30        3.9521    2.7559   -1.8020 H         1 RES1    0.0000
     63 H31        4.0797    4.0759   -0.9980 H         1 RES1    0.0000
     64 H32        3.9802    2.7199   -0.2500 H         1 RES1    0.0000
     65 H33        6.0717    3.2491   -3.0540 H         1 RES1    0.0000
     66 H34        7.3784    3.5147   -2.2600 H         1 RES1    0.0000
     67 H35        6.2542    4.5831   -2.2820 H         1 RES1    0.0000
     68 H36        8.9631    4.9985    5.0280 H         1 RES1    0.0000
     69 H37        8.8676    3.4588    5.2340 H         1 RES1    0.0000
     70 H38        8.3575    4.4214    6.3380 H         1 RES1    0.0000
     71 H39        6.9030    6.3584    4.5380 H         1 RES1    0.0000
     72 H40        6.2509    5.8252    5.8380 H         1 RES1    0.0000
     73 H41        5.5472    5.6136    4.4720 H         1 RES1    0.0000
@<TRIPOS>BOND
     1    1    9 1
     2    2   11 1
     3    3   12 1
     4    4   13 1
     5    5   14 1
     6    6   15 1
     7    7   19 2
     8    8   19 1
     9    9   10 2
    10   10   11 1
    11   11   12 1
    12   12   13 1
    13   13   14 1
    14   14   15 1
    15   15   39 1
    16   16    9 1
    17   17   16 1
    18   18   17 1
    19   19   18 1
    20   20    8 1
    21   21   20 1
    22   22   21 1
    23   23   22 1
    24   24   16 1
    25   25   24 1
    26   26   24 1
    27   27    5 1
    28   28   27 1
    29   29   27 1
    30   30    2 1
    31   31   30 1
    32   32   30 1
    33   33    4 1
    34   34   10 1
    35   35   11 1
    36   36   12 1
    37   37   13 1
    38   38   14 1
    39   40   15 1
    40   41   16 1
    41   42   17 1
    42   43   17 1
    43   44   18 1
    44   45   18 1
    45   46   20 1
    46   47   20 1
    47   48   21 1
    48   49   21 1
    49   50   22 1
    50   51   22 1
    51   52   23 1
    52   53   23 1
    53   54   23 1
    54   55   24 1
    55   56   25 1
    56   57   25 1
    57   58   25 1
    58   59   26 1
    59   60   26 1
    60   61   26 1
    61   62   28 1
    62   63   28 1
    63   64   28 1
    64   65   29 1
    65   66   29 1
    66   67   29 1
    67   68   31 1
    68   69   31 1
    69   70   31 1
    70   71   32 1
    71   72   32 1
    72   73   32 1
    73    3   30 1
    74    6   27 1
@<TRIPOS>SUBSTRUCTURE
     1 RES1 1

@<TRIPOS>CRYSIN
   6.5400   19.9700   20.0000  90.0000  90.0000  90.0000  19 1

