# MOL2 file generated by ConQuest
# Please check atom types

@<TRIPOS>MOLECULE
BIHDIH
    49    52     1
SMALL
NO_CHARGES
****
Generated from CSD

@<TRIPOS>ATOM
      1 O1         2.7204    1.4633    3.9203 O.3       1 RES1    0.0000
      2 N1         2.6857    2.4602    4.9506 N.2       1 RES1    0.0000
      3 N2         3.9904    0.0030    5.3210 N.2       1 RES1    0.0000
      4 C1         1.8380    4.5424    5.5656 C.ar      1 RES1    0.0000
      5 C2         2.5164    4.5127    6.7489 C.ar      1 RES1    0.0000
      6 H1         3.0571    3.7823    6.9445 H         1 RES1    0.0000
      7 C3         2.4153    5.5381    7.6563 C.ar      1 RES1    0.0000
      8 H2         2.8823    5.4891    8.4587 H         1 RES1    0.0000
      9 C4         1.6354    6.6264    7.3941 C.ar      1 RES1    0.0000
     10 H3         1.5936    7.3323    7.9977 H         1 RES1    0.0000
     11 C5         0.9190    6.6638    6.2348 C.ar      1 RES1    0.0000
     12 H4         0.3666    7.3905    6.0558 H         1 RES1    0.0000
     13 C6         1.0091    5.6280    5.3252 C.ar      1 RES1    0.0000
     14 H5         0.5072    5.6582    4.5416 H         1 RES1    0.0000
     15 C7         1.9562    3.4475    4.5634 C.2       1 RES1    0.0000
     16 C8         1.2221    3.5228    3.2688 C.ar      1 RES1    0.0000
     17 C9         1.5669    4.4840    2.3228 C.ar      1 RES1    0.0000
     18 H6         2.2455    5.0929    2.5101 H         1 RES1    0.0000
     19 C10        0.9190    4.5391    1.1250 C.ar      1 RES1    0.0000
     20 H7         1.1767    5.1695    0.4912 H         1 RES1    0.0000
     21 C11       -0.1134    3.6735    0.8430 C.ar      1 RES1    0.0000
     22 H8        -0.5621    3.7243    0.0302 H         1 RES1    0.0000
     23 C12       -0.4697    2.7358    1.7785 C.ar      1 RES1    0.0000
     24 H9        -1.1676    2.1459    1.6027 H         1 RES1    0.0000
     25 C13        0.2060    2.6656    2.9784 C.ar      1 RES1    0.0000
     26 H10       -0.0382    2.0200    3.6018 H         1 RES1    0.0000
     27 C14        3.3814    0.3161    4.2720 C.2       1 RES1    0.0000
     28 C15        3.3753   -0.6097    3.1096 C.ar      1 RES1    0.0000
     29 C16        3.3236   -0.1686    1.8098 C.ar      1 RES1    0.0000
     30 H11        3.3022    0.7443    1.6318 H         1 RES1    0.0000
     31 C17        3.3049   -1.0691    0.7670 C.ar      1 RES1    0.0000
     32 H12        3.2790   -0.7616   -0.1103 H         1 RES1    0.0000
     33 C18        3.3244   -2.4051    1.0147 C.ar      1 RES1    0.0000
     34 H13        3.3207   -3.0086    0.3070 H         1 RES1    0.0000
     35 C19        3.3495   -2.8632    2.3114 C.ar      1 RES1    0.0000
     36 H14        3.3395   -3.7762    2.4841 H         1 RES1    0.0000
     37 C20        3.3909   -1.9703    3.3448 C.ar      1 RES1    0.0000
     38 H15        3.4314   -2.2835    4.2200 H         1 RES1    0.0000
     39 C21        4.1124    0.6448    6.5730 C.ar      1 RES1    0.0000
     40 C22        5.3650    0.9566    7.0132 C.ar      1 RES1    0.0000
     41 H16        6.0930    0.8284    6.4491 H         1 RES1    0.0000
     42 C23        5.5730    1.4615    8.2912 C.ar      1 RES1    0.0000
     43 H17        6.4288    1.6882    8.5753 H         1 RES1    0.0000
     44 C24        4.4927    1.6207    9.1320 C.ar      1 RES1    0.0000
     45 H18        4.6135    1.9661    9.9875 H         1 RES1    0.0000
     46 C25        3.2571    1.2740    8.7074 C.ar      1 RES1    0.0000
     47 H19        2.5378    1.3570    9.2913 H         1 RES1    0.0000
     48 C26        3.0320    0.7994    7.4347 C.ar      1 RES1    0.0000
     49 H20        2.1704    0.5860    7.1558 H         1 RES1    0.0000
@<TRIPOS>BOND
     1    1    2 1
     2    2   15 2
     3    3   27 2
     4    4    5 ar
     5    5    6 1
     6    7    5 ar
     7    8    7 1
     8    9    7 ar
     9   10    9 1
    10   11    9 ar
    11   12   11 1
    12   13    4 ar
    13   14   13 1
    14   15    4 1
    15   16   15 1
    16   17   16 ar
    17   18   17 1
    18   19   17 ar
    19   20   19 1
    20   21   19 ar
    21   22   21 1
    22   23   21 ar
    23   24   23 1
    24   25   16 ar
    25   26   25 1
    26   27    1 1
    27   28   27 1
    28   29   28 ar
    29   30   29 1
    30   31   29 ar
    31   32   31 1
    32   33   31 ar
    33   34   33 1
    34   35   33 ar
    35   36   35 1
    36   37   28 ar
    37   38   37 1
    38   39    3 1
    39   40   39 ar
    40   41   40 1
    41   42   40 ar
    42   43   42 1
    43   44   42 ar
    44   45   44 1
    45   46   44 ar
    46   47   46 1
    47   48   39 ar
    48   49   48 1
    49   11   13 ar
    50   23   25 ar
    51   35   37 ar
    52   46   48 ar
@<TRIPOS>SUBSTRUCTURE
     1 RES1 1

@<TRIPOS>CRYSIN
  10.0100   10.6410   10.7430  83.1550  75.6340  62.6570   2 1

