# MOL2 file generated by ConQuest
# Please check atom types

@<TRIPOS>MOLECULE
BIHGUV
    66    66     2
SMALL
NO_CHARGES
****
Generated from CSD

@<TRIPOS>ATOM
      1 O1         5.6895   -3.3519   25.7184 O.3       1 RES1    0.0000
      2 O2         3.3344   -2.6442   29.0754 O.3       1 RES1    0.0000
      3 O3         4.9593   -4.9597   29.7324 O.3       1 RES1    0.0000
      4 O4         4.4365   -5.2861   26.1246 O.3       1 RES1    0.0000
      5 O5         4.0407   -7.5913   28.1507 O.3       1 RES1    0.0000
      6 O6         2.3483   -1.9788   24.5477 O.2       1 RES1    0.0000
      7 O7         2.9360    2.0556   26.2345 O.2       1 RES1    0.0000
      8 N1         3.4990   -1.7177   26.4591 N.am      1 RES1    0.0000
      9 N2         2.6750    0.1443   25.3218 N.am      1 RES1    0.0000
     10 N3         3.1331    0.8348   26.3420 N.2       1 RES1    0.0000
     11 C1         4.4100   -3.9107   25.7686 C.3       1 RES1    0.0000
     12 C2         3.5860   -3.1320   26.7769 C.3       1 RES1    0.0000
     13 C3         4.1874   -3.3152   28.1555 C.3       1 RES1    0.0000
     14 C4         4.3247   -4.7891   28.4709 C.3       1 RES1    0.0000
     15 C5         5.0839   -5.5185   27.3647 C.3       1 RES1    0.0000
     16 C6         5.2118   -6.9992   27.5988 C.3       1 RES1    0.0000
     17 C7         2.8388   -1.2814   25.4174 C.2       1 RES1    0.0000
     18 C8         1.9790    0.7581   24.2132 C.3       1 RES1    0.0000
     19 H1         3.5826   -8.1993   27.5725 H         1 RES1    0.0000
     20 H2         2.7552   -3.5271   26.7124 H         1 RES1    0.0000
     21 H3         3.4461   -5.1303   28.5282 H         1 RES1    0.0000
     22 H4         5.8942   -5.1074   27.3097 H         1 RES1    0.0000
     23 H5         5.0156   -2.9316   28.1221 H         1 RES1    0.0000
     24 H6         3.8982   -1.2253   27.0230 H         1 RES1    0.0000
     25 H7         6.0734   -3.4355   24.9682 H         1 RES1    0.0000
     26 H8         4.0518   -3.8477   25.0160 H         1 RES1    0.0000
     27 H9         5.9198   -7.1298   28.2200 H         1 RES1    0.0000
     28 H10        3.7106   -2.5766   29.6751 H         1 RES1    0.0000
     29 H11        2.5505    1.3879   23.7926 H         1 RES1    0.0000
     30 H12        1.7316    0.0870   23.5872 H         1 RES1    0.0000
     31 H13        1.2027    1.1990   24.5286 H         1 RES1    0.0000
     32 H14        5.6298   -4.7982   29.6751 H         1 RES1    0.0000
     33 H15        5.4251   -7.4321   26.7817 H         1 RES1    0.0000
     34 O8         5.2929   -0.3527   28.2630 O.3       2 RES2    0.0000
     35 O9         8.8115   -1.7177   26.4185 O.3       2 RES2    0.0000
     36 O10        9.1220   -2.1071   29.2857 O.3       2 RES2    0.0000
     37 O11        7.0842    0.9001   29.0730 O.3       2 RES2    0.0000
     38 O12        9.4581    1.3124   30.4492 O.3       2 RES2    0.0000
     39 O13        6.7728    1.7613   24.7962 O.2       2 RES2    0.0000
     40 O14        4.6497   -1.2505   22.3758 O.2       2 RES2    0.0000
     41 N4         6.4342   -0.3126   25.6467 N.am      2 RES2    0.0000
     42 N5         5.6460    0.2542   23.5083 N.am      2 RES2    0.0000
     43 N6         5.1956   -0.9940   23.4295 N.2       2 RES2    0.0000
     44 C9         6.2977    0.5669   27.9500 C.3       2 RES2    0.0000
     45 C10        7.1712   -0.0229   26.8725 C.3       2 RES2    0.0000
     46 C11        7.8647   -1.2654   27.3933 C.3       2 RES2    0.0000
     47 C12        8.6247   -0.9253   28.6525 C.3       2 RES2    0.0000
     48 C13        7.7401   -0.2084   29.6512 C.3       2 RES2    0.0000
     49 C14        8.5044    0.3218   30.8291 C.3       2 RES2    0.0000
     50 C15        6.3378    0.6298   24.7054 C.2       2 RES2    0.0000
     51 C16        5.5104    1.1818   22.4092 C.3       2 RES2    0.0000
     52 H16        7.0833   -0.8211   29.9594 H         2 RES2    0.0000
     53 H17        7.8433    0.6150   26.6646 H         2 RES2    0.0000
     54 H18        7.2283   -1.9468   27.5725 H         2 RES2    0.0000
     55 H19        9.3591   -0.3653   28.4327 H         2 RES2    0.0000
     56 H20        5.9625   -1.2368   25.5894 H         2 RES2    0.0000
     57 H21        5.8959    1.3593   27.6131 H         2 RES2    0.0000
     58 H22        8.9625   -0.3985   31.2473 H         2 RES2    0.0000
     59 H23        9.8948   -2.2789   29.1017 H         2 RES2    0.0000
     60 H24        8.6153   -2.3247   26.0195 H         2 RES2    0.0000
     61 H25        7.8903    0.7054   31.4432 H         2 RES2    0.0000
     62 H26        5.9028    2.0132   22.6553 H         2 RES2    0.0000
     63 H27        5.9625    0.8405   21.6423 H         2 RES2    0.0000
     64 H28        4.5891    1.3078   22.2109 H         2 RES2    0.0000
     65 H29        4.6318   -0.0229   28.7672 H         2 RES2    0.0000
     66 H30        9.0418    1.9468   30.0813 H         2 RES2    0.0000
@<TRIPOS>BOND
     1    1   11 1
     2    2   13 1
     3    3   14 1
     4    4   11 1
     5    5   16 1
     6    6   17 2
     7    7   10 2
     8    8   12 1
     9    9   10 1
    10   11   12 1
    11   12   13 1
    12   13   14 1
    13   14   15 1
    14   15    4 1
    15   16   15 1
    16   17    8 1
    17   18    9 1
    18   19    5 1
    19   20   12 1
    20   21   14 1
    21   22   15 1
    22   23   13 1
    23   24    8 1
    24   25    1 1
    25   26   11 1
    26   27   16 1
    27   28    2 1
    28   29   18 1
    29   30   18 1
    30   31   18 1
    31   32    3 1
    32   33   16 1
    33   34   44 1
    34   35   46 1
    35   36   47 1
    36   37   44 1
    37   38   49 1
    38   39   50 2
    39   40   43 2
    40   41   45 1
    41   42   43 1
    42   44   45 1
    43   45   46 1
    44   46   47 1
    45   47   48 1
    46   48   37 1
    47   49   48 1
    48   50   41 1
    49   51   42 1
    50   52   48 1
    51   53   45 1
    52   54   46 1
    53   55   47 1
    54   56   41 1
    55   57   44 1
    56   58   49 1
    57   59   36 1
    58   60   35 1
    59   61   49 1
    60   62   51 1
    61   63   51 1
    62   64   51 1
    63   65   34 1
    64   66   38 1
    65    9   17 1
    66   42   50 1
@<TRIPOS>SUBSTRUCTURE
     1 RES1 1
     2 RES2 34

@<TRIPOS>CRYSIN
   8.5300   11.4516   23.8930  90.0000  90.0000  90.0000  19 1

