# MOL2 file generated by ConQuest
# Please check atom types

@<TRIPOS>MOLECULE
BIHHEH
    55    57     1
SMALL
NO_CHARGES
****
Generated from CSD

@<TRIPOS>ATOM
      1 O1         0.1270    2.6747    3.1626 O.3       1 RES1    0.0000
      2 N1         4.9872    2.8294    2.5180 N.3       1 RES1    0.0000
      3 O2         5.1691    2.1769    3.7966 O.3       1 RES1    0.0000
      4 H1         5.1800    2.7408    4.3920 H         1 RES1    0.0000
      5 C1         2.5489    2.8812    2.7751 C.3       1 RES1    0.0000
      6 H2         2.7448    2.7011    3.7187 H         1 RES1    0.0000
      7 O3         0.5805   -0.0084    3.3132 O.2       1 RES1    0.0000
      8 C2        -1.2227    2.6012    5.1193 C.ar      1 RES1    0.0000
      9 C3         1.2246    2.1400    2.4406 C.3       1 RES1    0.0000
     10 C4         6.1844    2.6914    1.7484 C.ar      1 RES1    0.0000
     11 C5         0.1833    2.6825    4.5919 C.3       1 RES1    0.0000
     12 H3         0.6087    3.4973    4.9038 H         1 RES1    0.0000
     13 H4         0.7015    1.9260    4.9092 H         1 RES1    0.0000
     14 C6         3.7254    2.3152    1.9594 C.3       1 RES1    0.0000
     15 H5         3.6447    2.6495    1.0415 H         1 RES1    0.0000
     16 O4        -5.0244    2.3220    6.7795 O.3       1 RES1    0.0000
     17 C7         3.7159    0.8200    1.9050 C.2       1 RES1    0.0000
     18 H6         4.4776    0.3884    1.5909 H         1 RES1    0.0000
     19 C8         1.4288    0.6583    2.7440 C.2       1 RES1    0.0000
     20 C9        -3.7891    2.3660    6.1832 C.ar      1 RES1    0.0000
     21 C10        7.4030    2.8238    2.3966 C.ar      1 RES1    0.0000
     22 H7         7.4239    2.9566    3.3165 H         1 RES1    0.0000
     23 C11        6.1878    2.5158    0.3762 C.ar      1 RES1    0.0000
     24 H8         5.3840    2.4303   -0.0844 H         1 RES1    0.0000
     25 C12       -0.5676    1.6789    0.6698 C.3       1 RES1    0.0000
     26 H9        -0.5873    0.7616    0.9517 H         1 RES1    0.0000
     27 H10       -0.7383    1.7271   -0.2729 H         1 RES1    0.0000
     28 H11       -1.2416    2.1730    1.1420 H         1 RES1    0.0000
     29 C13        2.6857    0.0736    2.2775 C.2       1 RES1    0.0000
     30 H12        2.7654   -0.8530    2.2409 H         1 RES1    0.0000
     31 C14        2.4415    4.3960    2.6280 C.3       1 RES1    0.0000
     32 H13        3.2760    4.8013    2.8730 H         1 RES1    0.0000
     33 H14        1.7454    4.7243    3.2016 H         1 RES1    0.0000
     34 H15        2.2353    4.6152    1.7166 H         1 RES1    0.0000
     35 C15       -3.3728    1.5139    5.1904 C.ar      1 RES1    0.0000
     36 H16       -3.9477    0.8564    4.8697 H         1 RES1    0.0000
     37 C16       -2.0955    1.6349    4.6691 C.ar      1 RES1    0.0000
     38 H17       -1.8208    1.0501    4.0006 H         1 RES1    0.0000
     39 C17       -1.6752    3.4770    6.0894 C.ar      1 RES1    0.0000
     40 H18       -1.1142    4.1548    6.3906 H         1 RES1    0.0000
     41 C18        0.8019    2.2737    0.9689 C.3       1 RES1    0.0000
     42 H19        0.7940    3.2139    0.7290 H         1 RES1    0.0000
     43 H20        1.4625    1.8329    0.4112 H         1 RES1    0.0000
     44 C19       -2.9473    3.3636    6.6209 C.ar      1 RES1    0.0000
     45 H21       -3.2342    3.9611    7.2740 H         1 RES1    0.0000
     46 C20        8.5833    2.7595    1.6897 C.ar      1 RES1    0.0000
     47 H22        9.3927    2.8458    2.1404 H         1 RES1    0.0000
     48 C21       -5.8889    1.2642    6.4089 C.3       1 RES1    0.0000
     49 H23       -6.0564    1.3040    5.4640 H         1 RES1    0.0000
     50 H24       -6.7189    1.3472    6.8843 H         1 RES1    0.0000
     51 H25       -5.4782    0.4239    6.6258 H         1 RES1    0.0000
     52 C22        8.5838    2.5716    0.3383 C.ar      1 RES1    0.0000
     53 H26        9.3853    2.5158   -0.1293 H         1 RES1    0.0000
     54 C23        7.3954    2.4684   -0.3141 C.ar      1 RES1    0.0000
     55 H27        7.3893    2.3626   -1.2390 H         1 RES1    0.0000
@<TRIPOS>BOND
     1    1    9 1
     2    2    3 1
     3    3    4 1
     4    5    6 1
     5    7   19 2
     6    8   11 1
     7    9    5 1
     8   10    2 1
     9   11    1 1
    10   12   11 1
    11   13   11 1
    12   14    2 1
    13   15   14 1
    14   16   20 1
    15   17   14 1
    16   18   17 1
    17   19    9 1
    18   20   35 ar
    19   21   10 ar
    20   22   21 1
    21   23   10 ar
    22   24   23 1
    23   25   26 1
    24   27   25 1
    25   28   25 1
    26   29   17 2
    27   30   29 1
    28   31    5 1
    29   32   31 1
    30   33   31 1
    31   34   31 1
    32   35   36 1
    33   37    8 ar
    34   38   37 1
    35   39    8 ar
    36   40   39 1
    37   41    9 1
    38   42   41 1
    39   43   41 1
    40   44   20 ar
    41   45   44 1
    42   46   21 ar
    43   47   46 1
    44   48   16 1
    45   49   48 1
    46   50   48 1
    47   51   48 1
    48   52   46 ar
    49   53   52 1
    50   54   23 ar
    51   55   54 1
    52    5   14 1
    53   19   29 1
    54   25   41 1
    55   35   37 ar
    56   39   44 ar
    57   52   54 ar
@<TRIPOS>SUBSTRUCTURE
     1 RES1 1

@<TRIPOS>CRYSIN
  13.1300    8.4620   18.0010  90.0000  94.0500  90.0000 231 1

