# MOL2 file generated by ConQuest
# Please check atom types

@<TRIPOS>MOLECULE
BIHLAI
    25    27     1
SMALL
USER_CHARGES
****
Generated from CSD

@<TRIPOS>ATOM
      1 N1         1.6035    0.3324    7.6569 N.pl3     1 RES1    0.0000
      2 N2         1.5544   -0.5374    8.7069 N.2       1 RES1    0.0000
      3 N3         1.6018    0.2108    9.7906 N.pl3     1 RES1    1.0000
      4 O1         1.5750   -0.2898   10.9684 O.2       1 RES1   -1.0000
      5 C1         1.6170   -0.1918    6.3381 C.ar      1 RES1    0.0000
      6 C2         0.7473   -1.2259    6.0127 C.ar      1 RES1    0.0000
      7 H1         0.1192   -1.5457    6.6499 H         1 RES1    0.0000
      8 C3         0.8108   -1.7865    4.7410 C.ar      1 RES1    0.0000
      9 H2         0.2318   -2.5047    4.5127 H         1 RES1    0.0000
     10 C4         1.7125   -1.3043    3.8018 C.ar      1 RES1    0.0000
     11 H3         1.7481   -1.6905    2.9340 H         1 RES1    0.0000
     12 C5         2.5652   -0.2535    4.1323 C.ar      1 RES1    0.0000
     13 H4         3.1767    0.0811    3.4868 H         1 RES1    0.0000
     14 C6         2.5242    0.3081    5.4056 C.ar      1 RES1    0.0000
     15 H5         3.1073    1.0220    5.6353 H         1 RES1    0.0000
     16 C7         1.6630    1.6293    8.0881 C.ar      1 RES1    0.0000
     17 C8         1.6797    1.5650    9.4788 C.ar      1 RES1    0.0000
     18 C9         1.7452    2.6935   10.2968 C.ar      1 RES1    0.0000
     19 H6         1.7782    2.6283   11.2440 H         1 RES1    0.0000
     20 C10        1.7596    3.9070    9.6471 C.ar      1 RES1    0.0000
     21 H7         1.8018    4.7079   10.1556 H         1 RES1    0.0000
     22 C11        1.7124    3.9833    8.2356 C.ar      1 RES1    0.0000
     23 H8         1.7141    4.8409    7.8254 H         1 RES1    0.0000
     24 C12        1.6640    2.8657    7.4275 C.ar      1 RES1    0.0000
     25 H9         1.6329    2.9307    6.4795 H         1 RES1    0.0000
@<TRIPOS>BOND
     1    1    2 1
     2    2    3 2
     3    3    4 1
     4    5    1 1
     5    6    5 ar
     6    7    6 1
     7    8    6 ar
     8    9    8 1
     9   10    8 ar
    10   11   10 1
    11   12   10 ar
    12   13   12 1
    13   14    5 ar
    14   15   14 1
    15   16    1 1
    16   17    3 1
    17   18   17 ar
    18   19   18 1
    19   20   18 ar
    20   21   20 1
    21   22   20 ar
    22   23   22 1
    23   24   16 ar
    24   25   24 1
    25   12   14 ar
    26   16   17 ar
    27   22   24 ar
@<TRIPOS>SUBSTRUCTURE
     1 RES1 1

@<TRIPOS>CRYSIN
  13.0944    7.8740   18.9293  90.0000  90.0000  90.0000  61 1

