# MOL2 file generated by ConQuest
# Please check atom types

@<TRIPOS>MOLECULE
BIHLIP
    80    82     2
SMALL
NO_CHARGES
****
Generated from CSD

@<TRIPOS>ATOM
      1 O1         3.4212   10.5823   13.6183 O.3       1 RES1    0.0000
      2 N1         2.3966    9.6085   13.5917 N.am      1 RES1    0.0000
      3 C1         1.2497   10.0389   12.7728 C.3       1 RES1    0.0000
      4 C2         1.7339   11.4195   12.3163 C.3       1 RES1    0.0000
      5 C3         3.2228   11.3712   12.4379 C.3       1 RES1    0.0000
      6 C4         0.0038   10.1396   13.6362 C.3       1 RES1    0.0000
      7 C5         1.1152    9.0807   11.5862 C.3       1 RES1    0.0000
      8 O2         3.8125   10.7913   11.3331 O.3       1 RES1    0.0000
      9 C6         2.5901    8.4846   14.2753 C.2       1 RES1    0.0000
     10 O3         1.7029    7.6185   14.3089 O.2       1 RES1    0.0000
     11 C7         3.8832    8.3256   14.9953 C.ar      1 RES1    0.0000
     12 C8         4.9674    7.7575   14.3285 C.ar      1 RES1    0.0000
     13 C9         6.1520    7.5692   15.0147 C.ar      1 RES1    0.0000
     14 C10        6.3031    7.9383   16.3239 C.ar      1 RES1    0.0000
     15 C11        5.2290    8.4808   16.9653 C.ar      1 RES1    0.0000
     16 C12        3.9914    8.6949   16.3323 C.ar      1 RES1    0.0000
     17 C13        4.8582    7.3584   12.8864 C.3       1 RES1    0.0000
     18 C14        7.6411    7.7532   17.0009 C.3       1 RES1    0.0000
     19 C15        2.8576    9.3090   17.0705 C.3       1 RES1    0.0000
     20 H1         1.4177   11.6702   11.4462 H         1 RES1    0.0000
     21 H2         1.3005   12.1404   12.8832 H         1 RES1    0.0000
     22 H3         3.6560   12.2195   12.6994 H         1 RES1    0.0000
     23 H4        -0.6445   10.4733   13.1005 H         1 RES1    0.0000
     24 H5        -0.2797    9.2763   13.9192 H         1 RES1    0.0000
     25 H6         0.1829   10.6870   14.4205 H         1 RES1    0.0000
     26 H7         0.4807    9.4046   11.0284 H         1 RES1    0.0000
     27 H8         2.1141    8.9771   11.1621 H         1 RES1    0.0000
     28 H9         0.7987    8.2931   11.9642 H         1 RES1    0.0000
     29 H10        4.7776   11.3068   11.0786 H         1 RES1    0.0000
     30 H11        6.8914    7.1389   14.5709 H         1 RES1    0.0000
     31 H12        5.3322    8.7206   17.8460 H         1 RES1    0.0000
     32 H13        5.7165    7.0320   12.5323 H         1 RES1    0.0000
     33 H14        4.2034    6.6901   12.7997 H         1 RES1    0.0000
     34 H15        4.5147    8.0366   12.3485 H         1 RES1    0.0000
     35 H16        8.0154    6.9252   16.7766 H         1 RES1    0.0000
     36 H17        8.2591    8.4427   16.7599 H         1 RES1    0.0000
     37 H18        7.4316    7.8870   17.9296 H         1 RES1    0.0000
     38 H19        2.6107   10.0458   16.5093 H         1 RES1    0.0000
     39 H20        3.0451    9.6183   18.0298 H         1 RES1    0.0000
     40 H21        2.1501    8.7206   17.1776 H         1 RES1    0.0000
     41 O4         4.0917    4.6119   15.7227 O.3       2 RES2    0.0000
     42 N2         3.9337    3.2061   15.6188 N.am      2 RES2    0.0000
     43 C16        3.1311    2.6670   16.7412 C.3       2 RES2    0.0000
     44 C17        2.5572    3.9696   17.3372 C.3       2 RES2    0.0000
     45 C18        2.8703    5.0554   16.3228 C.3       2 RES2    0.0000
     46 C19        2.0517    1.7527   16.2220 C.3       2 RES2    0.0000
     47 C20        4.0394    1.9497   17.7204 C.3       2 RES2    0.0000
     48 O5         1.8601    5.1714   15.4086 O.3       2 RES2    0.0000
     49 C21        4.6596    2.5698   14.7148 C.2       2 RES2    0.0000
     50 O6         4.6316    1.3299   14.6289 O.2       2 RES2    0.0000
     51 C22        5.5295    3.3743   13.8096 C.ar      2 RES2    0.0000
     52 C23        6.7815    3.7969   14.2588 C.ar      2 RES2    0.0000
     53 C24        7.6351    4.4037   13.3449 C.ar      2 RES2    0.0000
     54 C25        7.2756    4.5817   12.0137 C.ar      2 RES2    0.0000
     55 C26        6.0412    4.1628   11.6201 C.ar      2 RES2    0.0000
     56 C27        5.1401    3.5718   12.4899 C.ar      2 RES2    0.0000
     57 C28        7.1842    3.6167   15.6891 C.3       2 RES2    0.0000
     58 C29        8.2138    5.2657   11.0455 C.3       2 RES2    0.0000
     59 C30        3.7546    3.1837   12.0305 C.3       2 RES2    0.0000
     60 H22        3.0711    4.1679   18.1969 H         2 RES2    0.0000
     61 H23        1.5821    3.9114   17.5285 H         2 RES2    0.0000
     62 H24        2.9448    5.9420   16.8434 H         2 RES2    0.0000
     63 H25        2.3999    0.8977   15.7573 H         2 RES2    0.0000
     64 H26        1.4486    1.4321   17.0105 H         2 RES2    0.0000
     65 H27        1.5273    2.2443   15.4900 H         2 RES2    0.0000
     66 H28        4.4848    1.2397   17.3113 H         2 RES2    0.0000
     67 H29        4.7384    2.5863   18.0967 H         2 RES2    0.0000
     68 H30        3.4565    1.7099   18.5646 H         2 RES2    0.0000
     69 H31        1.8598    5.9847   14.9218 H         2 RES2    0.0000
     70 H32        8.4932    4.7237   13.6519 H         2 RES2    0.0000
     71 H33        5.7476    4.3389   10.7277 H         2 RES2    0.0000
     72 H34        8.0181    3.9328   15.8576 H         2 RES2    0.0000
     73 H35        6.5182    4.0611   16.3087 H         2 RES2    0.0000
     74 H36        6.8305    2.7786   16.4257 H         2 RES2    0.0000
     75 H37        8.9897    5.3649   11.4629 H         2 RES2    0.0000
     76 H38        7.9325    6.1343   10.8112 H         2 RES2    0.0000
     77 H39        8.3207    4.7450   10.2932 H         2 RES2    0.0000
     78 H40        3.0317    3.4198   12.6660 H         2 RES2    0.0000
     79 H41        3.7529    2.2229   11.8806 H         2 RES2    0.0000
     80 H42        3.5892    3.6336   11.1788 H         2 RES2    0.0000
@<TRIPOS>BOND
     1    1    2 1
     2    2    3 1
     3    3    4 1
     4    4    5 1
     5    5    1 1
     6    6    3 1
     7    7    3 1
     8    8    5 1
     9    9    2 1
    10   10    9 2
    11   11    9 1
    12   12   11 ar
    13   13   12 ar
    14   14   13 ar
    15   15   14 ar
    16   16   11 ar
    17   17   12 1
    18   18   14 1
    19   19   16 1
    20   20    4 1
    21   21    4 1
    22   22    5 1
    23   23    6 1
    24   24    6 1
    25   25    6 1
    26   26    7 1
    27   27    7 1
    28   28    7 1
    29   29    8 1
    30   30   13 1
    31   31   15 1
    32   32   17 1
    33   33   17 1
    34   34   17 1
    35   35   18 1
    36   36   18 1
    37   37   18 1
    38   38   19 1
    39   39   19 1
    40   40   19 1
    41   41   42 1
    42   42   43 1
    43   43   44 1
    44   44   45 1
    45   45   41 1
    46   46   43 1
    47   47   43 1
    48   48   45 1
    49   49   42 1
    50   50   49 2
    51   51   49 1
    52   52   51 ar
    53   53   52 ar
    54   54   53 ar
    55   55   54 ar
    56   56   51 ar
    57   57   52 1
    58   58   54 1
    59   59   56 1
    60   60   44 1
    61   61   44 1
    62   62   45 1
    63   63   46 1
    64   64   46 1
    65   65   46 1
    66   66   47 1
    67   67   47 1
    68   68   47 1
    69   69   48 1
    70   70   53 1
    71   71   55 1
    72   72   57 1
    73   73   57 1
    74   74   57 1
    75   75   58 1
    76   76   58 1
    77   77   58 1
    78   78   59 1
    79   79   59 1
    80   80   59 1
    81   15   16 ar
    82   55   56 ar
@<TRIPOS>SUBSTRUCTURE
     1 RES1 1
     2 RES2 41

@<TRIPOS>CRYSIN
   8.5510   21.3740   17.2410  90.0000 104.2600  90.0000  14 1

