# MOL2 file generated by ConQuest
# Please check atom types

@<TRIPOS>MOLECULE
BIHMEK
   155   165     2
SMALL
NO_CHARGES
****
Generated from CSD

@<TRIPOS>ATOM
      1 C1         4.8408   39.3956    0.9504 C.3       1 RES1    0.0000
      2 C2         3.5827   39.4272    0.1723 C.3       1 RES1    0.0000
      3 C3         2.4006   39.9095    1.0522 C.3       1 RES1    0.0000
      4 C4         2.2637   39.1782    2.2840 C.3       1 RES1    0.0000
      5 C5         3.6424   38.9608    3.0637 C.3       1 RES1    0.0000
      6 C6         3.3689   38.1109    4.2220 C.3       1 RES1    0.0000
      7 C7         3.1318   36.7036    3.8062 C.2       1 RES1    0.0000
      8 C8         3.8114   36.2253    2.6100 C.2       1 RES1    0.0000
      9 C9         4.5784   37.0436    1.8363 C.2       1 RES1    0.0000
     10 C10        4.7460   38.5220    2.1630 C.3       1 RES1    0.0000
     11 C11        5.2780   36.4901    0.6505 C.3       1 RES1    0.0000
     12 C12        5.7468   35.0592    0.9475 C.3       1 RES1    0.0000
     13 C13        4.6130   34.0986    1.2905 C.3       1 RES1    0.0000
     14 C14        3.5383   34.7864    2.1934 C.3       1 RES1    0.0000
     15 C15        2.1873   34.5492    1.5482 C.3       1 RES1    0.0000
     16 C16        2.3897   33.3396    0.6631 C.3       1 RES1    0.0000
     17 C17        3.7992   33.6242    0.0327 C.3       1 RES1    0.0000
     18 C18        5.2060   32.8771    2.0167 C.3       1 RES1    0.0000
     19 C19        6.1367   38.6920    2.9263 C.3       1 RES1    0.0000
     20 C20        4.4101   32.4541   -0.6995 C.2       1 RES1    0.0000
     21 C21        5.1365   32.7071   -1.7516 C.2       1 RES1    0.0000
     22 C22        4.1318   31.1022   -0.4203 C.2       1 RES1    0.0000
     23 C23        4.6917   30.2088   -1.1472 C.2       1 RES1    0.0000
     24 C24        5.4354   30.4895   -2.1779 C.2       1 RES1    0.0000
     25 C25        1.6326   42.1983    1.2282 C.2       1 RES1    0.0000
     26 C26        2.2514   43.6490    1.5400 C.3       1 RES1    0.0000
     27 C27        0.6178   35.8814    0.3891 C.2       1 RES1    0.0000
     28 C28        0.4430   36.9685   -0.6564 C.ar      1 RES1    0.0000
     29 C29       -0.5840   37.8974   -0.6029 C.ar      1 RES1    0.0000
     30 C30       -0.7272   38.8303   -1.6848 C.ar      1 RES1    0.0000
     31 C31        0.1495   38.6801   -2.7370 C.ar      1 RES1    0.0000
     32 C32        1.1243   37.8184   -2.7719 C.ar      1 RES1    0.0000
     33 C33        1.2402   36.9487   -1.6982 C.ar      1 RES1    0.0000
     34 O1         2.7099   41.3089    1.3455 O.3       1 RES1    0.0000
     35 O2         2.4391   35.9604    4.4901 O.2       1 RES1    0.0000
     36 O3         1.8710   35.7391    0.7403 O.3       1 RES1    0.0000
     37 O4         5.7144   31.8177   -2.5513 O.3       1 RES1    0.0000
     38 O5         6.0036   29.6712   -3.0615 O.2       1 RES1    0.0000
     39 O6         0.5785   41.8820    1.0128 O.2       1 RES1    0.0000
     40 O7        -0.3036   35.0987    0.7188 O.2       1 RES1    0.0000
     41 O8        -0.9306   37.7314    1.5890 O.2       1 RES1    0.0000
     42 O9        -2.5289   38.5338    0.4366 O.2       1 RES1    0.0000
     43 N1        -1.4297   37.9923    0.5703 N.pl3     1 RES1    0.0000
     44 H1         5.5680   39.0517    0.3557 H         1 RES1    0.0000
     45 H2         5.0599   40.3246    1.2430 H         1 RES1    0.0000
     46 H3         3.6861   40.0439   -0.6052 H         1 RES1    0.0000
     47 H4         3.3790   38.5062   -0.1596 H         1 RES1    0.0000
     48 H5         1.5400   39.7711    0.5621 H         1 RES1    0.0000
     49 H6         1.6378   39.6842    2.8758 H         1 RES1    0.0000
     50 H7         1.8739   38.2809    2.0784 H         1 RES1    0.0000
     51 H8         3.9966   39.8304    3.4082 H         1 RES1    0.0000
     52 H9         4.1549   38.1425    4.8398 H         1 RES1    0.0000
     53 H10        2.5572   38.4508    4.6973 H         1 RES1    0.0000
     54 H11        4.6494   36.4901   -0.1285 H         1 RES1    0.0000
     55 H12        6.0710   37.0633    0.4374 H         1 RES1    0.0000
     56 H13        6.3884   35.0789    1.7145 H         1 RES1    0.0000
     57 H14        6.2118   34.7113    0.1337 H         1 RES1    0.0000
     58 H15        3.5718   34.3516    3.0934 H         1 RES1    0.0000
     59 H16        1.4450   34.4030    2.2038 H         1 RES1    0.0000
     60 H17        2.3892   32.4937    1.1984 H         1 RES1    0.0000
     61 H18        1.6125   33.2882   -0.0408 H         1 RES1    0.0000
     62 H19        3.7845   34.2923   -0.7106 H         1 RES1    0.0000
     63 H20        4.5528   32.1537    2.2402 H         1 RES1    0.0000
     64 H21        5.4325   33.3910    2.8446 H         1 RES1    0.0000
     65 H22        6.0384   32.4699    1.6403 H         1 RES1    0.0000
     66 H23        5.9814   38.4192    3.8768 H         1 RES1    0.0000
     67 H24        6.3178   39.6723    2.8840 H         1 RES1    0.0000
     68 H25        6.9228   38.1899    2.5632 H         1 RES1    0.0000
     69 H26        5.2885   33.6717   -1.9774 H         1 RES1    0.0000
     70 H27        3.5125   30.8453    0.3230 H         1 RES1    0.0000
     71 H28        4.5617   29.2482   -0.9007 H         1 RES1    0.0000
     72 H29        1.5353   44.3052    1.3017 H         1 RES1    0.0000
     73 H30        3.1181   43.9415    1.1346 H         1 RES1    0.0000
     74 H31        2.3474   43.6055    2.5343 H         1 RES1    0.0000
     75 H32       -1.3941   39.5577   -1.7346 H         1 RES1    0.0000
     76 H33        0.0160   39.2691   -3.5345 H         1 RES1    0.0000
     77 H34        1.7606   37.7788   -3.5426 H         1 RES1    0.0000
     78 H35        1.9781   36.2767   -1.7160 H         1 RES1    0.0000
     79 C34        9.9632   26.4179    4.4084 C.3       2 RES2    0.0000
     80 C35        8.9458   26.3784    3.3518 C.3       2 RES2    0.0000
     81 C36        9.5388   25.7459    2.0717 C.3       2 RES2    0.0000
     82 C37       10.8136   26.5009    1.6655 C.3       2 RES2    0.0000
     83 C38       11.8007   26.6907    2.7533 C.3       2 RES2    0.0000
     84 C39       12.8889   27.6038    2.2157 C.3       2 RES2    0.0000
     85 C40       12.4073   29.0546    1.9699 C.2       2 RES2    0.0000
     86 C41       11.3784   29.5171    2.8840 C.2       2 RES2    0.0000
     87 C42       10.8184   28.7739    3.8441 C.2       2 RES2    0.0000
     88 C43       11.1803   27.3034    4.0253 C.3       2 RES2    0.0000
     89 C44        9.8661   29.3906    4.8138 C.3       2 RES2    0.0000
     90 C45       10.2778   30.8927    5.0997 C.3       2 RES2    0.0000
     91 C46       10.3433   31.7189    3.8641 C.3       2 RES2    0.0000
     92 C47       10.9741   30.9441    2.6412 C.3       2 RES2    0.0000
     93 C48        9.9644   31.1062    1.5081 C.3       2 RES2    0.0000
     94 C49        9.0901   32.3197    1.8348 C.3       2 RES2    0.0000
     95 C50        8.9294   32.1300    3.3266 C.3       2 RES2    0.0000
     96 C51       11.1719   32.9443    4.1916 C.3       2 RES2    0.0000
     97 C52       12.2113   27.2362    5.1458 C.3       2 RES2    0.0000
     98 C53        8.2453   33.2526    4.0624 C.2       2 RES2    0.0000
     99 C54        7.4043   33.0313    5.0299 C.2       2 RES2    0.0000
    100 C55        8.4222   34.5808    3.7223 C.2       2 RES2    0.0000
    101 C56        7.6784   35.5691    4.3067 C.2       2 RES2    0.0000
    102 C57        6.8280   35.3280    5.2668 C.2       2 RES2    0.0000
    103 C58        9.0835   23.3859    2.2580 C.2       2 RES2    0.0000
    104 C59        9.7809   22.0736    2.7273 C.3       2 RES2    0.0000
    105 C60        8.2831   29.7068    0.4626 C.2       2 RES2    0.0000
    106 C61        7.2858   28.6355    0.6839 C.ar      2 RES2    0.0000
    107 C62        7.0989   27.5959   -0.1901 C.ar      2 RES2    0.0000
    108 C63        6.0450   26.6986    0.0408 C.ar      2 RES2    0.0000
    109 C64        5.2758   26.8409    1.1287 C.ar      2 RES2    0.0000
    110 C65        5.4442   27.8924    1.9722 C.ar      2 RES2    0.0000
    111 C66        6.4588   28.7937    1.7271 C.ar      2 RES2    0.0000
    112 O10        9.9742   24.3861    2.3850 O.3       2 RES2    0.0000
    113 O11       12.8347   29.6752    1.0388 O.2       2 RES2    0.0000
    114 O12        9.0863   29.9124    1.4806 O.3       2 RES2    0.0000
    115 O13        6.6404   33.9879    5.6544 O.3       2 RES2    0.0000
    116 O14        6.1728   36.1383    5.8267 O.2       2 RES2    0.0000
    117 O15        7.9761   23.6627    1.9113 O.2       2 RES2    0.0000
    118 O16        8.3208   30.4065   -0.5784 O.2       2 RES2    0.0000
    119 O17        9.0728   27.7105   -1.2051 O.2       2 RES2    0.0000
    120 O18        7.5563   26.8053   -2.2952 O.2       2 RES2    0.0000
    121 N2         7.9387   27.3508   -1.2348 N.pl3     2 RES2    0.0000
    122 H36       10.2796   25.4850    4.5770 H         2 RES2    0.0000
    123 H37        8.1620   25.8368    3.6599 H         2 RES2    0.0000
    124 H38        8.6496   27.3113    3.1513 H         2 RES2    0.0000
    125 H39        8.8389   25.7736    1.3574 H         2 RES2    0.0000
    126 H40       10.5463   27.4061    1.3351 H         2 RES2    0.0000
    127 H41       11.2504   25.9910    0.9245 H         2 RES2    0.0000
    128 H42       12.1656   25.7973    3.0184 H         2 RES2    0.0000
    129 H43       13.6376   27.6275    2.8788 H         2 RES2    0.0000
    130 H44       13.2219   27.2283    1.3507 H         2 RES2    0.0000
    131 H45        8.9408   29.3668    4.4344 H         2 RES2    0.0000
    132 H46        9.8891   28.8727    5.6692 H         2 RES2    0.0000
    133 H47       11.1763   30.8966    5.5371 H         2 RES2    0.0000
    134 H48        9.6024   31.2919    5.7183 H         2 RES2    0.0000
    135 H49       11.8641   31.3433    2.4244 H         2 RES2    0.0000
    136 H50       10.4307   31.2129    0.6297 H         2 RES2    0.0000
    137 H51        8.2143   32.2921    1.3514 H         2 RES2    0.0000
    138 H52        9.5614   33.1775    1.6247 H         2 RES2    0.0000
    139 H53        8.2605   31.4066    3.5085 H         2 RES2    0.0000
    140 H54       11.6179   33.6993    3.7097 H         2 RES2    0.0000
    141 H55       11.8456   32.2367    4.3958 H         2 RES2    0.0000
    142 H56       10.7751   33.2843    5.0448 H         2 RES2    0.0000
    143 H57       12.6378   26.3388    5.2712 H         2 RES2    0.0000
    144 H58       11.8243   27.5445    6.0138 H         2 RES2    0.0000
    145 H59       12.8998   27.8924    4.8346 H         2 RES2    0.0000
    146 H60        7.3110   32.0865    5.3470 H         2 RES2    0.0000
    147 H61        9.0976   34.8220    3.0266 H         2 RES2    0.0000
    148 H62        7.8004   36.5099    3.9926 H         2 RES2    0.0000
    149 H63        9.1359   21.3106    2.7763 H         2 RES2    0.0000
    150 H64       10.0893   22.3107    3.6488 H         2 RES2    0.0000
    151 H65       10.5668   21.8087    2.1689 H         2 RES2    0.0000
    152 H66        5.8617   25.9554   -0.6059 H         2 RES2    0.0000
    153 H67        4.5676   26.1649    1.3232 H         2 RES2    0.0000
    154 H68        4.8425   28.0031    2.7630 H         2 RES2    0.0000
    155 H69        6.5806   29.5763    2.3390 H         2 RES2    0.0000
@<TRIPOS>BOND
     1    1    2 1
     2    2    3 1
     3    3    4 1
     4    4    5 1
     5    5    6 1
     6    6    7 1
     7    7    8 1
     8    8    9 2
     9    9   10 1
    10   10    1 1
    11   11    9 1
    12   12   11 1
    13   13   12 1
    14   14    8 1
    15   15   14 1
    16   16   15 1
    17   17   13 1
    18   18   13 1
    19   19   10 1
    20   20   17 1
    21   21   20 2
    22   22   20 1
    23   23   22 2
    24   24   23 1
    25   25   26 1
    26   26   72 1
    27   27   28 1
    28   28   29 ar
    29   29   30 ar
    30   30   31 ar
    31   31   32 ar
    32   32   33 ar
    33   33   28 ar
    34   34    3 1
    35   35    7 2
    36   36   15 1
    37   37   21 1
    38   38   24 2
    39   39   25 2
    40   40   27 2
    41   41   43 2
    42   42   43 2
    43   43   29 1
    44   44    1 1
    45   45    1 1
    46   46    2 1
    47   47    2 1
    48   48    3 1
    49   49    4 1
    50   50    4 1
    51   51    5 1
    52   52    6 1
    53   53    6 1
    54   54   11 1
    55   55   11 1
    56   56   12 1
    57   57   12 1
    58   58   14 1
    59   59   15 1
    60   60   16 1
    61   61   16 1
    62   62   17 1
    63   63   18 1
    64   64   18 1
    65   65   18 1
    66   66   19 1
    67   67   19 1
    68   68   19 1
    69   69   21 1
    70   70   22 1
    71   71   23 1
    72   73   26 1
    73   74   26 1
    74   75   30 1
    75   76   31 1
    76   77   32 1
    77   78   33 1
    78   79   80 1
    79   80   81 1
    80   81   82 1
    81   82   83 1
    82   83   84 1
    83   84   85 1
    84   85   86 1
    85   86   87 2
    86   87   88 1
    87   88   79 1
    88   89   87 1
    89   90   89 1
    90   91   90 1
    91   92   86 1
    92   93   92 1
    93   94   93 1
    94   95   91 1
    95   96   91 1
    96   97   88 1
    97   98   95 1
    98   99   98 2
    99  100   98 1
   100  101  100 2
   101  102  101 1
   102  103  104 1
   103  104  149 1
   104  105  106 1
   105  106  107 ar
   106  107  108 ar
   107  108  109 ar
   108  109  110 ar
   109  110  111 ar
   110  111  106 ar
   111  112   81 1
   112  113   85 2
   113  114   93 1
   114  115   99 1
   115  116  102 2
   116  117  103 2
   117  118  105 2
   118  119  121 2
   119  120  121 2
   120  121  107 1
   121  122   79 1
   122  123   80 1
   123  124   80 1
   124  125   81 1
   125  126   82 1
   126  127   82 1
   127  128   83 1
   128  129   84 1
   129  130   84 1
   130  131   89 1
   131  132   89 1
   132  133   90 1
   133  134   90 1
   134  135   92 1
   135  136   93 1
   136  137   94 1
   137  138   94 1
   138  139   95 1
   139  140   96 1
   140  141   96 1
   141  142   96 1
   142  143   97 1
   143  144   97 1
   144  145   97 1
   145  146   99 1
   146  147  100 1
   147  148  101 1
   148  150  104 1
   149  151  104 1
   150  152  108 1
   151  153  109 1
   152  154  110 1
   153  155  111 1
   154    5   10 1
   155   13   14 1
   156   16   17 1
   157   24   37 1
   158   25   34 1
   159   27   36 1
   160   83   88 1
   161   91   92 1
   162   94   95 1
   163  102  115 1
   164  103  112 1
   165  105  114 1
@<TRIPOS>SUBSTRUCTURE
     1 RES1 1
     2 RES2 79

@<TRIPOS>CRYSIN
  11.3010   39.5300    7.6500  90.0000 103.9200  90.0000   4 1

