# MOL2 file generated by ConQuest
# Please check atom types

@<TRIPOS>MOLECULE
BIHVIY
    40    41     1
SMALL
NO_CHARGES
****
Generated from CSD

@<TRIPOS>ATOM
      1 O1         0.9608   -1.1500   -0.7081 O.2       1 RES1    0.0000
      2 O2         2.3014   -2.1116    0.6750 O.2       1 RES1    0.0000
      3 O3         6.6566    2.3744    0.6555 O.2       1 RES1    0.0000
      4 O4         4.8971    2.6515    1.8084 O.2       1 RES1    0.0000
      5 O5         6.2135    0.7732   -3.9078 O.2       1 RES1    0.0000
      6 O6         4.3014   -0.2401   -4.4733 O.3       1 RES1    0.0000
      7 O7         0.2506    0.3634    7.6099 O.3       1 RES1    0.0000
      8 N1         2.0342   -1.2625   -0.1418 N.pl3     1 RES1    0.0000
      9 N2         5.4861    2.1496    0.8988 N.pl3     1 RES1    0.0000
     10 C1         3.6829    0.4864    0.4602 C.ar      1 RES1    0.0000
     11 C2         3.0869   -0.3030   -0.5217 C.ar      1 RES1    0.0000
     12 C3         3.4660   -0.3262   -1.8503 C.ar      1 RES1    0.0000
     13 H1         2.9940   -0.8365   -2.4674 H         1 RES1    0.0000
     14 C4         4.5616    0.4246   -2.2468 C.ar      1 RES1    0.0000
     15 C5         5.2133    1.2105   -1.3180 C.ar      1 RES1    0.0000
     16 H2         5.9567    1.7103   -1.5677 H         1 RES1    0.0000
     17 C6         4.7560    1.2513   -0.0148 C.ar      1 RES1    0.0000
     18 C7         3.2561    0.4618    1.8709 C.2       1 RES1    0.0000
     19 H3         3.9140    0.3501    2.5181 H         1 RES1    0.0000
     20 C8         2.0120    0.5863    2.2793 C.2       1 RES1    0.0000
     21 H4         1.3658    0.7254    1.6242 H         1 RES1    0.0000
     22 C9         1.5479    0.5272    3.6671 C.ar      1 RES1    0.0000
     23 C10        2.3804    0.1561    4.7246 C.ar      1 RES1    0.0000
     24 H5         3.2683   -0.0576    4.5532 H         1 RES1    0.0000
     25 C11        1.9130    0.1012    6.0113 C.ar      1 RES1    0.0000
     26 H6         2.4820   -0.1603    6.6993 H         1 RES1    0.0000
     27 C12        0.5942    0.4337    6.2954 C.ar      1 RES1    0.0000
     28 C13       -0.2436    0.8217    5.2763 C.ar      1 RES1    0.0000
     29 H7        -1.1224    1.0650    5.4568 H         1 RES1    0.0000
     30 C14        0.2362    0.8471    3.9773 C.ar      1 RES1    0.0000
     31 H8        -0.3416    1.0875    3.2893 H         1 RES1    0.0000
     32 C15       -1.0324    0.8253    7.9975 C.3       1 RES1    0.0000
     33 H9        -1.1352    1.7426    7.7354 H         1 RES1    0.0000
     34 H10       -1.1248    0.7515    8.9506 H         1 RES1    0.0000
     35 H11       -1.7071    0.2931    7.5698 H         1 RES1    0.0000
     36 C16        5.1255    0.3508   -3.6279 C.2       1 RES1    0.0000
     37 C17        4.7925   -0.3873   -5.8315 C.3       1 RES1    0.0000
     38 H12        4.9234    0.4808   -6.2202 H         1 RES1    0.0000
     39 H13        4.1523   -0.8773   -6.3527 H         1 RES1    0.0000
     40 H14        5.6265   -0.8625   -5.8210 H         1 RES1    0.0000
@<TRIPOS>BOND
     1    1    8 2
     2    2    8 2
     3    3    9 2
     4    4    9 2
     5    5   36 2
     6    6   36 1
     7    7   27 1
     8    8   11 1
     9    9   17 1
    10   10   11 ar
    11   11   12 ar
    12   12   13 1
    13   14   12 ar
    14   15   14 ar
    15   16   15 1
    16   17   10 ar
    17   18   10 1
    18   19   18 1
    19   20   18 2
    20   21   20 1
    21   22   20 1
    22   23   22 ar
    23   24   23 1
    24   25   23 ar
    25   26   25 1
    26   27   25 ar
    27   28   27 ar
    28   29   28 1
    29   30   22 ar
    30   31   30 1
    31   32    7 1
    32   33   32 1
    33   34   32 1
    34   35   32 1
    35   36   14 1
    36   37    6 1
    37   38   37 1
    38   39   37 1
    39   40   37 1
    40   15   17 ar
    41   28   30 ar
@<TRIPOS>SUBSTRUCTURE
     1 RES1 1

@<TRIPOS>CRYSIN
  12.0496    7.0295   19.8296  90.0000 100.8560  90.0000  14 1

