# MOL2 file generated by ConQuest
# Please check atom types

@<TRIPOS>MOLECULE
BIHVUK
    37    38     1
SMALL
NO_CHARGES
****
Generated from CSD

@<TRIPOS>ATOM
      1 O1         8.7080   10.4031   12.0394 O.2       1 RES1    0.0000
      2 O2         7.7975    9.7985   13.8958 O.2       1 RES1    0.0000
      3 O3         3.6496    0.9089   14.5306 O.3       1 RES1    0.0000
      4 O4         2.9021   -1.1992   13.3260 O.3       1 RES1    0.0000
      5 N1         8.0987    9.5944   12.7182 N.pl3     1 RES1    0.0000
      6 N2         6.3911    4.8837   10.2974 N.pl3     1 RES1    0.0000
      7 H1         6.5486    4.7720    9.4600 H         1 RES1    0.0000
      8 N3         5.6933    3.9492   10.9901 N.2       1 RES1    0.0000
      9 C1         7.7044    8.3424   12.1173 C.ar      1 RES1    0.0000
     10 C2         6.9887    7.4265   12.8602 C.ar      1 RES1    0.0000
     11 H2         6.7939    7.6027   13.7529 H         1 RES1    0.0000
     12 C3         6.5673    6.2599   12.2858 C.ar      1 RES1    0.0000
     13 H3         6.0977    5.6374   12.7935 H         1 RES1    0.0000
     14 C4         6.8397    5.9968   10.9310 C.ar      1 RES1    0.0000
     15 C5         7.5941    6.9297   10.2119 C.ar      1 RES1    0.0000
     16 H4         7.8107    6.7559    9.3236 H         1 RES1    0.0000
     17 C6         8.0172    8.0886   10.7883 C.ar      1 RES1    0.0000
     18 H5         8.5108    8.7049   10.2976 H         1 RES1    0.0000
     19 C7         5.3417    2.8874   10.3806 C.2       1 RES1    0.0000
     20 H6         5.5427    2.7818    9.4795 H         1 RES1    0.0000
     21 C8         4.6260    1.8372   11.0900 C.ar      1 RES1    0.0000
     22 C9         4.4289    1.9358   12.4777 C.ar      1 RES1    0.0000
     23 H7         4.7021    2.7027   12.9274 H         1 RES1    0.0000
     24 C10        3.8405    0.9198   13.1719 C.ar      1 RES1    0.0000
     25 C11        3.4253   -0.2360   12.5047 C.ar      1 RES1    0.0000
     26 C12        3.5821   -0.3361   11.1428 C.ar      1 RES1    0.0000
     27 H8         3.2832   -1.0929   10.6921 H         1 RES1    0.0000
     28 C13        4.1898    0.6970   10.4435 C.ar      1 RES1    0.0000
     29 H9         4.3047    0.6209    9.5233 H         1 RES1    0.0000
     30 C14        3.9655    2.0934   15.2365 C.3       1 RES1    0.0000
     31 H10        3.7893    1.9645   16.1708 H         1 RES1    0.0000
     32 H11        3.4276    2.8160   14.9046 H         1 RES1    0.0000
     33 H12        4.8938    2.3021   15.1116 H         1 RES1    0.0000
     34 C15        2.4465   -2.4194   12.7294 C.3       1 RES1    0.0000
     35 H13        2.1034   -3.0007   13.4120 H         1 RES1    0.0000
     36 H14        3.1785   -2.8486   12.2821 H         1 RES1    0.0000
     37 H15        1.7526   -2.2253   12.0946 H         1 RES1    0.0000
@<TRIPOS>BOND
     1    1    5 2
     2    2    5 2
     3    3   24 1
     4    4   25 1
     5    5    9 1
     6    6    7 1
     7    8    6 1
     8    9   10 ar
     9   10   11 1
    10   12   10 ar
    11   13   12 1
    12   14    6 1
    13   15   14 ar
    14   16   15 1
    15   17    9 ar
    16   18   17 1
    17   19    8 2
    18   20   19 1
    19   21   19 1
    20   22   21 ar
    21   23   22 1
    22   24   22 ar
    23   25   24 ar
    24   26   25 ar
    25   27   26 1
    26   28   21 ar
    27   29   28 1
    28   30    3 1
    29   31   30 1
    30   32   30 1
    31   33   30 1
    32   34    4 1
    33   35   34 1
    34   36   34 1
    35   37   34 1
    36   12   14 ar
    37   15   17 ar
    38   26   28 ar
@<TRIPOS>SUBSTRUCTURE
     1 RES1 1

@<TRIPOS>CRYSIN
   7.7618    7.7618   24.3500  90.0000  90.0000  90.0000  76 1

