# MOL2 file generated by ConQuest
# Please check atom types

@<TRIPOS>MOLECULE
BIHVOE
    38    39     1
SMALL
NO_CHARGES
****
Generated from CSD

@<TRIPOS>ATOM
      1 O1         2.7544    3.2904   -1.2396 O.2       1 RES1    0.0000
      2 O2         3.2726    1.3057   -0.7222 O.2       1 RES1    0.0000
      3 O3         4.7817    0.0451    3.5219 O.2       1 RES1    0.0000
      4 O4         5.1857    1.5056    5.0396 O.2       1 RES1    0.0000
      5 O5         3.5235    5.2079    0.2764 O.3       1 RES1    0.0000
      6 N1         3.2056    2.4849   -0.4649 N.pl3     1 RES1    0.0000
      7 N2         4.8315    1.1948    3.9179 N.pl3     1 RES1    0.0000
      8 C1         3.8282    4.2810    1.1921 C.ar      1 RES1    0.0000
      9 C2         3.6989    2.9189    0.8457 C.ar      1 RES1    0.0000
     10 C3         4.0309    1.9179    1.7334 C.ar      1 RES1    0.0000
     11 H1         3.9479    1.0238    1.4924 H         1 RES1    0.0000
     12 C4         4.4891    2.2701    2.9851 C.ar      1 RES1    0.0000
     13 C5         4.6201    3.5907    3.3738 C.ar      1 RES1    0.0000
     14 H2         4.9257    3.8040    4.2253 H         1 RES1    0.0000
     15 C6         4.2922    4.5858    2.4802 C.ar      1 RES1    0.0000
     16 H3         4.3801    5.4755    2.7345 H         1 RES1    0.0000
     17 C7         3.6465    6.5960    0.6247 C.3       1 RES1    0.0000
     18 H4         4.5596    6.8112    0.8714 H         1 RES1    0.0000
     19 H5         3.0599    6.8196    1.3640 H         1 RES1    0.0000
     20 C7D        3.2411    7.3329   -0.6247 C.3       1 RES1    0.0000
     21 O5D        3.3641    8.7210   -0.2764 O.3       1 RES1    0.0000
     22 C1D        3.0594    9.6479   -1.1921 C.ar      1 RES1    0.0000
     23 C2D        3.1887   11.0100   -0.8457 C.ar      1 RES1    0.0000
     24 N1D        3.6820   11.4440    0.4649 N.pl3     1 RES1    0.0000
     25 O1D        4.1332   10.6385    1.2396 O.2       1 RES1    0.0000
     26 O2D        3.6150   12.6232    0.7222 O.2       1 RES1    0.0000
     27 C3D        2.8567   12.0110   -1.7334 C.ar      1 RES1    0.0000
     28 H1D        2.9397   12.9051   -1.4924 H         1 RES1    0.0000
     29 C4D        2.3985   11.6588   -2.9851 C.ar      1 RES1    0.0000
     30 N2D        2.0561   12.7341   -3.9179 N.pl3     1 RES1    0.0000
     31 O3D        2.1059   13.8838   -3.5219 O.2       1 RES1    0.0000
     32 O4D        1.7019   12.4233   -5.0396 O.2       1 RES1    0.0000
     33 C5D        2.2675   10.3382   -3.3738 C.ar      1 RES1    0.0000
     34 H2D        1.9619   10.1249   -4.2253 H         1 RES1    0.0000
     35 C6D        2.5954    9.3431   -2.4802 C.ar      1 RES1    0.0000
     36 H3D        2.5075    8.4534   -2.7345 H         1 RES1    0.0000
     37 H4D        2.3280    7.1177   -0.8714 H         1 RES1    0.0000
     38 H5D        3.8277    7.1093   -1.3640 H         1 RES1    0.0000
@<TRIPOS>BOND
     1    1    6 2
     2    2    6 2
     3    3    7 2
     4    4    7 2
     5    5    8 1
     6    6    9 1
     7    7   12 1
     8    8    9 ar
     9    9   10 ar
    10   10   11 1
    11   12   10 ar
    12   13   12 ar
    13   14   13 1
    14   15    8 ar
    15   16   15 1
    16   17    5 1
    17   18   17 1
    18   19   17 1
    19   20   17 1
    20   21   20 1
    21   22   21 1
    22   23   22 ar
    23   24   23 1
    24   25   24 2
    25   26   24 2
    26   27   23 ar
    27   28   27 1
    28   29   27 ar
    29   30   29 1
    30   31   30 2
    31   32   30 2
    32   33   29 ar
    33   34   33 1
    34   35   22 ar
    35   36   35 1
    36   37   20 1
    37   38   20 1
    38   13   15 ar
    39   33   35 ar
@<TRIPOS>SUBSTRUCTURE
     1 RES1 1

@<TRIPOS>CRYSIN
   6.8876   13.9289   16.5396  90.0000  95.1460  90.0000  15 1

