# MOL2 file generated by ConQuest
# Please check atom types

@<TRIPOS>MOLECULE
BIHWIZ
    73    76     1
SMALL
NO_CHARGES
****
Generated from CSD

@<TRIPOS>ATOM
      1 O1        10.2011    1.1368    1.3208 O.3       1 RES1    0.0000
      2 O2        11.1879    2.2907   -0.8574 O.2       1 RES1    0.0000
      3 O3         9.4883    1.5084   -2.1032 O.3       1 RES1    0.0000
      4 O4         8.3690    3.9165   -0.5174 O.3       1 RES1    0.0000
      5 O5         8.4330    4.0676    1.6944 O.2       1 RES1    0.0000
      6 O6         5.3165    1.8988    1.8135 O.3       1 RES1    0.0000
      7 N1         9.3176    0.8314    2.4366 N.3       1 RES1    0.0000
      8 C1         9.3584    1.1413    0.1872 C.3       1 RES1    0.0000
      9 H1         9.1009    0.2217   -0.0308 H         1 RES1    0.0000
     10 C2        10.1425    1.7236   -0.9574 C.2       1 RES1    0.0000
     11 C3        10.1155    2.0262   -3.3046 C.3       1 RES1    0.0000
     12 H2        10.9413    1.5502   -3.4812 H         1 RES1    0.0000
     13 H3        10.3218    2.9673   -3.1933 H         1 RES1    0.0000
     14 C4         9.1695    1.8409   -4.4350 C.3       1 RES1    0.0000
     15 H4         9.5651    2.1813   -5.2419 H         1 RES1    0.0000
     16 H5         8.3561    2.3163   -4.2525 H         1 RES1    0.0000
     17 H6         8.9774    0.9064   -4.5428 H         1 RES1    0.0000
     18 C5         8.9397    5.6519   -2.0333 C.3       1 RES1    0.0000
     19 H7         9.0578    6.5993   -2.1363 H         1 RES1    0.0000
     20 H8         8.2601    5.3454   -2.6387 H         1 RES1    0.0000
     21 H9         9.7660    5.2026   -2.2264 H         1 RES1    0.0000
     22 C6         8.5321    5.3553   -0.6469 C.3       1 RES1    0.0000
     23 H10        9.2085    5.6704   -0.0261 H         1 RES1    0.0000
     24 H11        7.6961    5.8044   -0.4420 H         1 RES1    0.0000
     25 C7         8.3331    3.4106    0.7074 C.2       1 RES1    0.0000
     26 C8         8.1241    1.9155    0.6706 C.3       1 RES1    0.0000
     27 H12        7.3448    1.6936    0.1185 H         1 RES1    0.0000
     28 C9         7.9599    1.3335    2.0783 C.3       1 RES1    0.0000
     29 H13        7.7082    2.0516    2.6968 H         1 RES1    0.0000
     30 C10        6.9219    0.2259    2.1476 C.ar      1 RES1    0.0000
     31 C11        5.5800    0.5689    2.0045 C.ar      1 RES1    0.0000
     32 C12        3.9580    2.2957    1.7311 C.3       1 RES1    0.0000
     33 H14        3.9092    3.2455    1.5972 H         1 RES1    0.0000
     34 H15        3.5070    2.0649    2.5475 H         1 RES1    0.0000
     35 H16        3.5371    1.8464    0.9953 H         1 RES1    0.0000
     36 C13        4.6048   -0.4135    2.0747 C.ar      1 RES1    0.0000
     37 H17        3.7082   -0.1899    1.9669 H         1 RES1    0.0000
     38 C14        4.9673   -1.7194    2.3034 C.ar      1 RES1    0.0000
     39 H18        4.3025   -2.3680    2.3473 H         1 RES1    0.0000
     40 C15        6.2852   -2.1001    2.4713 C.ar      1 RES1    0.0000
     41 C16        6.6290   -3.5729    2.7264 C.3       1 RES1    0.0000
     42 C17        6.2661   -4.3621    1.4503 C.3       1 RES1    0.0000
     43 H19        6.7575   -4.0089    0.7038 H         1 RES1    0.0000
     44 H20        5.3247   -4.2818    1.2809 H         1 RES1    0.0000
     45 H21        6.4912   -5.2874    1.5712 H         1 RES1    0.0000
     46 C18        5.8617   -4.0931    3.9457 C.ar      1 RES1    0.0000
     47 C19        5.3014   -5.3222    3.9942 C.ar      1 RES1    0.0000
     48 H22        5.3320   -5.8709    3.2442 H         1 RES1    0.0000
     49 C20        4.6767   -5.7806    5.1590 C.ar      1 RES1    0.0000
     50 H23        4.3022   -6.6317    5.1685 H         1 RES1    0.0000
     51 C21        4.6054   -5.0243    6.2574 C.ar      1 RES1    0.0000
     52 H24        4.1848   -5.3343    7.0275 H         1 RES1    0.0000
     53 C22        5.1482   -3.8254    6.2147 C.ar      1 RES1    0.0000
     54 H25        5.1209   -3.2864    6.9719 H         1 RES1    0.0000
     55 C23        5.7551   -3.3550    5.0796 C.ar      1 RES1    0.0000
     56 H26        6.1078   -2.4956    5.0867 H         1 RES1    0.0000
     57 C24        8.1192   -3.7929    2.9966 C.3       1 RES1    0.0000
     58 H27        8.6301   -3.4761    2.2477 H         1 RES1    0.0000
     59 H28        8.2862   -4.7290    3.1245 H         1 RES1    0.0000
     60 H29        8.3767   -3.3101    3.7857 H         1 RES1    0.0000
     61 C25        7.2500   -1.0984    2.3798 C.ar      1 RES1    0.0000
     62 H30        8.1456   -1.3270    2.4788 H         1 RES1    0.0000
     63 C26        9.8978    1.3255    3.6293 C.ar      1 RES1    0.0000
     64 C27       11.2257    1.6929    3.7004 C.ar      1 RES1    0.0000
     65 H31       11.7607    1.6703    2.9409 H         1 RES1    0.0000
     66 C28       11.7508    2.0929    4.9090 C.ar      1 RES1    0.0000
     67 H32       12.6477    2.3349    4.9540 H         1 RES1    0.0000
     68 C29       10.9904    2.1456    6.0488 C.ar      1 RES1    0.0000
     69 H33       11.3589    2.4369    6.8510 H         1 RES1    0.0000
     70 C30        9.6789    1.7583    5.9825 C.ar      1 RES1    0.0000
     71 H34        9.1521    1.7777    6.7491 H         1 RES1    0.0000
     72 C31        9.1296    1.3406    4.7822 C.ar      1 RES1    0.0000
     73 H35        8.2406    1.0690    4.7490 H         1 RES1    0.0000
@<TRIPOS>BOND
     1    1    7 1
     2    2   10 2
     3    3   10 1
     4    4   22 1
     5    5   25 2
     6    6   31 1
     7    7   28 1
     8    8    1 1
     9    9    8 1
    10   10    8 1
    11   11    3 1
    12   12   11 1
    13   13   11 1
    14   14   11 1
    15   15   14 1
    16   16   14 1
    17   17   14 1
    18   18   19 1
    19   20   18 1
    20   21   18 1
    21   22   18 1
    22   23   22 1
    23   24   22 1
    24   25    4 1
    25   26    8 1
    26   27   26 1
    27   28   26 1
    28   29   28 1
    29   30   28 1
    30   31   30 ar
    31   32    6 1
    32   33   32 1
    33   34   32 1
    34   35   32 1
    35   36   31 ar
    36   37   36 1
    37   38   36 ar
    38   39   38 1
    39   40   38 ar
    40   41   40 1
    41   42   41 1
    42   43   42 1
    43   44   42 1
    44   45   42 1
    45   46   41 1
    46   47   46 ar
    47   48   47 1
    48   49   47 ar
    49   50   49 1
    50   51   49 ar
    51   52   51 1
    52   53   51 ar
    53   54   53 1
    54   55   46 ar
    55   56   55 1
    56   57   41 1
    57   58   57 1
    58   59   57 1
    59   60   57 1
    60   61   30 ar
    61   62   61 1
    62   63    7 1
    63   64   63 ar
    64   65   64 1
    65   66   64 ar
    66   67   66 1
    67   68   66 ar
    68   69   68 1
    69   70   68 ar
    70   71   70 1
    71   72   63 ar
    72   73   72 1
    73   25   26 1
    74   40   61 ar
    75   53   55 ar
    76   70   72 ar
@<TRIPOS>SUBSTRUCTURE
     1 RES1 1

@<TRIPOS>CRYSIN
  10.8029   10.9431   12.3760 105.9200  93.8380  94.8040   2 1

