# MOL2 file generated by ConQuest
# Please check atom types

@<TRIPOS>MOLECULE
BIJLAJ
    41    41     1
SMALL
NO_CHARGES
****
Generated from CSD

@<TRIPOS>ATOM
      1 O1        -1.7761    5.9801    9.1517 O.3       1 RES1    0.0000
      2 O2        -2.9594    5.1335    7.4568 O.2       1 RES1    0.0000
      3 N1        -1.2434    6.7966    5.8044 N.pl3     1 RES1    0.0000
      4 H1        -1.6810    7.0796    5.1207 H         1 RES1    0.0000
      5 C1        -1.7210    7.1801    7.1102 C.3       1 RES1    0.0000
      6 H2        -1.0006    7.6211    7.6063 H         1 RES1    0.0000
      7 C2         0.2095    5.6941    4.2564 C.ar      1 RES1    0.0000
      8 H3        -0.3127    6.0109    3.5546 H         1 RES1    0.0000
      9 C3        -2.9063    8.1528    6.9488 C.3       1 RES1    0.0000
     10 H4        -3.5944    7.6858    6.4301 H         1 RES1    0.0000
     11 C4        -2.2158    5.9728    7.8964 C.2       1 RES1    0.0000
     12 C5        -2.5316    9.3931    6.1769 C.2       1 RES1    0.0000
     13 C6         0.6493    5.5036    6.6137 C.ar      1 RES1    0.0000
     14 H5         0.4338    5.6958    7.4980 H         1 RES1    0.0000
     15 C7        -0.1436    6.0149    5.5770 C.ar      1 RES1    0.0000
     16 N2         3.2419    3.6208    4.7385 N.pl3     1 RES1    0.0000
     17 C8         2.0706    4.4370    5.0306 C.ar      1 RES1    0.0000
     18 C9         1.7399    4.7231    6.3335 C.ar      1 RES1    0.0000
     19 H6         2.2589    4.3850    7.0279 H         1 RES1    0.0000
     20 O3         3.9325    3.2436    5.6721 O.2       1 RES1    0.0000
     21 C10        1.3055    4.9260    3.9834 C.ar      1 RES1    0.0000
     22 H7         1.5365    4.7325    3.1029 H         1 RES1    0.0000
     23 O4         3.4795    3.3344    3.5745 O.2       1 RES1    0.0000
     24 C11       -3.5303    8.5242    8.2945 C.3       1 RES1    0.0000
     25 H8        -4.2653    9.1247    8.1511 H         1 RES1    0.0000
     26 H9        -2.8704    8.9522    8.8453 H         1 RES1    0.0000
     27 H10       -3.8467    7.7301    8.7316 H         1 RES1    0.0000
     28 C12       -2.3266    4.9593   10.0322 C.3       1 RES1    0.0000
     29 H11       -2.1184    4.0759    9.6901 H         1 RES1    0.0000
     30 H12       -3.2908    5.0488   10.0843 H         1 RES1    0.0000
     31 C13       -3.2866    9.7837    5.1500 C.2       1 RES1    0.0000
     32 H13       -2.9042   10.5816    4.7774 H         1 RES1    0.0000
     33 H14       -3.2997    9.0936    4.4838 H         1 RES1    0.0000
     34 C14       -1.7220    5.1410   11.3812 C.3       1 RES1    0.0000
     35 H15       -2.0718    4.4785   11.9807 H         1 RES1    0.0000
     36 H16       -1.9354    6.0169   11.7121 H         1 RES1    0.0000
     37 H17       -0.7690    5.0464   11.3201 H         1 RES1    0.0000
     38 C15       -1.3536   10.1695    6.6467 C.3       1 RES1    0.0000
     39 H18       -1.2189   10.9267    6.0716 H         1 RES1    0.0000
     40 H19       -0.5724    9.6100    6.6261 H         1 RES1    0.0000
     41 H20       -1.5062   10.4726    7.5446 H         1 RES1    0.0000
@<TRIPOS>BOND
     1    1   11 1
     2    2   11 2
     3    3    4 1
     4    5    3 1
     5    6    5 1
     6    7    8 1
     7    9    5 1
     8   10    9 1
     9   11    5 1
    10   12    9 1
    11   13   14 1
    12   15    3 1
    13   16   17 1
    14   17   18 ar
    15   18   13 ar
    16   19   18 1
    17   20   16 2
    18   21    7 ar
    19   22   21 1
    20   23   16 2
    21   24    9 1
    22   25   24 1
    23   26   24 1
    24   27   24 1
    25   28    1 1
    26   29   28 1
    27   30   28 1
    28   31   12 2
    29   32   31 1
    30   33   31 1
    31   34   28 1
    32   35   34 1
    33   36   34 1
    34   37   34 1
    35   38   12 1
    36   39   38 1
    37   40   38 1
    38   41   38 1
    39    7   15 ar
    40   13   15 ar
    41   17   21 ar
@<TRIPOS>SUBSTRUCTURE
     1 RES1 1

@<TRIPOS>CRYSIN
  11.8610   11.9810   12.3700  90.0000 118.8900  90.0000  14 1

