# MOL2 file generated by ConQuest
# Please check atom types

@<TRIPOS>MOLECULE
BIJTOD
    42    45     1
SMALL
NO_CHARGES
****
Generated from CSD

@<TRIPOS>ATOM
      1 O1        10.9832    4.8450    1.6999 O.3       1 RES1    0.0000
      2 N1        11.9682    4.8058    0.6791 N.2       1 RES1    0.0000
      3 N2        11.3785    2.7218    1.3020 N.2       1 RES1    0.0000
      4 N3         8.4724    2.2325    4.5516 N.2       1 RES1    0.0000
      5 N4         8.2728    3.5768    4.6294 N.pl3     1 RES1    0.0000
      6 C1        13.9423    3.9235   -1.1679 C.ar      1 RES1    0.0000
      7 C2        14.8085    3.4616   -2.1249 C.ar      1 RES1    0.0000
      8 C3        14.8716    2.1328   -2.4256 C.ar      1 RES1    0.0000
      9 C4        14.0862    1.2433   -1.7475 C.ar      1 RES1    0.0000
     10 C5        13.1967    1.6946   -0.7862 C.ar      1 RES1    0.0000
     11 C6        13.1129    3.0483   -0.4791 C.ar      1 RES1    0.0000
     12 C7        12.1587    3.5328    0.4996 C.2       1 RES1    0.0000
     13 C8        10.7134    3.5815    2.0114 C.2       1 RES1    0.0000
     14 C9         9.8373    3.3274    3.0484 C.2       1 RES1    0.0000
     15 C10        9.3770    2.0876    3.5870 C.2       1 RES1    0.0000
     16 C11        9.8803    0.7220    3.2474 C.3       1 RES1    0.0000
     17 C12        7.2913    4.0613    5.5854 C.3       1 RES1    0.0000
     18 C13        9.0010    4.2833    3.7632 C.2       1 RES1    0.0000
     19 C14        8.9513    5.7689    3.7297 C.ar      1 RES1    0.0000
     20 C15        9.6361    6.4731    4.7203 C.ar      1 RES1    0.0000
     21 C16        9.5734    7.8874    4.7008 C.ar      1 RES1    0.0000
     22 C17        8.8886    8.4966    3.7362 C.ar      1 RES1    0.0000
     23 C18        8.2192    7.8696    2.7857 C.ar      1 RES1    0.0000
     24 C19        8.2324    6.4374    2.7911 C.ar      1 RES1    0.0000
     25 C20        7.4882    5.7439    1.7724 C.3       1 RES1    0.0000
     26 H1        13.8597    4.8094   -0.9516 H         1 RES1    0.0000
     27 H2        15.2628    4.0731   -2.5088 H         1 RES1    0.0000
     28 H3        15.5310    2.1375   -3.1793 H         1 RES1    0.0000
     29 H4        14.0642    0.1900   -1.9357 H         1 RES1    0.0000
     30 H5        12.6099    1.0688   -0.4326 H         1 RES1    0.0000
     31 H6         9.5970    0.4156    2.4980 H         1 RES1    0.0000
     32 H7        10.7936    0.7956    3.4064 H         1 RES1    0.0000
     33 H8         9.7201   -0.0475    3.9254 H         1 RES1    0.0000
     34 H9         6.1390    3.8000    5.3853 H         1 RES1    0.0000
     35 H10        7.2150    4.9400    5.7854 H         1 RES1    0.0000
     36 H11        7.2888    3.6575    6.4018 H         1 RES1    0.0000
     37 H12       10.2594    5.7950    5.4286 H         1 RES1    0.0000
     38 H13       10.0183    8.3956    5.3745 H         1 RES1    0.0000
     39 H14        8.8766    9.4406    3.7308 H         1 RES1    0.0000
     40 H15        7.7467    8.3481    2.1195 H         1 RES1    0.0000
     41 H16        8.0578    5.6288    0.9300 H         1 RES1    0.0000
     42 H17        6.8660    4.8569    2.3466 H         1 RES1    0.0000
@<TRIPOS>BOND
     1    1    2 1
     2    2   12 2
     3    3   12 1
     4    4    5 1
     5    5   17 1
     6    6    7 ar
     7    7    8 ar
     8    8    9 ar
     9    9   10 ar
    10   10   11 ar
    11   11    6 ar
    12   12   11 1
    13   13    1 1
    14   14   13 1
    15   15    4 2
    16   16   15 1
    17   17   34 1
    18   18    5 1
    19   19   18 1
    20   20   19 ar
    21   21   20 ar
    22   22   21 ar
    23   23   22 ar
    24   24   19 ar
    25   25   24 1
    26   26    6 1
    27   27    7 1
    28   28    8 1
    29   29    9 1
    30   30   10 1
    31   31   16 1
    32   32   16 1
    33   33   16 1
    34   35   17 1
    35   36   17 1
    36   37   20 1
    37   38   21 1
    38   39   22 1
    39   40   23 1
    40   41   25 1
    41   42   25 1
    42    3   13 2
    43   14   15 1
    44   14   18 2
    45   23   24 ar
@<TRIPOS>SUBSTRUCTURE
     1 RES1 1

@<TRIPOS>CRYSIN
  13.5620   11.8750   10.8310  90.0000  93.2200  90.0000  14 1

