# MOL2 file generated by ConQuest
# Please check atom types

@<TRIPOS>MOLECULE
BIKJIQ
    54    53     2
SMALL
NO_CHARGES
****
Generated from CSD

@<TRIPOS>ATOM
      1 O1         1.8619    1.6570   14.7162 O.3       1 RES1    0.0000
      2 H1         1.2502    1.7968   15.2442 H         1 RES1    0.0000
      3 O2         1.3806    3.1761   10.6836 O.3       1 RES1    0.0000
      4 O3        -0.6382    2.8092   11.6520 O.2       1 RES1    0.0000
      5 N1         0.4748    0.7509   13.0330 N.3       1 RES1    0.0000
      6 N2         1.1020    1.3619   11.9011 N.am      1 RES1    0.0000
      7 C1         2.5859    1.2273   11.9612 C.3       1 RES1    0.0000
      8 H2         2.9742    2.0807   12.2449 H         1 RES1    0.0000
      9 C2         2.7602    0.2097   13.0686 C.3       1 RES1    0.0000
     10 H3         3.6033    0.3349   13.5311 H         1 RES1    0.0000
     11 H4         2.7177   -0.6962   12.7244 H         1 RES1    0.0000
     12 C3         1.5851    0.5063   13.9782 C.3       1 RES1    0.0000
     13 H5         1.3903   -0.2544   14.5655 H         1 RES1    0.0000
     14 C4        -0.3882   -0.3448   12.7432 C.ar      1 RES1    0.0000
     15 C5        -0.7640   -0.7017   11.4581 C.ar      1 RES1    0.0000
     16 H6        -0.4231   -0.2353   10.7282 H         1 RES1    0.0000
     17 C6        -1.6408   -1.7491   11.2560 C.ar      1 RES1    0.0000
     18 H7        -1.8813   -1.9856   10.3895 H         1 RES1    0.0000
     19 C7        -2.1630   -2.4457   12.3175 C.ar      1 RES1    0.0000
     20 H8        -2.7312   -3.1678   12.1752 H         1 RES1    0.0000
     21 C8        -1.8328   -2.0603   13.5980 C.ar      1 RES1    0.0000
     22 H9        -2.2006   -2.5121   14.3237 H         1 RES1    0.0000
     23 C9        -0.9678   -1.0179   13.8171 C.ar      1 RES1    0.0000
     24 H10       -0.7676   -0.7583   14.6879 H         1 RES1    0.0000
     25 C10        3.1766    0.8346   10.6254 C.ar      1 RES1    0.0000
     26 C11        2.6261   -0.1516    9.8602 C.ar      1 RES1    0.0000
     27 H11        1.8730   -0.5987   10.1733 H         1 RES1    0.0000
     28 C12        3.1530   -0.5059    8.6352 C.ar      1 RES1    0.0000
     29 H12        2.7599   -1.1785    8.1272 H         1 RES1    0.0000
     30 C13        4.2563    0.1456    8.1841 C.ar      1 RES1    0.0000
     31 C14        4.8522    1.1117    8.9340 C.ar      1 RES1    0.0000
     32 H13        5.6206    1.5352    8.6238 H         1 RES1    0.0000
     33 C15        4.3110    1.4635   10.1619 C.ar      1 RES1    0.0000
     34 H14        4.7153    2.1264   10.6727 H         1 RES1    0.0000
     35 C16        0.5061    2.5058   11.4443 C.2       1 RES1    0.0000
     36 C17        0.9642    4.2867    9.8204 C.3       1 RES1    0.0000
     37 C18        0.4598    5.4355   10.6528 C.3       1 RES1    0.0000
     38 H15       -0.3613    5.1843   11.0824 H         1 RES1    0.0000
     39 H16        0.3062    6.1967   10.0879 H         1 RES1    0.0000
     40 H17        1.1136    5.6592   11.3201 H         1 RES1    0.0000
     41 C19       -0.0640    3.7755    8.8401 C.3       1 RES1    0.0000
     42 H18        0.2438    2.9520    8.4545 H         1 RES1    0.0000
     43 H19       -0.1951    4.4242    8.1457 H         1 RES1    0.0000
     44 H20       -0.8940    3.6234    9.2968 H         1 RES1    0.0000
     45 C20        2.2552    4.6452    9.1204 C.3       1 RES1    0.0000
     46 H21        2.9130    4.8997    9.7706 H         1 RES1    0.0000
     47 H22        2.1006    5.3782    8.5185 H         1 RES1    0.0000
     48 H23        2.5713    3.8863    8.6252 H         1 RES1    0.0000
     49 O4         5.7579    0.1231    6.4582 O.2       1 RES1    0.0000
     50 O5         4.0979   -1.2310    6.2249 O.2       1 RES1    0.0000
     51 N3         4.7276   -0.4358    6.7627 N.pl3     1 RES1    0.0000
     52 O6         5.8270    0.6736    6.5365 Du        2 SUP2    0.0000
     53 O7         4.3018   -0.8314    6.1680 Du        2 SUP2    0.0000
     54 N4         4.8511   -0.0149    6.9235 Du        2 SUP2    0.0000
@<TRIPOS>BOND
     1    1    2 1
     2    3   35 1
     3    4   35 2
     4    5    6 1
     5    6    7 1
     6    7    8 1
     7    9    7 1
     8   10    9 1
     9   11    9 1
    10   12    1 1
    11   13   12 1
    12   14    5 1
    13   15   14 ar
    14   16   15 1
    15   17   15 ar
    16   18   17 1
    17   19   17 ar
    18   20   19 1
    19   21   19 ar
    20   22   21 1
    21   23   14 ar
    22   24   23 1
    23   25    7 1
    24   26   25 ar
    25   27   26 1
    26   28   26 ar
    27   29   28 1
    28   30   28 ar
    29   31   30 ar
    30   32   31 1
    31   33   25 ar
    32   34   33 1
    33   35    6 1
    34   36    3 1
    35   37   36 1
    36   38   37 1
    37   39   37 1
    38   40   37 1
    39   41   36 1
    40   42   41 1
    41   43   41 1
    42   44   41 1
    43   45   36 1
    44   46   45 1
    45   47   45 1
    46   48   45 1
    47   49   51 2
    48   50   51 2
    49   51   30 1
    50    5   12 1
    51    9   12 1
    52   21   23 ar
    53   31   33 ar
@<TRIPOS>SUBSTRUCTURE
     1 RES1 1
     2 SUP2 52

@<TRIPOS>CRYSIN
   7.7399    9.2877   14.9110  98.4080 103.9480  97.0430   2 1

