# MOL2 file generated by ConQuest
# Please check atom types

@<TRIPOS>MOLECULE
BIKJOW
    56    57     1
SMALL
NO_CHARGES
****
Generated from CSD

@<TRIPOS>ATOM
      1 O1        24.4811    0.7131    5.4850 O.3       1 RES1    0.0000
      2 H1        24.6266    0.6918    6.3014 H         1 RES1    0.0000
      3 O2        18.3943    1.3916   -1.4818 O.2       1 RES1    0.0000
      4 O3        20.2122    1.1641   -2.6449 O.2       1 RES1    0.0000
      5 O4        20.7861   -1.3835    5.7313 O.2       1 RES1    0.0000
      6 O5        21.2555   -1.7245    3.5265 O.3       1 RES1    0.0000
      7 O6        19.9167    1.6418    5.6958 O.2       1 RES1    0.0000
      8 O7        21.5478    2.6859    6.8900 O.3       1 RES1    0.0000
      9 N1        21.7854    0.2047    4.4350 N.am      1 RES1    0.0000
     10 N2        22.1258    1.0129    5.5475 N.am      1 RES1    0.0000
     11 N3        19.5982    1.2064   -1.5760 N.pl3     1 RES1    0.0000
     12 C1        23.4469    1.6181    5.2175 C.3       1 RES1    0.0000
     13 H2        23.5840    2.4780    5.6874 H         1 RES1    0.0000
     14 C2        23.3222    1.8124    3.7190 C.3       1 RES1    0.0000
     15 H3        24.2057    1.8959    3.3018 H         1 RES1    0.0000
     16 H4        22.7954    2.6118    3.5111 H         1 RES1    0.0000
     17 C3        22.6134    0.5546    3.2464 C.3       1 RES1    0.0000
     18 H5        23.2827   -0.1589    3.0980 H         1 RES1    0.0000
     19 C4        21.8004    0.7353    1.9924 C.ar      1 RES1    0.0000
     20 C5        22.3968    0.4974    0.7632 C.ar      1 RES1    0.0000
     21 H6        23.2961    0.2264    0.7291 H         1 RES1    0.0000
     22 C6        21.6864    0.6552   -0.4160 C.ar      1 RES1    0.0000
     23 H7        22.0904    0.4883   -1.2475 H         1 RES1    0.0000
     24 C7        20.3707    1.0600   -0.3396 C.ar      1 RES1    0.0000
     25 C8        19.7519    1.3299    0.8705 C.ar      1 RES1    0.0000
     26 H8        18.8574    1.6169    0.8982 H         1 RES1    0.0000
     27 C9        20.4762    1.1709    2.0321 C.ar      1 RES1    0.0000
     28 H9        20.0727    1.3573    2.8610 H         1 RES1    0.0000
     29 C10       21.2493   -1.0154    4.6683 C.2       1 RES1    0.0000
     30 C11       20.1707   -2.7067    3.2464 C.3       1 RES1    0.0000
     31 C12       18.8310   -2.0594    3.5361 C.3       1 RES1    0.0000
     32 H10       18.7344   -1.9268    4.4925 H         1 RES1    0.0000
     33 H11       18.1196   -2.6335    3.2159 H         1 RES1    0.0000
     34 H12       18.7826   -1.2018    3.0842 H         1 RES1    0.0000
     35 C13       20.3849   -3.9542    4.0642 C.3       1 RES1    0.0000
     36 H13       21.2552   -4.3316    3.8563 H         1 RES1    0.0000
     37 H14       19.6921   -4.6014    3.8549 H         1 RES1    0.0000
     38 H15       20.3453   -3.7324    5.0081 H         1 RES1    0.0000
     39 C14       20.3443   -2.9548    1.7646 C.3       1 RES1    0.0000
     40 H16       20.3187   -2.1098    1.2905 H         1 RES1    0.0000
     41 H17       19.6283   -3.5266    1.4457 H         1 RES1    0.0000
     42 H18       21.1962   -3.3893    1.6079 H         1 RES1    0.0000
     43 C15       21.0673    1.8067    6.0105 C.2       1 RES1    0.0000
     44 C16       20.6504    3.6375    7.5767 C.3       1 RES1    0.0000
     45 C17       20.0573    4.5729    6.5551 C.3       1 RES1    0.0000
     46 H19       20.7644    4.9319    5.9965 H         1 RES1    0.0000
     47 H20       19.6032    5.3001    7.0083 H         1 RES1    0.0000
     48 H21       19.4222    4.0880    6.0034 H         1 RES1    0.0000
     49 C18       19.6437    2.8942    8.4084 C.3       1 RES1    0.0000
     50 H22       18.9629    2.5180    7.8303 H         1 RES1    0.0000
     51 H23       19.2324    3.5060    9.0391 H         1 RES1    0.0000
     52 H24       20.0884    2.1807    8.8921 H         1 RES1    0.0000
     53 C19       21.6317    4.3876    8.4721 C.3       1 RES1    0.0000
     54 H25       22.1196    3.7530    9.0196 H         1 RES1    0.0000
     55 H26       21.1435    4.9994    9.0446 H         1 RES1    0.0000
     56 H27       22.2543    4.8873    7.9218 H         1 RES1    0.0000
@<TRIPOS>BOND
     1    1    2 1
     2    3   11 2
     3    4   11 2
     4    5   29 2
     5    6   29 1
     6    7   43 2
     7    8   43 1
     8    9   10 1
     9   10   12 1
    10   11   24 1
    11   12    1 1
    12   13   12 1
    13   14   12 1
    14   15   14 1
    15   16   14 1
    16   17    9 1
    17   18   17 1
    18   19   17 1
    19   20   19 ar
    20   21   20 1
    21   22   20 ar
    22   23   22 1
    23   24   22 ar
    24   25   24 ar
    25   26   25 1
    26   27   19 ar
    27   28   27 1
    28   29    9 1
    29   30    6 1
    30   31   30 1
    31   32   31 1
    32   33   31 1
    33   34   31 1
    34   35   30 1
    35   36   35 1
    36   37   35 1
    37   38   35 1
    38   39   30 1
    39   40   39 1
    40   41   39 1
    41   42   39 1
    42   43   10 1
    43   44    8 1
    44   45   44 1
    45   46   45 1
    46   47   45 1
    47   48   45 1
    48   49   44 1
    49   50   49 1
    50   51   49 1
    51   52   49 1
    52   53   44 1
    53   54   53 1
    54   55   53 1
    55   56   53 1
    56   14   17 1
    57   25   27 ar
@<TRIPOS>SUBSTRUCTURE
     1 RES1 1

@<TRIPOS>CRYSIN
  27.6330   11.4350   16.8530  90.0000 124.6650  90.0000  15 1

