# MOL2 file generated by ConQuest
# Please check atom types

@<TRIPOS>MOLECULE
BIKKUE
    35    36     1
SMALL
NO_CHARGES
****
Generated from CSD

@<TRIPOS>ATOM
      1 C1         8.8298    1.6207    4.3419 C.ar      1 RES1    0.0000
      2 H1         9.2461    0.9678    4.8568 H         1 RES1    0.0000
      3 C2         8.1691    2.6628    4.9480 C.ar      1 RES1    0.0000
      4 H2         8.1374    2.7122    5.8754 H         1 RES1    0.0000
      5 C3         7.5482    3.6446    4.1813 C.ar      1 RES1    0.0000
      6 H3         7.1224    4.3608    4.5955 H         1 RES1    0.0000
      7 N1         6.9091    4.5287    1.9795 N.pl3     1 RES1    0.0000
      8 H4         7.3192    4.7918    1.2705 H         1 RES1    0.0000
      9 O1         6.7129    6.3411   -0.0419 O.2       1 RES1    0.0000
     10 O2         5.0046    7.6940   -0.0624 O.2       1 RES1    0.0000
     11 O3         4.5184    3.2095    3.0471 O.2       1 RES1    0.0000
     12 C4         7.5660    3.5510    2.7941 C.ar      1 RES1    0.0000
     13 C5         4.2806    7.0376    5.8890 C.ar      1 RES1    0.0000
     14 H5         4.6678    7.8381    6.1602 H         1 RES1    0.0000
     15 C6         3.1899    6.5363    6.5936 C.ar      1 RES1    0.0000
     16 C7         5.1045    6.1024    1.5587 C.2       1 RES1    0.0000
     17 H6         4.2811    6.3945    1.8745 H         1 RES1    0.0000
     18 N2         5.6285    6.7524    0.4364 N.pl3     1 RES1    0.0000
     19 C8         2.6450    5.3309    6.1743 C.ar      1 RES1    0.0000
     20 H7         1.9185    4.9772    6.6343 H         1 RES1    0.0000
     21 C9         8.2406    2.5147    2.1874 C.ar      1 RES1    0.0000
     22 H8         8.2743    2.4619    1.2596 H         1 RES1    0.0000
     23 C10        5.7067    5.0666    2.2323 C.2       1 RES1    0.0000
     24 C11        4.8034    4.3800    3.2485 C.2       1 RES1    0.0000
     25 C12        4.2462    5.1601    4.3825 C.ar      1 RES1    0.0000
     26 C13        4.8019    6.3707    4.7923 C.ar      1 RES1    0.0000
     27 H9         5.5237    6.7309    4.3295 H         1 RES1    0.0000
     28 C14        2.6064    7.2793    7.7770 C.3       1 RES1    0.0000
     29 H10        1.6691    7.0829    7.8485 H         1 RES1    0.0000
     30 H11        2.7276    8.2232    7.6529 H         1 RES1    0.0000
     31 H12        3.0535    7.0022    8.5808 H         1 RES1    0.0000
     32 C15        3.1558    4.6431    5.0892 C.ar      1 RES1    0.0000
     33 H13        2.7741    3.8363    4.8286 H         1 RES1    0.0000
     34 C16        8.8706    1.5487    2.9618 C.ar      1 RES1    0.0000
     35 H14        9.3233    0.8493    2.5489 H         1 RES1    0.0000
@<TRIPOS>BOND
     1    1    2 1
     2    3    1 ar
     3    4    3 1
     4    5    3 ar
     5    6    5 1
     6    7    8 1
     7    9   18 2
     8   10   18 2
     9   11   24 2
    10   12    5 ar
    11   13   14 1
    12   15   13 ar
    13   16   17 1
    14   18   16 1
    15   19   15 ar
    16   20   19 1
    17   21   12 ar
    18   22   21 1
    19   23    7 1
    20   24   23 1
    21   25   24 1
    22   26   13 ar
    23   27   26 1
    24   28   15 1
    25   29   28 1
    26   30   28 1
    27   31   28 1
    28   32   19 ar
    29   33   32 1
    30   34    1 ar
    31   35   34 1
    32    7   12 1
    33   16   23 2
    34   21   34 ar
    35   25   26 ar
    36   25   32 ar
@<TRIPOS>SUBSTRUCTURE
     1 RES1 1

@<TRIPOS>CRYSIN
  15.9410    5.8090   17.1980  90.0000 114.5210  90.0000 231 1

