# MOL2 file generated by ConQuest
# Please check atom types

@<TRIPOS>MOLECULE
BIKNUE
    52    56     1
SMALL
NO_CHARGES
****
Generated from CSD

@<TRIPOS>ATOM
      1 C1         2.2391    0.9466    2.2942 C.2       1 RES1    0.0000
      2 C2         4.1800    0.6554    0.8411 C.3       1 RES1    0.0000
      3 C3         5.0330    0.2939    2.0414 C.2       1 RES1    0.0000
      4 C4         3.2840    1.4790    3.2999 C.3       1 RES1    0.0000
      5 C5         4.4201    2.1110    0.4339 C.3       1 RES1    0.0000
      6 C6         4.0718    3.1137    1.5050 C.2       1 RES1    0.0000
      7 C7         3.6023    2.8791    2.7746 C.2       1 RES1    0.0000
      8 C8         5.3970    0.6186    4.4119 C.3       1 RES1    0.0000
      9 C9         2.6534    1.3532    4.6860 C.3       1 RES1    0.0000
     10 C10        4.1705    4.5259    1.3428 C.ar      1 RES1    0.0000
     11 C11        4.5632    5.3432    0.2764 C.ar      1 RES1    0.0000
     12 C12        4.5386    6.7135    0.4395 C.ar      1 RES1    0.0000
     13 C13        4.1245    7.2784    1.6515 C.ar      1 RES1    0.0000
     14 C14        3.7201    6.5010    2.7147 C.ar      1 RES1    0.0000
     15 C15        3.7451    5.1127    2.5446 C.ar      1 RES1    0.0000
     16 C16        3.0193    4.3632    4.8097 C.3       1 RES1    0.0000
     17 C17        1.4598   -1.0481   -0.1236 C.3       1 RES1    0.0000
     18 C18        2.4970   -1.9181   -0.7663 C.ar      1 RES1    0.0000
     19 C19        3.0096   -3.0171   -0.1323 C.ar      1 RES1    0.0000
     20 C20        3.9624   -3.8123   -0.7624 C.ar      1 RES1    0.0000
     21 C21        4.3658   -3.5256   -2.0256 C.ar      1 RES1    0.0000
     22 C22        3.8600   -2.4633   -2.6643 C.ar      1 RES1    0.0000
     23 C23        2.9320   -1.6355   -2.0414 C.ar      1 RES1    0.0000
     24 O1         1.0450    1.0450    2.4840 O.2       1 RES1    0.0000
     25 O2         6.1146   -0.2638    1.9012 O.2       1 RES1    0.0000
     26 O3         1.9233    0.3158    0.0740 O.3       1 RES1    0.0000
     27 N1         2.7885    0.3870    1.1829 N.am      1 RES1    0.0000
     28 N2         4.5210    0.6527    3.2424 N.am      1 RES1    0.0000
     29 N3         3.3856    4.1029    3.4212 N.pl3     1 RES1    0.0000
     30 H1         4.4140    0.0418    0.1181 H         1 RES1    0.0000
     31 H2         3.8855    2.2793   -0.4174 H         1 RES1    0.0000
     32 H3         5.3647    2.2092    0.2284 H         1 RES1    0.0000
     33 H4         5.6011    1.5287    4.6703 H         1 RES1    0.0000
     34 H5         4.9974    0.1448    5.2137 H         1 RES1    0.0000
     35 H6         6.2482    0.1888    4.1977 H         1 RES1    0.0000
     36 H7         3.2568    1.6844    5.3791 H         1 RES1    0.0000
     37 H8         1.7375    1.7906    4.6781 H         1 RES1    0.0000
     38 H9         2.4580    0.4208    4.8593 H         1 RES1    0.0000
     39 H10        4.7623    4.9821   -0.5277 H         1 RES1    0.0000
     40 H11        4.8020    7.3073   -0.2599 H         1 RES1    0.0000
     41 H12        4.1732    8.2438    1.8114 H         1 RES1    0.0000
     42 H13        3.5084    6.9165    3.5834 H         1 RES1    0.0000
     43 H14        3.8352    4.0314    5.4893 H         1 RES1    0.0000
     44 H15        2.0155    3.9911    4.9774 H         1 RES1    0.0000
     45 H16        3.0980    5.2483    4.9774 H         1 RES1    0.0000
     46 H17        1.0873   -1.4628    0.7167 H         1 RES1    0.0000
     47 H18        0.6898   -0.9479   -0.7482 H         1 RES1    0.0000
     48 H19        2.6529   -3.2164    0.7167 H         1 RES1    0.0000
     49 H20        4.3806   -4.5733   -0.2756 H         1 RES1    0.0000
     50 H21        5.1228   -4.1216   -2.3627 H         1 RES1    0.0000
     51 H22        3.9483   -2.1284   -3.6701 H         1 RES1    0.0000
     52 H23        2.4654   -0.8482   -2.5123 H         1 RES1    0.0000
@<TRIPOS>BOND
     1    1    4 1
     2    2    3 1
     3    3   25 2
     4    4    7 1
     5    5    2 1
     6    6    5 1
     7    7    6 2
     8    8   28 1
     9    9    4 1
    10   10    6 1
    11   11   10 ar
    12   12   11 ar
    13   13   12 ar
    14   14   13 ar
    15   15   10 ar
    16   16   29 1
    17   17   18 1
    18   18   19 ar
    19   19   20 ar
    20   20   21 ar
    21   21   22 ar
    22   22   23 ar
    23   23   18 ar
    24   24    1 2
    25   26   17 1
    26   27    1 1
    27   28    3 1
    28   29    7 1
    29   30    2 1
    30   31    5 1
    31   32    5 1
    32   33    8 1
    33   34    8 1
    34   35    8 1
    35   36    9 1
    36   37    9 1
    37   38    9 1
    38   39   11 1
    39   40   12 1
    40   41   13 1
    41   42   14 1
    42   43   16 1
    43   44   16 1
    44   45   16 1
    45   46   17 1
    46   47   17 1
    47   48   19 1
    48   49   20 1
    49   50   21 1
    50   51   22 1
    51   52   23 1
    52    2   27 1
    53    4   28 1
    54   14   15 ar
    55   15   29 1
    56   26   27 1
@<TRIPOS>SUBSTRUCTURE
     1 RES1 1

@<TRIPOS>CRYSIN
  11.9760   11.9450    8.6760 112.1300 109.8200  62.1800   2 1

