# MOL2 file generated by ConQuest
# Please check atom types

@<TRIPOS>MOLECULE
BIKRUI
    50    52     1
SMALL
NO_CHARGES
****
Generated from CSD

@<TRIPOS>ATOM
      1 C1        14.4230   -6.1132    5.6819 C.3       1 RES1    0.0000
      2 C2        13.1854   -5.8093    4.8867 C.3       1 RES1    0.0000
      3 C3        13.1527   -4.4486    4.1806 C.3       1 RES1    0.0000
      4 C4        13.8918   -3.3605    4.9608 C.3       1 RES1    0.0000
      5 C5        15.2351   -3.8732    5.4606 C.3       1 RES1    0.0000
      6 O1        14.9291   -4.9593    6.3536 O.3       1 RES1    0.0000
      7 O2        15.3776   -6.6053    4.8104 O.3       1 RES1    0.0000
      8 C6        16.5458   -7.1180    5.5154 C.3       1 RES1    0.0000
      9 C7        17.4734   -7.6267    4.6459 C.3       1 RES1    0.0000
     10 O3        11.7612   -4.1026    4.1354 O.3       1 RES1    0.0000
     11 N1        11.1280   -4.7476    5.2392 N.2       1 RES1    0.0000
     12 C8        11.9075   -5.6740    5.6744 C.2       1 RES1    0.0000
     13 O4        14.0765   -2.2792    4.0140 O.3       1 RES1    0.0000
     14 C9        13.7936   -1.0166    4.4546 C.2       1 RES1    0.0000
     15 O5        13.6108   -0.7784    5.5648 O.2       1 RES1    0.0000
     16 C10       13.9206   -0.0304    3.3316 C.3       1 RES1    0.0000
     17 C11       15.9819   -2.8693    6.2913 C.3       1 RES1    0.0000
     18 O6        17.2675   -3.4732    6.5836 O.3       1 RES1    0.0000
     19 C12       18.0393   -2.8840    7.4595 C.2       1 RES1    0.0000
     20 O7        17.6678   -1.9410    8.0957 O.2       1 RES1    0.0000
     21 C13       19.3461   -3.5595    7.6132 C.3       1 RES1    0.0000
     22 C14       11.5072   -6.5347    6.8007 C.ar      1 RES1    0.0000
     23 C15       11.7747   -7.8944    6.7566 C.ar      1 RES1    0.0000
     24 C16       11.3417   -8.6874    7.8066 C.ar      1 RES1    0.0000
     25 C17       10.6681   -8.1512    8.8663 C.ar      1 RES1    0.0000
     26 C18       10.4256   -6.8141    8.9222 C.ar      1 RES1    0.0000
     27 C19       10.8470   -5.9896    7.8926 C.ar      1 RES1    0.0000
     28 H1        14.0881   -6.7935    6.5772 H         1 RES1    0.0000
     29 H2        13.1450   -6.5190    4.3203 H         1 RES1    0.0000
     30 H3        13.3952   -4.5290    3.2456 H         1 RES1    0.0000
     31 H4        13.2220   -3.1272    5.8571 H         1 RES1    0.0000
     32 H5        15.8780   -4.1467    4.6427 H         1 RES1    0.0000
     33 H6        16.9172   -6.3720    6.0076 H         1 RES1    0.0000
     34 H7        16.2436   -8.1267    6.0935 H         1 RES1    0.0000
     35 H8        18.3414   -7.2248    5.0296 H         1 RES1    0.0000
     36 H9        17.4946   -8.6266    5.0188 H         1 RES1    0.0000
     37 H10       17.3599   -7.5875    3.7400 H         1 RES1    0.0000
     38 H11       14.2805   -0.3725    2.6760 H         1 RES1    0.0000
     39 H12       12.9526    0.2059    3.0092 H         1 RES1    0.0000
     40 H13       15.0311    0.5784    3.5573 H         1 RES1    0.0000
     41 H14       15.6278   -2.6762    7.0608 H         1 RES1    0.0000
     42 H15       16.1666   -1.8822    5.6314 H         1 RES1    0.0000
     43 H16       19.3422   -4.3721    8.3719 H         1 RES1    0.0000
     44 H17       19.7849   -3.6173    6.9318 H         1 RES1    0.0000
     45 H18       19.9581   -3.0487    8.0065 H         1 RES1    0.0000
     46 H19       12.3559   -8.3031    5.9646 H         1 RES1    0.0000
     47 H20       11.6631   -9.4697    7.7808 H         1 RES1    0.0000
     48 H21       10.1234   -8.8227    9.7690 H         1 RES1    0.0000
     49 H22        9.9309   -6.4602    9.5863 H         1 RES1    0.0000
     50 H23       10.6045   -5.0976    7.8346 H         1 RES1    0.0000
@<TRIPOS>BOND
     1    1    2 1
     2    2    3 1
     3    3    4 1
     4    4    5 1
     5    5    6 1
     6    6    1 1
     7    7    1 1
     8    8    7 1
     9    9    8 1
    10   10    3 1
    11   11   10 1
    12   12    2 1
    13   13    4 1
    14   14   13 1
    15   15   14 2
    16   16   14 1
    17   17    5 1
    18   18   17 1
    19   19   18 1
    20   20   19 2
    21   21   19 1
    22   22   12 1
    23   23   22 ar
    24   24   23 ar
    25   25   24 ar
    26   26   25 ar
    27   27   22 ar
    28   28    1 1
    29   29    2 1
    30   30    3 1
    31   31    4 1
    32   32    5 1
    33   33    8 1
    34   34    8 1
    35   35    9 1
    36   36    9 1
    37   37    9 1
    38   38   16 1
    39   39   16 1
    40   40   16 1
    41   41   17 1
    42   42   17 1
    43   43   21 1
    44   44   21 1
    45   45   21 1
    46   46   23 1
    47   47   24 1
    48   48   25 1
    49   49   26 1
    50   50   27 1
    51   11   12 2
    52   26   27 ar
@<TRIPOS>SUBSTRUCTURE
     1 RES1 1

@<TRIPOS>CRYSIN
  19.2460    9.8030   10.7470  90.0000  90.0000  90.0000  19 1

