# MOL2 file generated by ConQuest
# Please check atom types

@<TRIPOS>MOLECULE
BIKSOD
    40    41     1
SMALL
USER_CHARGES
****
Generated from CSD

@<TRIPOS>ATOM
      1 N1         8.1254    0.6932    9.6778 N.ar      1 RES1    0.0000
      2 C1         9.2042    0.0791   10.0890 C.ar      1 RES1    0.0000
      3 N2         9.7219    0.1801   11.3403 N.pl3     1 RES1    1.0000
      4 C2         9.1320    1.0541   12.2150 C.ar      1 RES1    0.0000
      5 C3         7.9989    1.7185   11.8409 C.ar      1 RES1    0.0000
      6 C4         7.4809    1.4894   10.5627 C.ar      1 RES1    0.0000
      7 N3         6.2958    2.0258   10.1605 N.3       1 RES1    0.0000
      8 C5         5.5664    2.9475   11.0237 C.3       1 RES1    0.0000
      9 C6         4.1398    3.0385   10.7236 C.2       1 RES1    0.0000
     10 C7         3.6050    2.5227    9.5744 C.2       1 RES1    0.0000
     11 C8         4.3897    1.8132    8.6537 C.3       1 RES1    0.0000
     12 C9         5.8695    1.9257    8.7725 C.3       1 RES1    0.0000
     13 N4         9.9442   -0.7606    9.2985 N.am      1 RES1    0.0000
     14 C10        9.6621   -1.1570    8.0076 C.2       1 RES1    0.0000
     15 O1        10.7150   -1.8999    7.5798 O.3       1 RES1    0.0000
     16 C11       10.5748   -2.3974    6.2314 C.3       1 RES1    0.0000
     17 O2         8.6958   -0.8976    7.3691 O.2       1 RES1    0.0000
     18 N5         9.7829    1.1241   13.4243 N.am      1 RES1    0.0000
     19 C12        9.2743    1.7885   14.5122 C.2       1 RES1    0.0000
     20 O3        10.0953    1.6292   15.5567 O.3       1 RES1    0.0000
     21 C13        9.6039    2.2328   16.7775 C.3       1 RES1    0.0000
     22 O4         8.2514    2.3924   14.5531 O.2       1 RES1    0.0000
     23 O5        10.7953   -0.5446   11.6889 O.2       1 RES1   -1.0000
     24 H1         7.7479    2.2365   12.5049 H         1 RES1    0.0000
     25 H2         5.6738    2.6382   11.9865 H         1 RES1    0.0000
     26 H3         5.9682    3.8631   10.9471 H         1 RES1    0.0000
     27 H4         3.5096    3.4814   11.3838 H         1 RES1    0.0000
     28 H5         2.6257    2.7737    9.3713 H         1 RES1    0.0000
     29 H6         4.1457    2.1135    7.7228 H         1 RES1    0.0000
     30 H7         4.1663    0.8284    8.7290 H         1 RES1    0.0000
     31 H8         6.4065    1.3110    8.3945 H         1 RES1    0.0000
     32 H9         6.1682    2.7362    8.1978 H         1 RES1    0.0000
     33 H10       10.7142   -1.1066    9.6650 H         1 RES1    0.0000
     34 H11       11.4773   -2.9809    6.0756 H         1 RES1    0.0000
     35 H12       10.5441   -1.5881    5.5291 H         1 RES1    0.0000
     36 H13        9.7153   -3.0363    6.1011 H         1 RES1    0.0000
     37 H14       10.4299    0.6647   13.4894 H         1 RES1    0.0000
     38 H15       10.3041    2.0521   17.5858 H         1 RES1    0.0000
     39 H16        8.6563    1.7600   17.0265 H         1 RES1    0.0000
     40 H17        9.4543    3.2894   16.6587 H         1 RES1    0.0000
@<TRIPOS>BOND
     1    1    2 ar
     2    2    3 ar
     3    3    4 ar
     4    4    5 ar
     5    5    6 ar
     6    6    1 ar
     7    7    6 1
     8    8    7 1
     9    9    8 1
    10   10    9 2
    11   11   10 1
    12   12    7 1
    13   13    2 1
    14   14   13 1
    15   15   14 1
    16   16   15 1
    17   17   14 2
    18   18    4 1
    19   19   18 1
    20   20   19 1
    21   21   20 1
    22   22   19 2
    23   23    3 1
    24   24    5 1
    25   25    8 1
    26   26    8 1
    27   27    9 1
    28   28   10 1
    29   29   11 1
    30   30   11 1
    31   31   12 1
    32   32   12 1
    33   33   13 1
    34   34   16 1
    35   35   16 1
    36   36   16 1
    37   37   18 1
    38   38   21 1
    39   39   21 1
    40   40   21 1
    41   11   12 1
@<TRIPOS>SUBSTRUCTURE
     1 RES1 1

@<TRIPOS>CRYSIN
   8.0190    7.5370   13.2850  84.4800  73.9900  71.3600   2 1

