# MOL2 file generated by ConQuest
# Please check atom types

@<TRIPOS>MOLECULE
BIKZIH
    54    58     1
SMALL
USER_CHARGES
****
Generated from CSD

@<TRIPOS>ATOM
      1 N1         1.3512   12.0073    3.3432 N.ar      1 RES1    0.0000
      2 N2         0.9354   12.4417    5.6596 N.ar      1 RES1    0.0000
      3 N3         0.2936   12.8206    3.0198 N.pl3     1 RES1    1.0000
      4 N4        -3.0222   16.8214    5.8747 N.3       1 RES1    0.0000
      5 C1        -0.0529   13.3298    5.3128 C.ar      1 RES1    0.0000
      6 C2        -0.3766   13.5766    3.9597 C.ar      1 RES1    0.0000
      7 C3         0.0041   12.9025    1.6201 C.ar      1 RES1    0.0000
      8 C4         1.5924   11.8764    4.6476 C.ar      1 RES1    0.0000
      9 C5         2.7442   11.0011    4.9964 C.ar      1 RES1    0.0000
     10 C6        -0.7080   14.0561    6.3088 C.ar      1 RES1    0.0000
     11 H1        -0.5519   13.8645    7.2046 H         1 RES1    0.0000
     12 C7        -1.8307   15.3444    4.6196 C.ar      1 RES1    0.0000
     13 C8         0.9646   13.3619    0.7506 C.ar      1 RES1    0.0000
     14 H2         1.7892   13.6482    1.0716 H         1 RES1    0.0000
     15 C9        -1.2651   14.6020    3.6086 C.ar      1 RES1    0.0000
     16 H3        -1.4670   14.7766    2.7176 H         1 RES1    0.0000
     17 C10        3.3413   10.1715    4.0624 C.ar      1 RES1    0.0000
     18 H4         3.0217   10.1536    3.1892 H         1 RES1    0.0000
     19 C11       -1.2260   12.4953    1.1573 C.ar      1 RES1    0.0000
     20 H5        -1.8795   12.2031    1.7518 H         1 RES1    0.0000
     21 C12       -1.5898   15.0603    5.9570 C.ar      1 RES1    0.0000
     22 C13       -0.5156   12.9723   -1.0694 C.ar      1 RES1    0.0000
     23 H6        -0.6874   12.9859   -1.9828 H         1 RES1    0.0000
     24 C14        4.4056    9.3720    4.4182 C.ar      1 RES1    0.0000
     25 H7         4.7915    8.8067    3.7876 H         1 RES1    0.0000
     26 C15        0.6956   13.3955   -0.5955 C.ar      1 RES1    0.0000
     27 H8         1.3407   13.7084   -1.1887 H         1 RES1    0.0000
     28 C16       -1.4786   12.5274   -0.1964 C.ar      1 RES1    0.0000
     29 H9        -2.3042   12.2477   -0.5214 H         1 RES1    0.0000
     30 C17       -2.3307   15.9780    6.8838 C.3       1 RES1    0.0000
     31 C18       -2.7016   16.5621    4.4641 C.3       1 RES1    0.0000
     32 C19        3.2469   11.0158    6.2766 C.ar      1 RES1    0.0000
     33 H10        2.8589   11.5720    6.9127 H         1 RES1    0.0000
     34 C20        4.8973    9.4046    5.6923 C.ar      1 RES1    0.0000
     35 H11        5.6254    8.8736    5.9228 H         1 RES1    0.0000
     36 C21       -1.4168   16.8205    7.7424 C.3       1 RES1    0.0000
     37 H12       -0.9984   16.2663    8.4046 H         1 RES1    0.0000
     38 H13       -1.9282   17.5063    8.1768 H         1 RES1    0.0000
     39 H14       -0.7423   17.2231    7.1918 H         1 RES1    0.0000
     40 C22        4.3153   10.2212    6.6353 C.ar      1 RES1    0.0000
     41 H15        4.6403   10.2362    7.5062 H         1 RES1    0.0000
     42 C23       -1.9159   17.7389    3.8951 C.3       1 RES1    0.0000
     43 H16       -2.4650   18.5254    3.9063 H         1 RES1    0.0000
     44 H17       -1.6560   17.5442    2.9919 H         1 RES1    0.0000
     45 H18       -1.1315   17.8876    4.4277 H         1 RES1    0.0000
     46 C24       -3.3646   15.2345    7.7388 C.3       1 RES1    0.0000
     47 H19       -3.9062   14.6785    7.1741 H         1 RES1    0.0000
     48 H20       -3.9230   15.8716    8.1912 H         1 RES1    0.0000
     49 H21       -2.9123   14.6897    8.3870 H         1 RES1    0.0000
     50 C25       -3.9728   16.3341    3.6753 C.3       1 RES1    0.0000
     51 H22       -4.4855   15.6375    4.0892 H         1 RES1    0.0000
     52 H23       -3.7498   16.0768    2.7769 H         1 RES1    0.0000
     53 H24       -4.4884   17.1428    3.6577 H         1 RES1    0.0000
     54 O1        -3.7945   17.7632    6.2217 O.2       1 RES1   -1.0000
@<TRIPOS>BOND
     1    1    3 ar
     2    2    5 ar
     3    3    6 ar
     4    4   30 1
     5    5    6 ar
     6    6   15 ar
     7    7    3 1
     8    8    1 ar
     9    9    8 1
    10   10    5 ar
    11   11   10 1
    12   12   15 ar
    13   13    7 ar
    14   14   13 1
    15   15   16 1
    16   17    9 ar
    17   18   17 1
    18   19    7 ar
    19   20   19 1
    20   21   10 ar
    21   22   23 1
    22   24   17 ar
    23   25   24 1
    24   26   13 ar
    25   27   26 1
    26   28   19 ar
    27   29   28 1
    28   30   21 1
    29   31    4 1
    30   32    9 ar
    31   33   32 1
    32   34   24 ar
    33   35   34 1
    34   36   30 1
    35   37   36 1
    36   38   36 1
    37   39   36 1
    38   40   32 ar
    39   41   40 1
    40   42   31 1
    41   43   42 1
    42   44   42 1
    43   45   42 1
    44   46   30 1
    45   47   46 1
    46   48   46 1
    47   49   46 1
    48   50   31 1
    49   51   50 1
    50   52   50 1
    51   53   50 1
    52   54    4 1
    53    2    8 ar
    54   12   21 ar
    55   12   31 1
    56   22   26 ar
    57   22   28 ar
    58   34   40 ar
@<TRIPOS>SUBSTRUCTURE
     1 RES1 1

@<TRIPOS>CRYSIN
   5.9298   22.3010   16.0600  90.0000  92.6850  90.0000  14 1

