# MOL2 file generated by ConQuest
# Please check atom types

@<TRIPOS>MOLECULE
BIKZED
    56    59     1
SMALL
USER_CHARGES
****
Generated from CSD

@<TRIPOS>ATOM
      1 N1         4.4006    1.4421    7.0911 N.pl3     1 RES1    1.0000
      2 N2         1.8470    0.7143    6.4510 N.ar      1 RES1    0.0000
      3 N3         3.8146    1.9768    5.9739 N.ar      1 RES1    0.0000
      4 N4         2.6811   -1.8693   11.7174 N.3       1 RES1    0.0000
      5 C1         3.5184   -0.5920   10.0240 C.ar      1 RES1    0.0000
      6 C2         4.2746    0.2074    9.1901 C.ar      1 RES1    0.0000
      7 H1         5.1358    0.4614    9.4316 H         1 RES1    0.0000
      8 C3         5.7576    1.8445    7.3226 C.ar      1 RES1    0.0000
      9 C4         2.4211    0.2499    7.6057 C.ar      1 RES1    0.0000
     10 C5         3.8950   -1.1077   11.3832 C.3       1 RES1    0.0000
     11 C6         3.7311    0.6251    7.9857 C.ar      1 RES1    0.0000
     12 C7         1.6853   -0.5813    8.4601 C.ar      1 RES1    0.0000
     13 H2         0.8326   -0.8614    8.2184 H         1 RES1    0.0000
     14 C8         2.5733    1.5798    5.7377 C.ar      1 RES1    0.0000
     15 C9         2.2315   -0.9819    9.6580 C.ar      1 RES1    0.0000
     16 C10        6.7765    0.9754    7.0319 C.ar      1 RES1    0.0000
     17 H3         6.5885    0.1430    6.6612 H         1 RES1    0.0000
     18 C11        6.0231    3.0822    7.8579 C.ar      1 RES1    0.0000
     19 H4         5.3318    3.6777    8.0394 H         1 RES1    0.0000
     20 C12        1.5824   -1.8256   10.7245 C.3       1 RES1    0.0000
     21 C13        1.8769    2.2007    4.5320 C.3       1 RES1    0.0000
     22 C14        4.1030    0.0142   12.3949 C.3       1 RES1    0.0000
     23 H5         3.3511    0.6109   12.3694 H         1 RES1    0.0000
     24 H6         4.9025    0.4980   12.1765 H         1 RES1    0.0000
     25 H7         4.1854   -0.3598   13.2758 H         1 RES1    0.0000
     26 C15        8.0763    1.3370    7.2880 C.ar      1 RES1    0.0000
     27 H8         8.7696    0.7497    7.0911 H         1 RES1    0.0000
     28 C16        7.3385    3.4284    8.1231 C.ar      1 RES1    0.0000
     29 H9         7.5333    4.2567    8.4996 H         1 RES1    0.0000
     30 C17        8.3503    2.5582    7.8330 C.ar      1 RES1    0.0000
     31 H10        9.2313    2.7986    8.0092 H         1 RES1    0.0000
     32 C18        0.3618   -1.1680   11.3514 C.3       1 RES1    0.0000
     33 H11        0.0602   -1.6956   12.0951 H         1 RES1    0.0000
     34 H12       -0.3394   -1.1048   10.6983 H         1 RES1    0.0000
     35 H13        0.5935   -0.2883   11.6582 H         1 RES1    0.0000
     36 C19        5.0909   -2.0507   11.3711 C.3       1 RES1    0.0000
     37 H14        5.2234   -2.4105   12.2508 H         1 RES1    0.0000
     38 H15        5.8758   -1.5686   11.1004 H         1 RES1    0.0000
     39 H16        4.9265   -2.7679   10.7541 H         1 RES1    0.0000
     40 C20        1.2541   -3.2423   10.2537 C.3       1 RES1    0.0000
     41 H17        2.0476   -3.6559    9.9057 H         1 RES1    0.0000
     42 H18        0.5852   -3.2045    9.5664 H         1 RES1    0.0000
     43 H19        0.9246   -3.7569   10.9935 H         1 RES1    0.0000
     44 C21        0.7267    3.0438    5.0516 C.3       1 RES1    0.0000
     45 H20        0.1301    2.4914    5.5618 H         1 RES1    0.0000
     46 H21        0.2534    3.4302    4.3114 H         1 RES1    0.0000
     47 H22        1.0712    3.7439    5.6106 H         1 RES1    0.0000
     48 C22        1.3077    1.0888    3.6592 C.3       1 RES1    0.0000
     49 H23        2.0242    0.5429    3.3283 H         1 RES1    0.0000
     50 H24        0.8318    1.4746    2.9192 H         1 RES1    0.0000
     51 H25        0.7075    0.5494    4.1789 H         1 RES1    0.0000
     52 C23        2.8166    3.0698    3.7310 C.3       1 RES1    0.0000
     53 H26        3.2004    3.7386    4.3021 H         1 RES1    0.0000
     54 H27        2.3312    3.4958    3.0215 H         1 RES1    0.0000
     55 H28        3.5165    2.5274    3.3608 H         1 RES1    0.0000
     56 O1         2.5802   -2.5375   12.7963 O.2       1 RES1   -1.0000
@<TRIPOS>BOND
     1    1    3 ar
     2    2    9 ar
     3    3   14 ar
     4    4   10 1
     5    5    6 ar
     6    6    7 1
     7    8    1 1
     8    9   11 ar
     9   10    5 1
    10   11    1 ar
    11   12    9 ar
    12   13   12 1
    13   14    2 ar
    14   15    5 ar
    15   16    8 ar
    16   17   16 1
    17   18    8 ar
    18   19   18 1
    19   20    4 1
    20   21   14 1
    21   22   10 1
    22   23   22 1
    23   24   22 1
    24   25   22 1
    25   26   16 ar
    26   27   26 1
    27   28   18 ar
    28   29   28 1
    29   30   26 ar
    30   31   30 1
    31   32   20 1
    32   33   32 1
    33   34   32 1
    34   35   32 1
    35   36   10 1
    36   37   36 1
    37   38   36 1
    38   39   36 1
    39   40   20 1
    40   41   40 1
    41   42   40 1
    42   43   40 1
    43   44   21 1
    44   45   44 1
    45   46   44 1
    46   47   44 1
    47   48   21 1
    48   49   48 1
    49   50   48 1
    50   51   48 1
    51   52   21 1
    52   53   52 1
    53   54   52 1
    54   55   52 1
    55   56    4 1
    56    6   11 ar
    57   12   15 ar
    58   15   20 1
    59   28   30 ar
@<TRIPOS>SUBSTRUCTURE
     1 RES1 1

@<TRIPOS>CRYSIN
  15.4810    5.9080   23.3520  90.0000  95.5640  90.0000  14 1

