# MOL2 file generated by ConQuest
# Please check atom types

@<TRIPOS>MOLECULE
BILJIP
    20    22     1
SMALL
NO_CHARGES
****
Generated from CSD

@<TRIPOS>ATOM
      1 O1         7.1532   -0.7791    3.7028 O.3       1 RES1    0.0000
      2 N1         6.4293   -1.4215    4.8945 N.3       1 RES1    0.0000
      3 C1         7.5044   -0.4536    5.0486 C.3       1 RES1    0.0000
      4 C2         8.7676   -1.1212    5.5682 C.3       1 RES1    0.0000
      5 C3         8.7108   -1.0562    7.1271 C.3       1 RES1    0.0000
      6 C4         8.6274    0.4181    7.6079 C.3       1 RES1    0.0000
      7 C5         7.3661    1.0593    7.0275 C.3       1 RES1    0.0000
      8 C6         7.3288    1.0078    5.4624 C.3       1 RES1    0.0000
      9 C7         5.0313   -0.9232    4.8977 C.3       1 RES1    0.0000
     10 C8         4.5328   -1.0335    6.3212 C.ar      1 RES1    0.0000
     11 C9         4.7777   -2.1902    7.0447 C.ar      1 RES1    0.0000
     12 C10        4.3075   -2.2558    8.3718 C.ar      1 RES1    0.0000
     13 C11        3.5996   -1.2278    8.9194 C.ar      1 RES1    0.0000
     14 C12        3.3300   -0.1459    8.1897 C.ar      1 RES1    0.0000
     15 C13        3.8125    0.0116    6.8611 C.ar      1 RES1    0.0000
     16 C14        4.2436   -1.8175    3.9268 C.3       1 RES1    0.0000
     17 C15        8.6629    0.4996    9.1606 C.3       1 RES1    0.0000
     18 C16       10.0059   -0.0202    9.6771 C.3       1 RES1    0.0000
     19 C17        8.5955    1.9788    9.5884 C.3       1 RES1    0.0000
     20 C18        7.5293   -0.2348    9.8373 C.3       1 RES1    0.0000
@<TRIPOS>BOND
     1    1    2 1
     2    2    3 1
     3    3    1 1
     4    4    3 1
     5    5    4 1
     6    6    5 1
     7    7    6 1
     8    8    3 1
     9    9    2 1
    10   10    9 1
    11   11   10 ar
    12   12   11 ar
    13   13   12 ar
    14   14   13 ar
    15   15   10 ar
    16   16    9 1
    17   17    6 1
    18   18   17 1
    19   19   17 1
    20   20   17 1
    21    7    8 1
    22   14   15 ar
@<TRIPOS>SUBSTRUCTURE
     1 RES1 1

@<TRIPOS>CRYSIN
  17.7410    6.1300   15.5580  90.0000  90.0000  90.0000  19 1

