# MOL2 file generated by ConQuest
# Please check atom types

@<TRIPOS>MOLECULE
BILMAM
    40    42     1
SMALL
NO_CHARGES
****
Generated from CSD

@<TRIPOS>ATOM
      1 C1         1.8436   -0.0379    1.0172 C.2       1 RES1    0.0000
      2 C2         1.0049    0.9418    1.3700 C.2       1 RES1    0.0000
      3 C3         1.3393    2.4075    1.1728 C.3       1 RES1    0.0000
      4 H1         0.5238    2.8723    0.8902 H         1 RES1    0.0000
      5 C4         2.3433    2.5102    0.0648 C.2       1 RES1    0.0000
      6 C5         3.1294    1.4418   -0.3263 C.2       1 RES1    0.0000
      7 C6         4.7633    0.2239   -1.6851 C.3       1 RES1    0.0000
      8 H2         5.1913   -0.1844   -0.9286 H         1 RES1    0.0000
      9 H3         5.4271    0.4638   -2.3356 H         1 RES1    0.0000
     10 H4         4.1419   -0.3957   -2.0743 H         1 RES1    0.0000
     11 C7         1.7067   -1.4810    1.2666 C.ar      1 RES1    0.0000
     12 C8         1.1703   -1.9330    2.4690 C.ar      1 RES1    0.0000
     13 H5         0.9320   -1.3269    3.1328 H         1 RES1    0.0000
     14 C9         0.9941   -3.2924    2.6701 C.ar      1 RES1    0.0000
     15 H6         0.6432   -3.6003    3.4753 H         1 RES1    0.0000
     16 C10        1.3359   -4.1913    1.6821 C.ar      1 RES1    0.0000
     17 H7         1.1841   -5.0999    1.8115 H         1 RES1    0.0000
     18 C11        1.8966   -3.7523    0.5120 C.ar      1 RES1    0.0000
     19 H8         2.1379   -4.3659   -0.1432 H         1 RES1    0.0000
     20 C12        2.1046   -2.4009    0.3000 C.ar      1 RES1    0.0000
     21 H9         2.5085   -2.1078   -0.4842 H         1 RES1    0.0000
     22 C13       -0.2810    0.6300    1.9157 C.1       1 RES1    0.0000
     23 C14        1.8209    3.0391    2.4808 C.ar      1 RES1    0.0000
     24 C15        2.9719    2.5783    3.1065 C.ar      1 RES1    0.0000
     25 H10        3.4381    1.8600    2.7460 H         1 RES1    0.0000
     26 C16        3.4285    3.1845    4.2672 C.ar      1 RES1    0.0000
     27 H11        4.1981    2.8699    4.6844 H         1 RES1    0.0000
     28 C17        2.7431    4.2516    4.8033 C.ar      1 RES1    0.0000
     29 H12        3.0595    4.6677    5.5717 H         1 RES1    0.0000
     30 C18        1.5928    4.7008    4.2042 C.ar      1 RES1    0.0000
     31 H13        1.1247    5.4134    4.5737 H         1 RES1    0.0000
     32 C19        1.1289    4.0906    3.0441 C.ar      1 RES1    0.0000
     33 H14        0.3463    4.3941    2.6456 H         1 RES1    0.0000
     34 N1         2.4752    3.7440   -0.5550 N.pl3     1 RES1    0.0000
     35 N2         4.0549    1.4138   -1.2556 N.3       1 RES1    0.0000
     36 H15        4.2573    2.1571   -1.6387 H         1 RES1    0.0000
     37 N3        -1.3389    0.4313    2.2889 N.1       1 RES1    0.0000
     38 O1         2.9975    0.2455    0.3091 O.3       1 RES1    0.0000
     39 O2         1.7496    4.6768   -0.1755 O.2       1 RES1    0.0000
     40 O3         3.3249    3.9161   -1.4701 O.2       1 RES1    0.0000
@<TRIPOS>BOND
     1    1    2 2
     2    2    3 1
     3    3    4 1
     4    5    3 1
     5    6    5 2
     6    7    8 1
     7    9    7 1
     8   10    7 1
     9   11    1 1
    10   12   11 ar
    11   13   12 1
    12   14   12 ar
    13   15   14 1
    14   16   14 ar
    15   17   16 1
    16   18   16 ar
    17   19   18 1
    18   20   11 ar
    19   21   20 1
    20   22    2 1
    21   23    3 1
    22   24   23 ar
    23   25   24 1
    24   26   24 ar
    25   27   26 1
    26   28   26 ar
    27   29   28 1
    28   30   28 ar
    29   31   30 1
    30   32   23 ar
    31   33   32 1
    32   34    5 1
    33   35    6 1
    34   36   35 1
    35   37   22 3
    36   38    1 1
    37   39   34 2
    38   40   34 2
    39    6   38 1
    40    7   35 1
    41   18   20 ar
    42   30   32 ar
@<TRIPOS>SUBSTRUCTURE
     1 RES1 1

@<TRIPOS>CRYSIN
  18.6202   11.7427   14.9474  90.0000  98.9990  90.0000  15 1

