# MOL2 file generated by ConQuest
# Please check atom types

@<TRIPOS>MOLECULE
BIMPIZ
    54    57     1
SMALL
NO_CHARGES
****
Generated from CSD

@<TRIPOS>ATOM
      1 O1         0.8805    1.9272    2.8601 O.3       1 RES1    0.0000
      2 N1         0.1386    2.7073    3.8383 N.2       1 RES1    0.0000
      3 C1         3.7139    2.0646    2.6889 C.2       1 RES1    0.0000
      4 H1         4.3503    2.5497    2.2153 H         1 RES1    0.0000
      5 C2         2.2710    0.0587    2.7912 C.ar      1 RES1    0.0000
      6 C3         4.5044    2.9486    4.8473 C.ar      1 RES1    0.0000
      7 C4         3.7207   -0.6840   -1.3679 C.ar      1 RES1    0.0000
      8 C5         3.8144    0.5297    0.8185 C.2       1 RES1    0.0000
      9 H2         4.6090    0.9274    0.5453 H         1 RES1    0.0000
     10 C6         3.2677    2.6485    4.0091 C.3       1 RES1    0.0000
     11 H3         2.7557    1.9560    4.4775 H         1 RES1    0.0000
     12 C7         3.2919    0.9219    2.1249 C.2       1 RES1    0.0000
     13 C8         1.0714    0.6112    3.2372 C.ar      1 RES1    0.0000
     14 C9         2.3358    3.9240    3.8828 C.3       1 RES1    0.0000
     15 H4         2.6651    4.5577    4.5541 H         1 RES1    0.0000
     16 C10        2.5031   -1.2925    3.0646 C.ar      1 RES1    0.0000
     17 H5         3.2793   -1.6960    2.7491 H         1 RES1    0.0000
     18 C11        3.2565   -0.3484   -0.0200 C.2       1 RES1    0.0000
     19 H6         2.4976   -0.7916    0.2823 H         1 RES1    0.0000
     20 C12        0.8854    3.6752    4.2355 C.2       1 RES1    0.0000
     21 C13        1.5985   -2.0376    3.7967 C.ar      1 RES1    0.0000
     22 H7         1.7676   -2.9354    3.9734 H         1 RES1    0.0000
     23 C14        5.3397    4.0208    4.5661 C.ar      1 RES1    0.0000
     24 H8         5.1529    4.5693    3.8385 H         1 RES1    0.0000
     25 C15        2.8521   -1.3256   -2.2510 C.ar      1 RES1    0.0000
     26 H9         1.9920   -1.5385   -1.9696 H         1 RES1    0.0000
     27 C16        4.8342    2.1327    5.9100 C.ar      1 RES1    0.0000
     28 H10        4.3069    1.3911    6.0996 H         1 RES1    0.0000
     29 C17        5.0140   -0.4093   -1.8149 C.ar      1 RES1    0.0000
     30 H11        5.6187    0.0072   -1.2437 H         1 RES1    0.0000
     31 C18        0.1620   -0.1215    3.9774 C.ar      1 RES1    0.0000
     32 H12       -0.6266    0.2701    4.2775 H         1 RES1    0.0000
     33 C19        2.4301    4.6568    2.5450 C.3       1 RES1    0.0000
     34 H13        3.3402    4.9189    2.3868 H         1 RES1    0.0000
     35 H14        1.8718    5.4375    2.5674 H         1 RES1    0.0000
     36 H15        2.1373    4.0752    1.8404 H         1 RES1    0.0000
     37 C20        6.7389    3.4894    6.4328 C.ar      1 RES1    0.0000
     38 H16        7.4682    3.6852    6.9752 H         1 RES1    0.0000
     39 C21        6.4484    4.2835    5.3551 C.ar      1 RES1    0.0000
     40 H17        6.9996    5.0041    5.1508 H         1 RES1    0.0000
     41 C22        5.4091   -0.7476   -3.0944 C.ar      1 RES1    0.0000
     42 H18        6.2742   -0.5605   -3.3790 H         1 RES1    0.0000
     43 C23        5.9510    2.4076    6.7048 C.ar      1 RES1    0.0000
     44 H19        6.1579    1.8520    7.4210 H         1 RES1    0.0000
     45 C24        0.4409   -1.4442    4.2650 C.ar      1 RES1    0.0000
     46 H20       -0.1552   -1.9401    4.7781 H         1 RES1    0.0000
     47 C25        0.1888    4.6870    5.1004 C.3       1 RES1    0.0000
     48 H21        0.1973    5.5415    4.6627 H         1 RES1    0.0000
     49 H22        0.6429    4.7542    5.9430 H         1 RES1    0.0000
     50 H23       -0.7191    4.4118    5.2480 H         1 RES1    0.0000
     51 C26        4.5113   -1.3679   -3.9552 C.ar      1 RES1    0.0000
     52 H24        4.7733   -1.5905   -4.8193 H         1 RES1    0.0000
     53 C27        3.2421   -1.6499   -3.5311 C.ar      1 RES1    0.0000
     54 H25        2.6414   -2.0614   -4.1083 H         1 RES1    0.0000
@<TRIPOS>BOND
     1    1    2 1
     2    2   20 2
     3    3    4 1
     4    5   12 1
     5    6   10 1
     6    7   18 1
     7    8    9 1
     8   10    3 1
     9   11   10 1
    10   12    3 2
    11   13    1 1
    12   14   10 1
    13   15   14 1
    14   16    5 ar
    15   17   16 1
    16   18    8 2
    17   19   18 1
    18   20   14 1
    19   21   16 ar
    20   22   21 1
    21   23    6 ar
    22   24   23 1
    23   25    7 ar
    24   26   25 1
    25   27    6 ar
    26   28   27 1
    27   29    7 ar
    28   30   29 1
    29   31   13 ar
    30   32   31 1
    31   33   14 1
    32   34   33 1
    33   35   33 1
    34   36   33 1
    35   37   38 1
    36   39   23 ar
    37   40   39 1
    38   41   29 ar
    39   42   41 1
    40   43   27 ar
    41   44   43 1
    42   45   21 ar
    43   46   45 1
    44   47   20 1
    45   48   47 1
    46   49   47 1
    47   50   47 1
    48   51   41 ar
    49   52   51 1
    50   53   25 ar
    51   54   53 1
    52    5   13 ar
    53    8   12 1
    54   31   45 ar
    55   37   39 ar
    56   37   43 ar
    57   51   53 ar
@<TRIPOS>SUBSTRUCTURE
     1 RES1 1

@<TRIPOS>CRYSIN
  12.9260   14.4460   11.4732  90.0000  94.9180  90.0000  14 1

