# MOL2 file generated by ConQuest
# Please check atom types

@<TRIPOS>MOLECULE
BIMQAQ
    62    66     1
SMALL
NO_CHARGES
****
Generated from CSD

@<TRIPOS>ATOM
      1 C1        -1.2686    8.0285   -1.3326 C.ar      1 RES1    0.0000
      2 C2        -2.2280    8.1005   -0.3372 C.ar      1 RES1    0.0000
      3 H1        -2.9853    8.6292   -0.4433 H         1 RES1    0.0000
      4 C3        -2.0324    7.3778    0.8047 C.ar      1 RES1    0.0000
      5 H2        -2.6767    7.3980    1.4762 H         1 RES1    0.0000
      6 C4        -0.8667    6.5962    0.9814 C.ar      1 RES1    0.0000
      7 C5         0.0760    6.5321   -0.0513 C.ar      1 RES1    0.0000
      8 C6        -0.1418    7.2618   -1.2359 C.ar      1 RES1    0.0000
      9 H3         0.4685    7.2232   -1.9364 H         1 RES1    0.0000
     10 C7        -0.5604    5.9375    2.1988 C.ar      1 RES1    0.0000
     11 H4        -1.1644    5.9577    2.9057 H         1 RES1    0.0000
     12 C8         0.6149    5.2780    2.3284 C.ar      1 RES1    0.0000
     13 C9         1.4790    5.2068    1.1952 C.ar      1 RES1    0.0000
     14 N1         1.2381    5.7917    0.0547 N.ar      1 RES1    0.0000
     15 N2         1.0537    4.7449    3.5445 N.3       1 RES1    0.0000
     16 C10        2.0112    3.7271    3.5064 C.ar      1 RES1    0.0000
     17 C11        2.9058    3.6586    2.3753 C.ar      1 RES1    0.0000
     18 N3         2.6701    4.4911    1.2976 N.pl3     1 RES1    0.0000
     19 C12        2.2528    2.8199    4.5108 C.ar      1 RES1    0.0000
     20 C13        3.3454    1.8952    4.4788 C.ar      1 RES1    0.0000
     21 C14        4.1539    1.9689    3.3284 C.ar      1 RES1    0.0000
     22 N4         3.9260    2.8436    2.3006 N.ar      1 RES1    0.0000
     23 C15        3.6274    0.9247    5.4678 C.ar      1 RES1    0.0000
     24 H5         3.0985    0.8633    6.2292 H         1 RES1    0.0000
     25 C16        4.6909    0.0729    5.2875 C.ar      1 RES1    0.0000
     26 H6         4.8793   -0.5612    5.9408 H         1 RES1    0.0000
     27 C17        5.4843    0.1352    4.1677 C.ar      1 RES1    0.0000
     28 H7         6.1904   -0.4602    4.0637 H         1 RES1    0.0000
     29 C18        5.2338    1.0740    3.2069 C.ar      1 RES1    0.0000
     30 H8         5.7866    1.1232    2.4603 H         1 RES1    0.0000
     31 N5        -1.4298    8.8628   -2.5235 N.pl3     1 RES1    0.0000
     32 O1        -2.3909    9.6400   -2.5691 O.2       1 RES1    0.0000
     33 O2        -0.6072    8.7873   -3.4275 O.2       1 RES1    0.0000
     34 C19        0.6750    5.4176    4.8059 C.3       1 RES1    0.0000
     35 H9         0.1828    4.7915    5.3618 H         1 RES1    0.0000
     36 H10        0.0854    6.1597    4.6025 H         1 RES1    0.0000
     37 C20        1.8721    5.9375    5.5866 C.3       1 RES1    0.0000
     38 H11        2.2978    6.6453    5.0797 H         1 RES1    0.0000
     39 H12        2.5162    5.2200    5.6926 H         1 RES1    0.0000
     40 C21        1.4947    6.4723    6.9673 C.3       1 RES1    0.0000
     41 H13        1.0990    5.7496    7.4785 H         1 RES1    0.0000
     42 H14        2.3055    6.7437    7.4233 H         1 RES1    0.0000
     43 C22        0.5471    7.6210    6.9631 C.3       1 RES1    0.0000
     44 H15        0.3479    7.8739    7.8666 H         1 RES1    0.0000
     45 H16       -0.2627    7.3663    6.5156 H         1 RES1    0.0000
     46 H17        0.9475    8.3631    6.5050 H         1 RES1    0.0000
     47 C23        3.6065    4.4964    0.1506 C.3       1 RES1    0.0000
     48 H18        3.0940    4.4454   -0.6723 H         1 RES1    0.0000
     49 H19        4.1633    3.7034    0.1994 H         1 RES1    0.0000
     50 C24        4.4856    5.6942    0.0933 C.3       1 RES1    0.0000
     51 H20        5.0180    5.6503   -0.7169 H         1 RES1    0.0000
     52 H21        3.9284    6.4855    0.0339 H         1 RES1    0.0000
     53 C25        5.3772    5.8374    1.2259 C.3       1 RES1    0.0000
     54 H22        5.8251    4.9917    1.3871 H         1 RES1    0.0000
     55 H23        4.8555    6.0517    2.0149 H         1 RES1    0.0000
     56 C26        6.4644    6.9632    1.0053 C.3       1 RES1    0.0000
     57 H24        7.0369    7.0115    1.7731 H         1 RES1    0.0000
     58 H25        6.0280    7.8090    0.8760 H         1 RES1    0.0000
     59 H26        6.9886    6.7534    0.2291 H         1 RES1    0.0000
     60 N6         1.3323    2.6899    5.6305 N.pl3     1 RES1    0.0000
     61 O3         0.1654    2.4282    5.3902 O.2       1 RES1    0.0000
     62 O4         1.7726    2.8243    6.7705 O.2       1 RES1    0.0000
@<TRIPOS>BOND
     1    1    2 ar
     2    2    3 1
     3    4    2 ar
     4    5    4 1
     5    6    4 ar
     6    7    6 ar
     7    8    1 ar
     8    9    8 1
     9   10    6 ar
    10   11   10 1
    11   12   10 ar
    12   13   12 ar
    13   14    7 ar
    14   15   12 1
    15   16   15 1
    16   17   16 ar
    17   18   13 1
    18   19   16 ar
    19   20   19 ar
    20   21   20 ar
    21   22   17 ar
    22   23   20 ar
    23   24   23 1
    24   25   23 ar
    25   26   25 1
    26   27   25 ar
    27   28   27 1
    28   29   21 ar
    29   30   29 1
    30   31    1 1
    31   32   31 2
    32   33   31 2
    33   34   15 1
    34   35   34 1
    35   36   34 1
    36   37   34 1
    37   38   37 1
    38   39   37 1
    39   40   37 1
    40   41   40 1
    41   42   40 1
    42   43   40 1
    43   44   43 1
    44   45   43 1
    45   46   43 1
    46   47   18 1
    47   48   47 1
    48   49   47 1
    49   50   47 1
    50   51   50 1
    51   52   50 1
    52   53   50 1
    53   54   53 1
    54   55   53 1
    55   56   53 1
    56   57   56 1
    57   58   56 1
    58   59   56 1
    59   60   19 1
    60   61   60 2
    61   62   60 2
    62    7    8 ar
    63   13   14 ar
    64   17   18 1
    65   21   22 ar
    66   27   29 ar
@<TRIPOS>SUBSTRUCTURE
     1 RES1 1

@<TRIPOS>CRYSIN
  12.8520    8.7820   21.6440  90.0000 101.5000  90.0000  14 1

