# MOL2 file generated by ConQuest
# Please check atom types

@<TRIPOS>MOLECULE
BIOXZL
    28    30     2
SMALL
NO_CHARGES
****
Generated from CSD

@<TRIPOS>ATOM
      1 C1        -0.2069    0.4660    0.5094 C.2       1 RES1    0.0000
      2 C2         0.4386    0.8155    1.7498 C.2       1 RES1    0.0000
      3 C3        -0.3406    1.7638    2.2892 C.2       1 RES1    0.0000
      4 C4         5.2416    0.4777    0.4315 C.2       2 RES2    0.0000
      5 C5         4.0591    1.2629    0.1918 C.2       2 RES2    0.0000
      6 C6         3.8483    1.9386    1.2944 C.2       2 RES2    0.0000
      7 H1         1.3873    0.4008    2.1693 H         1 RES1    0.0000
      8 H2        -0.2111    2.2228    3.2899 H         1 RES1    0.0000
      9 H3         3.4694    1.3188   -0.7311 H         2 RES2    0.0000
     10 H4         3.0535    2.6981    1.4742 H         2 RES2    0.0000
     11 N1        -1.3197    1.1370    0.3536 N.2       1 RES1    0.0000
     12 N2         5.6983    0.6874    1.6420 N.2       2 RES2    0.0000
     13 O1        -1.4383    1.9502    1.4802 O.3       1 RES1    0.0000
     14 O2         4.8403    1.6776    2.1933 O.3       2 RES2    0.0000
     15 C1B        0.2069   -0.4660   -0.5094 C.2       1 RES1    0.0000
     16 C2B       -0.4386   -0.8155   -1.7498 C.2       1 RES1    0.0000
     17 N1B        1.3197   -1.1370   -0.3536 N.2       1 RES1    0.0000
     18 C3B        0.3406   -1.7638   -2.2892 C.2       1 RES1    0.0000
     19 H1B       -1.3873   -0.4008   -2.1693 H         1 RES1    0.0000
     20 O1B        1.4383   -1.9502   -1.4802 O.3       1 RES1    0.0000
     21 H2B        0.2111   -2.2228   -3.2899 H         1 RES1    0.0000
     22 C4B        5.8684   -0.4777   -0.4315 C.2       2 RES2    0.0000
     23 C5B        7.0509   -1.2629   -0.1918 C.2       2 RES2    0.0000
     24 N2B        5.4117   -0.6874   -1.6420 N.2       2 RES2    0.0000
     25 C6B        7.2617   -1.9386   -1.2944 C.2       2 RES2    0.0000
     26 H3B        7.6406   -1.3188    0.7311 H         2 RES2    0.0000
     27 O2B        6.2697   -1.6776   -2.1933 O.3       2 RES2    0.0000
     28 H4B        8.0565   -2.6981   -1.4742 H         2 RES2    0.0000
@<TRIPOS>BOND
     1    1    2 1
     2    2    3 2
     3    3    8 1
     4    4    5 1
     5    5    6 2
     6    6   10 1
     7    7    2 1
     8    9    5 1
     9   11    1 2
    10   12    4 2
    11   13    3 1
    12   14    6 1
    13   15    1 1
    14   16   15 1
    15   17   15 2
    16   18   16 2
    17   19   16 1
    18   20   17 1
    19   21   18 1
    20   22    4 1
    21   23   22 1
    22   24   22 2
    23   25   23 2
    24   26   23 1
    25   27   24 1
    26   28   25 1
    27   11   13 1
    28   12   14 1
    29   18   20 1
    30   25   27 1
@<TRIPOS>SUBSTRUCTURE
     1 RES1 1
     2 RES2 4

@<TRIPOS>CRYSIN
  11.1100    4.6600   13.7300  90.0000 119.2000  90.0000  14 1

