# MOL2 file generated by ConQuest
# Please check atom types

@<TRIPOS>MOLECULE
BIPCUY
    41    44     1
SMALL
NO_CHARGES
****
Generated from CSD

@<TRIPOS>ATOM
      1 O1         5.9684   -2.1114   -1.3302 O.2       1 RES1    0.0000
      2 O2         7.3396   -3.6306   -1.0451 O.2       1 RES1    0.0000
      3 N1         6.8533   -2.6027   -0.7257 N.pl3     1 RES1    0.0000
      4 C1         9.4434   -3.1759    1.2387 C.ar      1 RES1    0.0000
      5 C2        10.0514   -4.0547    2.1039 C.ar      1 RES1    0.0000
      6 C3         9.3350   -4.5796    3.1475 C.ar      1 RES1    0.0000
      7 C4         8.0238   -4.2111    3.3541 C.ar      1 RES1    0.0000
      8 C5         4.6309   -0.8086    2.7283 C.ar      1 RES1    0.0000
      9 C6         4.3716    0.4577    2.2709 C.ar      1 RES1    0.0000
     10 C7         5.1407    1.0045    1.2631 C.ar      1 RES1    0.0000
     11 C8         6.1427    0.2676    0.7028 C.ar      1 RES1    0.0000
     12 C9         7.4569   -1.8394    0.4902 C.3       1 RES1    0.0000
     13 C10        5.9508   -2.9624    2.6772 C.3       1 RES1    0.0000
     14 C11        8.1205   -2.8045    1.4103 C.ar      1 RES1    0.0000
     15 C12        7.3924   -3.3280    2.4836 C.ar      1 RES1    0.0000
     16 C13        5.6520   -1.5675    2.1825 C.ar      1 RES1    0.0000
     17 C14        6.3859   -1.0294    1.1252 C.ar      1 RES1    0.0000
     18 C15        4.9913   -3.9553    1.9797 C.3       1 RES1    0.0000
     19 C16        5.1964   -5.3882    2.4195 C.ar      1 RES1    0.0000
     20 C17        4.6265   -5.8503    3.5729 C.ar      1 RES1    0.0000
     21 C18        4.8360   -7.1399    3.9876 C.ar      1 RES1    0.0000
     22 C19        5.6256   -7.9865    3.2771 C.ar      1 RES1    0.0000
     23 C20        6.1926   -7.5450    2.1421 C.ar      1 RES1    0.0000
     24 C21        5.9757   -6.2465    1.6854 C.ar      1 RES1    0.0000
     25 H1         9.8448   -2.7928    0.5260 H         1 RES1    0.0000
     26 H2        11.0608   -4.2696    1.7838 H         1 RES1    0.0000
     27 H3         9.6544   -5.3224    3.6895 H         1 RES1    0.0000
     28 H4         7.4715   -4.6059    4.1545 H         1 RES1    0.0000
     29 H5         4.1606   -1.1551    3.5294 H         1 RES1    0.0000
     30 H6         3.6479    0.9212    2.6681 H         1 RES1    0.0000
     31 H7         5.0103    1.8570    1.0291 H         1 RES1    0.0000
     32 H8         6.6804    0.5849    0.0229 H         1 RES1    0.0000
     33 H9         8.1015   -1.3306    0.0534 H         1 RES1    0.0000
     34 H10        5.7575   -2.9975    3.6209 H         1 RES1    0.0000
     35 H11        5.0396   -3.9626    0.9605 H         1 RES1    0.0000
     36 H12        4.1020   -3.5970    2.2793 H         1 RES1    0.0000
     37 H13        4.0727   -5.2639    4.1469 H         1 RES1    0.0000
     38 H14        4.4536   -7.3987    4.8863 H         1 RES1    0.0000
     39 H15        5.9625   -8.9633    3.6285 H         1 RES1    0.0000
     40 H16        6.8415   -8.0713    1.5017 H         1 RES1    0.0000
     41 H17        6.3874   -5.7903    0.8995 H         1 RES1    0.0000
@<TRIPOS>BOND
     1    1    3 2
     2    2    3 2
     3    3   12 1
     4    4    5 ar
     5    5    6 ar
     6    6    7 ar
     7    7   15 ar
     8    8    9 ar
     9    9   10 ar
    10   10   11 ar
    11   11   17 ar
    12   12   14 1
    13   13   15 1
    14   14    4 ar
    15   15   14 ar
    16   16    8 ar
    17   17   12 1
    18   18   13 1
    19   19   18 1
    20   20   19 ar
    21   21   20 ar
    22   22   21 ar
    23   23   22 ar
    24   24   19 ar
    25   25    4 1
    26   26    5 1
    27   27    6 1
    28   28    7 1
    29   29    8 1
    30   30    9 1
    31   31   10 1
    32   32   11 1
    33   33   12 1
    34   34   13 1
    35   35   18 1
    36   36   18 1
    37   37   20 1
    38   38   21 1
    39   39   22 1
    40   40   23 1
    41   41   24 1
    42   13   16 1
    43   16   17 ar
    44   23   24 ar
@<TRIPOS>SUBSTRUCTURE
     1 RES1 1

@<TRIPOS>CRYSIN
  14.6500   14.6220    7.6230  90.0000  90.0000  90.0000  29 1

