# MOL2 file generated by ConQuest
# Please check atom types

@<TRIPOS>MOLECULE
BIRJER
    28    28     1
SMALL
NO_CHARGES
****
Generated from CSD

@<TRIPOS>ATOM
      1 O1         3.5647    0.2389    0.8689 O.2       1 RES1    0.0000
      2 N1         3.0476   -0.9184    0.9186 N.3       1 RES1    0.0000
      3 N2         2.0764   -4.7774    3.3371 N.1       1 RES1    0.0000
      4 N3         1.4577   -4.8659   -1.1279 N.1       1 RES1    0.0000
      5 C1         2.6511   -1.5367    2.1986 C.3       1 RES1    0.0000
      6 C2         1.9825   -2.8185    1.6731 C.3       1 RES1    0.0000
      7 C3         2.6530   -3.0933    0.3449 C.3       1 RES1    0.0000
      8 C4         2.7717   -1.6917   -0.3177 C.3       1 RES1    0.0000
      9 C5         3.8751   -1.7482    3.0645 C.3       1 RES1    0.0000
     10 C6         1.6416   -0.6710    2.8974 C.3       1 RES1    0.0000
     11 C7         2.0419   -3.9391    2.6203 C.1       1 RES1    0.0000
     12 C8         1.9519   -4.0903   -0.5075 C.1       1 RES1    0.0000
     13 C9         3.9402   -1.6344   -1.2619 C.3       1 RES1    0.0000
     14 C10        1.5152   -1.1695   -0.9773 C.3       1 RES1    0.0000
     15 H1         1.0459   -2.7085    1.5586 H         1 RES1    0.0000
     16 H2         3.5054   -3.4933    0.4729 H         1 RES1    0.0000
     17 H3         3.6337   -2.1444    3.8943 H         1 RES1    0.0000
     18 H4         4.2869   -0.9069    3.2241 H         1 RES1    0.0000
     19 H5         4.4823   -2.3169    2.6082 H         1 RES1    0.0000
     20 H6         1.3772   -1.0756    3.7151 H         1 RES1    0.0000
     21 H7         0.8811   -0.5634    2.3387 H         1 RES1    0.0000
     22 H8         2.0266    0.1786    3.0735 H         1 RES1    0.0000
     23 H9         3.7505   -2.1329   -2.0480 H         1 RES1    0.0000
     24 H10        4.6987   -2.0070   -0.8282 H         1 RES1    0.0000
     25 H11        4.1222   -0.7321   -1.4969 H         1 RES1    0.0000
     26 H12        1.3294   -1.6688   -1.7634 H         1 RES1    0.0000
     27 H13        1.6301   -0.2542   -1.2032 H         1 RES1    0.0000
     28 H14        0.7911   -1.2558   -0.3689 H         1 RES1    0.0000
@<TRIPOS>BOND
     1    1    2 1
     2    2    5 1
     3    3   11 3
     4    4   12 3
     5    5    6 1
     6    6    7 1
     7    7    8 1
     8    8    2 1
     9    9    5 1
    10   10    5 1
    11   11    6 1
    12   12    7 1
    13   13    8 1
    14   14    8 1
    15   15    6 1
    16   16    7 1
    17   17    9 1
    18   18    9 1
    19   19    9 1
    20   20   10 1
    21   21   10 1
    22   22   10 1
    23   23   13 1
    24   24   13 1
    25   25   13 1
    26   26   14 1
    27   27   14 1
    28   28   14 1
@<TRIPOS>SUBSTRUCTURE
     1 RES1 1

@<TRIPOS>CRYSIN
  19.1550    7.6340   15.0590  90.0000  90.0000  90.0000  60 1

