# MOL2 file generated by ConQuest
# Please check atom types

@<TRIPOS>MOLECULE
BIRXOP
    26    28     2
SMALL
NO_CHARGES
****
Generated from CSD

@<TRIPOS>ATOM
      1 O1         4.5205    1.3306    5.3730 O.3       1 RES1    0.0000
      2 C2         4.0340    2.6021    5.7708 C.3       1 RES1    0.0000
      3 C3         3.7171    2.6680    7.2528 C.2       1 RES1    0.0000
      4 N4         4.4880    1.9331    8.0122 N.am      1 RES1    0.0000
      5 C40        5.4858    1.0529    7.5432 C.ar      1 RES1    0.0000
      6 C5         6.3951    0.4384    8.3840 C.ar      1 RES1    0.0000
      7 C6         7.3029   -0.4456    7.8460 C.ar      1 RES1    0.0000
      8 C7         7.2838   -0.7330    6.4947 C.ar      1 RES1    0.0000
      9 C8         6.3749   -0.1310    5.6598 C.ar      1 RES1    0.0000
     10 C80        5.4624    0.7676    6.1927 C.ar      1 RES1    0.0000
     11 O9         4.9621    3.6060    5.5712 O.3       1 RES1    0.0000
     12 O10        2.8321    3.4318    7.6790 O.2       1 RES1    0.0000
     13 O110       4.3180    2.0048    9.4020 O.3       1 RES1    0.0000
     14 O11        0.6759    4.0826    2.6313 O.3       2 RES2    0.0000
     15 C21        2.0377    4.4199    2.8368 C.3       2 RES2    0.0000
     16 C31        2.2662    5.2376    4.0951 C.2       2 RES2    0.0000
     17 N41        1.4769    4.9298    5.1334 N.am      2 RES2    0.0000
     18 C42        0.3297    4.1233    5.0143 C.ar      2 RES2    0.0000
     19 C51       -0.4705    3.7941    6.1099 C.ar      2 RES2    0.0000
     20 C61       -1.6031    3.0480    5.9059 C.ar      2 RES2    0.0000
     21 C71       -1.9670    2.6308    4.6534 C.ar      2 RES2    0.0000
     22 C81       -1.1656    2.9473    3.5512 C.ar      2 RES2    0.0000
     23 C82       -0.0389    3.6903    3.7466 C.ar      2 RES2    0.0000
     24 O91        2.8266    3.2946    2.9457 O.3       2 RES2    0.0000
     25 O101       3.1793    6.0476    4.1466 O.2       2 RES2    0.0000
     26 O111       1.6935    5.5933    6.3314 O.3       2 RES2    0.0000
@<TRIPOS>BOND
     1    1    2 1
     2    2    3 1
     3    3    4 1
     4    4    5 1
     5    5    6 ar
     6    6    7 ar
     7    7    8 ar
     8    8    9 ar
     9    9   10 ar
    10   10    1 1
    11   11    2 1
    12   12    3 2
    13   13    4 1
    14   14   15 1
    15   15   16 1
    16   16   17 1
    17   17   18 1
    18   18   19 ar
    19   19   20 ar
    20   20   21 ar
    21   21   22 ar
    22   22   23 ar
    23   23   14 1
    24   24   15 1
    25   25   16 2
    26   26   17 1
    27    5   10 ar
    28   18   23 ar
@<TRIPOS>SUBSTRUCTURE
     1 RES1 1
     2 RES2 14

@<TRIPOS>CRYSIN
  10.4150   10.5120    7.3520  90.1900  99.0300  90.9100   2 1

