# MOL2 file generated by ConQuest
# Please check atom types

@<TRIPOS>MOLECULE
BISKET
    25    26     1
SMALL
NO_CHARGES
****
Generated from CSD

@<TRIPOS>ATOM
      1 C1         2.2495    1.7451    5.0123 C.ar      1 RES1    0.0000
      2 C2         1.0156    1.2155    5.4427 C.ar      1 RES1    0.0000
      3 C3         0.0878    0.9154    4.4956 C.ar      1 RES1    0.0000
      4 C4         0.3802    0.9895    3.1225 C.ar      1 RES1    0.0000
      5 C5         1.5895    1.5483    2.6174 C.ar      1 RES1    0.0000
      6 C6         2.5058    1.8660    3.7021 C.ar      1 RES1    0.0000
      7 C7         4.5801    1.5615    5.9580 C.ar      1 RES1    0.0000
      8 C8         5.6731    2.4054    6.0883 C.ar      1 RES1    0.0000
      9 C9         6.9364    1.7901    6.0795 C.ar      1 RES1    0.0000
     10 C10        7.1165    0.5058    5.7121 C.ar      1 RES1    0.0000
     11 C11        6.0174   -0.3575    5.4778 C.ar      1 RES1    0.0000
     12 C12        4.7164    0.2904    5.5247 C.ar      1 RES1    0.0000
     13 N1         3.2484    2.1194    6.0136 N.pl3     1 RES1    0.0000
     14 N2         3.0565    3.0383    6.9754 N.2       1 RES1    0.0000
     15 O1         1.9458    3.5070    7.0164 O.2       1 RES1    0.0000
     16 H1         0.8138    1.0531    6.4923 H         1 RES1    0.0000
     17 H2        -0.9011    0.6126    4.8059 H         1 RES1    0.0000
     18 H3        -0.3429    0.6046    2.4198 H         1 RES1    0.0000
     19 H4         1.7980    1.7133    1.5707 H         1 RES1    0.0000
     20 H5         3.4837    2.2341    3.4255 H         1 RES1    0.0000
     21 H6         5.5587    3.4743    6.1922 H         1 RES1    0.0000
     22 H7         7.7968    2.3700    6.3781 H         1 RES1    0.0000
     23 H8         8.1211    0.1262    5.5935 H         1 RES1    0.0000
     24 H9         6.1350   -1.4123    5.2802 H         1 RES1    0.0000
     25 H10        3.8398   -0.2560    5.2070 H         1 RES1    0.0000
@<TRIPOS>BOND
     1    1    2 ar
     2    2    3 ar
     3    3    4 ar
     4    4    5 ar
     5    5    6 ar
     6    6    1 ar
     7    7    8 ar
     8    8    9 ar
     9    9   10 ar
    10   10   11 ar
    11   11   12 ar
    12   12    7 ar
    13   13    1 1
    14   14   13 1
    15   15   14 2
    16   16    2 1
    17   17    3 1
    18   18    4 1
    19   19    5 1
    20   20    6 1
    21   21    8 1
    22   22    9 1
    23   23   10 1
    24   24   11 1
    25   25   12 1
    26    7   13 1
@<TRIPOS>SUBSTRUCTURE
     1 RES1 1

@<TRIPOS>CRYSIN
  16.2830    8.8270   16.5080  90.0000 117.5300  90.0000  15 1

