# MOL2 file generated by ConQuest
# Please check atom types

@<TRIPOS>MOLECULE
BISLEU
    30    31     1
SMALL
NO_CHARGES
****
Generated from CSD

@<TRIPOS>ATOM
      1 C1        19.2675    0.6357    1.5489 C.3       1 RES1    0.0000
      2 O1        18.2131    1.5655    1.2027 O.3       1 RES1    0.0000
      3 C2        17.0192    1.0569    0.8396 C.2       1 RES1    0.0000
      4 O2        16.7799   -0.1286    0.8025 O.2       1 RES1    0.0000
      5 N1        16.1930    2.0593    0.5357 N.am      1 RES1    0.0000
      6 C3        14.8245    1.7676    0.1715 C.3       1 RES1    0.0000
      7 C4        13.9888    1.6854    1.4526 C.2       1 RES1    0.0000
      8 O3        14.2074    2.3349    2.4171 O.2       1 RES1    0.0000
      9 O4        12.9873    0.7689    1.3563 O.3       1 RES1    0.0000
     10 C5        14.2406    2.8770   -0.7401 C.3       1 RES1    0.0000
     11 C6        15.1811    3.1938   -1.9290 C.3       1 RES1    0.0000
     12 C7        12.8366    2.5237   -1.2165 C.3       1 RES1    0.0000
     13 C8        15.4174    2.0315   -2.8713 C.3       1 RES1    0.0000
     14 N2         9.7459    0.4634    5.9152 N.pl3     1 RES1    0.0000
     15 O5         8.8915    1.3269    6.0497 O.2       1 RES1    0.0000
     16 O6         9.9643   -0.4294    6.6976 O.2       1 RES1    0.0000
     17 O7        10.8502    2.3817    1.5521 O.3       1 RES1    0.0000
     18 C9         9.6661    3.1928    1.5701 C.3       1 RES1    0.0000
     19 C10       19.6490    0.8759    2.9952 C.ar      1 RES1    0.0000
     20 C11       19.1852    0.0103    3.9608 C.ar      1 RES1    0.0000
     21 C12       19.5216    0.2278    5.2863 C.ar      1 RES1    0.0000
     22 C13       20.3252    1.2569    5.6484 C.ar      1 RES1    0.0000
     23 C14       20.8230    2.1225    4.6712 C.ar      1 RES1    0.0000
     24 C15       20.4727    1.9194    3.3393 C.ar      1 RES1    0.0000
     25 C16       12.1650    0.6866    2.5008 C.ar      1 RES1    0.0000
     26 C17       11.0591    1.5434    2.5855 C.ar      1 RES1    0.0000
     27 C18       10.2454    1.4555    3.7268 C.ar      1 RES1    0.0000
     28 C19       10.5917    0.5220    4.6860 C.ar      1 RES1    0.0000
     29 C20       11.6441   -0.3523    4.6055 C.ar      1 RES1    0.0000
     30 C21       12.4490   -0.2525    3.4907 C.ar      1 RES1    0.0000
@<TRIPOS>BOND
     1    1    2 1
     2    2    3 1
     3    3    4 2
     4    5    3 1
     5    6    5 1
     6    7    6 1
     7    8    7 2
     8    9    7 1
     9   10    6 1
    10   11   10 1
    11   12   10 1
    12   13   11 1
    13   14   15 2
    14   16   14 2
    15   17   18 1
    16   19    1 1
    17   20   19 ar
    18   21   20 ar
    19   22   21 ar
    20   23   22 ar
    21   24   19 ar
    22   25    9 1
    23   26   17 1
    24   27   26 ar
    25   28   14 1
    26   29   28 ar
    27   30   25 ar
    28   23   24 ar
    29   25   26 ar
    30   27   28 ar
    31   29   30 ar
@<TRIPOS>SUBSTRUCTURE
     1 RES1 1

@<TRIPOS>CRYSIN
  19.4330    5.1430   10.9260  90.0000 104.3000  90.0000   4 1

