# MOL2 file generated by ConQuest
# Please check atom types

@<TRIPOS>MOLECULE
BIVJIA
   296   312     8
SMALL
NO_CHARGES
****
Generated from CSD

@<TRIPOS>ATOM
      1 O1        10.8313    5.3699    1.8541 O.3       1 RES1    0.0000
      2 N1        11.8558    4.4329    1.5604 N.2       1 RES1    0.0000
      3 C1        13.3204    2.7548    2.5344 C.3       1 RES1    0.0000
      4 H1        10.8735    5.8337    0.9620 H         1 RES1    0.0000
      5 C2        12.2598    3.8070    2.6071 C.2       1 RES1    0.0000
      6 C3        11.8569    4.0159    4.0404 C.3       1 RES1    0.0000
      7 H2        11.6291    4.9803    4.1748 H         1 RES1    0.0000
      8 C4        10.6332    3.1552    4.4358 C.3       1 RES1    0.0000
      9 H3        10.5736    3.1416    5.4222 H         1 RES1    0.0000
     10 H4         9.8193    3.6061    4.0966 H         1 RES1    0.0000
     11 C5        10.6162    1.7350    3.9470 C.2       1 RES1    0.0000
     12 C6        11.8975    0.9478    3.8351 C.3       1 RES1    0.0000
     13 H5        11.6851   -0.0180    3.7974 H         1 RES1    0.0000
     14 H6        12.4490    1.1070    4.6443 H         1 RES1    0.0000
     15 C7        12.7052    1.3338    2.5910 C.3       1 RES1    0.0000
     16 H7        12.0806    1.2625    1.8135 H         1 RES1    0.0000
     17 C8        14.1409    3.0947    3.8048 C.3       1 RES1    0.0000
     18 H8        14.5639    2.2773    4.1702 H         1 RES1    0.0000
     19 H9        14.8520    3.7494    3.5903 H         1 RES1    0.0000
     20 C9        13.1464    3.6925    4.8308 C.3       1 RES1    0.0000
     21 H10       12.9390    3.0026    5.5235 H         1 RES1    0.0000
     22 C10       14.1730    2.6749    1.2759 C.3       1 RES1    0.0000
     23 H11       14.9241    3.3194    1.3210 H         1 RES1    0.0000
     24 H12       13.6299    2.8772    0.4741 H         1 RES1    0.0000
     25 C11       14.7091    1.2164    1.2212 C.3       1 RES1    0.0000
     26 H13       14.5707    0.8282    0.3222 H         1 RES1    0.0000
     27 H14       15.6760    1.1912    1.4315 H         1 RES1    0.0000
     28 C12       13.9089    0.4451    2.2665 C.3       1 RES1    0.0000
     29 H15       14.4559    0.2859    3.0747 H         1 RES1    0.0000
     30 H16       13.6121   -0.4278    1.9056 H         1 RES1    0.0000
     31 C13        9.4686    1.1783    3.5912 C.2       1 RES1    0.0000
     32 H17        8.6619    1.6774    3.6455 H         1 RES1    0.0000
     33 H18        9.4508    0.2802    3.2819 H         1 RES1    0.0000
     34 C14       13.7269    4.9234    5.5143 C.3       1 RES1    0.0000
     35 H19       13.8677    5.6299    4.8515 H         1 RES1    0.0000
     36 H20       14.5817    4.6922    5.9332 H         1 RES1    0.0000
     37 H21       13.1028    5.2402    6.2001 H         1 RES1    0.0000
     38 O2         2.8099    1.9827    0.8566 O.3       2 RES2    0.0000
     39 N2         3.8943    2.8823    0.6200 N.2       2 RES2    0.0000
     40 C15        5.0444    4.8225    1.5429 C.3       2 RES2    0.0000
     41 H22        3.0582    1.4116    0.0276 H         2 RES2    0.0000
     42 C16        3.9610    3.7768    1.5245 C.2       2 RES2    0.0000
     43 C17        3.0711    3.9691    2.7139 C.3       2 RES2    0.0000
     44 H23        2.1286    3.7638    2.4487 H         2 RES2    0.0000
     45 C18        3.4772    3.0436    3.8835 C.3       2 RES2    0.0000
     46 H24        3.0257    3.3677    4.7042 H         2 RES2    0.0000
     47 H25        3.1284    2.1369    3.6915 H         2 RES2    0.0000
     48 C19        4.9633    2.9226    4.1822 C.2       2 RES2    0.0000
     49 C20        5.8970    4.0793    3.9244 C.3       2 RES2    0.0000
     50 H26        6.7467    3.9143    4.4050 H         2 RES2    0.0000
     51 H27        5.4950    4.9017    4.2991 H         2 RES2    0.0000
     52 C21        6.2104    4.3177    2.4460 C.3       2 RES2    0.0000
     53 H28        6.5300    3.4505    2.0621 H         2 RES2    0.0000
     54 C22        4.2958    6.0462    2.1210 C.3       2 RES2    0.0000
     55 H29        4.9155    6.6173    2.6421 H         2 RES2    0.0000
     56 H30        3.9013    6.5878    1.3901 H         2 RES2    0.0000
     57 C23        3.1864    5.4801    3.0361 C.3       2 RES2    0.0000
     58 H31        3.4848    5.5751    3.9861 H         2 RES2    0.0000
     59 C24        5.8028    5.1401    0.2536 C.3       2 RES2    0.0000
     60 H32        5.2736    5.7394   -0.3314 H         2 RES2    0.0000
     61 H33        6.0155    4.3119   -0.2440 H         2 RES2    0.0000
     62 C25        7.0880    5.8373    0.7392 C.3       2 RES2    0.0000
     63 H34        7.8572    5.5809    0.1703 H         2 RES2    0.0000
     64 H35        6.9820    6.8211    0.7042 H         2 RES2    0.0000
     65 C26        7.3044    5.3728    2.1786 C.3       2 RES2    0.0000
     66 H36        7.2182    6.1326    2.8078 H         2 RES2    0.0000
     67 H37        8.2053    4.9745    2.2830 H         2 RES2    0.0000
     68 C27        5.4092    1.7789    4.6802 C.2       2 RES2    0.0000
     69 H38        6.3320    1.6759    4.8837 H         2 RES2    0.0000
     70 H39        4.8063    1.0609    4.8377 H         2 RES2    0.0000
     71 C28        1.8585    6.2262    2.8764 C.3       2 RES2    0.0000
     72 H40        2.0034    7.1841    3.0241 H         2 RES2    0.0000
     73 H41        1.2116    5.8870    3.5304 H         2 RES2    0.0000
     74 H42        1.5122    6.0858    1.9700 H         2 RES2    0.0000
     75 O3        11.0049   -2.1549   10.3151 O.3       3 RES3    0.0000
     76 N3         9.9847   -1.1797   10.5872 N.2       3 RES3    0.0000
     77 C29        8.8878    0.7915    9.6730 C.3       3 RES3    0.0000
     78 H43       10.8901   -2.6072   11.0240 H         3 RES3    0.0000
     79 C30        9.9006   -0.3277    9.6721 C.2       3 RES3    0.0000
     80 C31       10.7334   -0.2182    8.4100 C.3       3 RES3    0.0000
     81 H44       11.6744   -0.4869    8.6167 H         3 RES3    0.0000
     82 C32       10.1844   -1.1343    7.2892 C.3       3 RES3    0.0000
     83 H45       10.5570   -0.8261    6.4257 H         3 RES3    0.0000
     84 H46       10.5199   -2.0526    7.4475 H         3 RES3    0.0000
     85 C33        8.6649   -1.1984    7.1580 C.2       3 RES3    0.0000
     86 C34        7.8393    0.0403    7.3734 C.3       3 RES3    0.0000
     87 H47        6.9546   -0.0814    6.9458 H         3 RES3    0.0000
     88 H48        8.2856    0.8074    6.9320 H         3 RES3    0.0000
     89 C35        7.6398    0.3630    8.8707 C.3       3 RES3    0.0000
     90 H49        7.2858   -0.4653    9.3025 H         3 RES3    0.0000
     91 C36        9.6752    1.9453    9.0074 C.3       3 RES3    0.0000
     92 H50       10.1364    2.4876    9.6937 H         3 RES3    0.0000
     93 H51        9.0585    2.5337    8.5016 H         3 RES3    0.0000
     94 C37       10.7090    1.2978    8.0473 C.3       3 RES3    0.0000
     95 H52       10.3947    1.4051    7.1023 H         3 RES3    0.0000
     96 C38        8.2516    1.2308   10.9904 C.3       3 RES3    0.0000
     97 H53        8.8779    1.7847   11.5211 H         3 RES3    0.0000
     98 H54        7.9787    0.4480   11.5303 H         3 RES3    0.0000
     99 C39        7.0309    2.0483   10.5522 C.3       3 RES3    0.0000
    100 H55        7.2602    3.0098   10.4900 H         3 RES3    0.0000
    101 H56        6.2889    1.9388   11.1989 H         3 RES3    0.0000
    102 C40        6.6356    1.4930    9.1662 C.3       3 RES3    0.0000
    103 H57        5.7093    1.1408    9.1828 H         3 RES3    0.0000
    104 H58        6.6940    2.2010    8.4786 H         3 RES3    0.0000
    105 C41        8.0921   -2.3508    6.8487 C.2       3 RES3    0.0000
    106 H59        7.1475   -2.4033    6.7617 H         3 RES3    0.0000
    107 H60        8.6243   -3.1257    6.7156 H         3 RES3    0.0000
    108 C42       12.0688    1.9489    8.1978 C.3       3 RES3    0.0000
    109 H61       12.4105    1.7890    9.1046 H         3 RES3    0.0000
    110 H62       11.9893    2.9140    8.0459 H         3 RES3    0.0000
    111 H63       12.6894    1.5657    7.5442 H         3 RES3    0.0000
    112 O4         1.0453    8.4675   11.1308 O.3       4 RES4    0.0000
    113 N4         2.0866    7.6004   10.6829 N.2       4 RES4    0.0000
    114 C43        2.5491    5.6630    9.2845 C.3       4 RES4    0.0000
    115 H64        1.5669    9.0963   11.8939 H         4 RES4    0.0000
    116 C44        1.6447    6.6893    9.9036 C.2       4 RES4    0.0000
    117 C45        0.2356    6.4488    9.4636 C.3       4 RES4    0.0000
    118 H65       -0.3866    6.6591   10.2185 H         4 RES4    0.0000
    119 C46       -0.1229    7.3238    8.2526 C.3       4 RES4    0.0000
    120 H66       -0.9360    6.9464    7.8342 H         4 RES4    0.0000
    121 H67       -0.3580    8.2262    8.5844 H         4 RES4    0.0000
    122 C47        0.9281    7.4844    7.1759 C.2       4 RES4    0.0000
    123 C48        1.8547    6.3515    6.8404 C.3       4 RES4    0.0000
    124 H68        2.2666    6.5294    5.9562 H         4 RES4    0.0000
    125 H69        1.3221    5.5204    6.7617 H         4 RES4    0.0000
    126 C49        2.9617    6.1283    7.8622 C.3       4 RES4    0.0000
    127 H70        3.4322    7.0040    7.9722 H         4 RES4    0.0000
    128 C50        1.6330    4.4235    9.2786 C.3       4 RES4    0.0000
    129 H71        1.7505    3.9071   10.1126 H         4 RES4    0.0000
    130 H72        1.8561    3.8373    8.5108 H         4 RES4    0.0000
    131 C51        0.1769    4.9277    9.1607 C.3       4 RES4    0.0000
    132 H73       -0.1349    4.7973    8.2208 H         4 RES4    0.0000
    133 C52        3.9103    5.3807    9.9110 C.3       4 RES4    0.0000
    134 H74        3.8208    4.8132   10.7156 H         4 RES4    0.0000
    135 H75        4.3692    6.2226   10.1586 H         4 RES4    0.0000
    136 C53        4.6712    4.6446    8.8008 C.3       4 RES4    0.0000
    137 H76        4.5836    3.6644    8.9112 H         4 RES4    0.0000
    138 H77        5.6335    4.8809    8.8238 H         4 RES4    0.0000
    139 C54        4.0281    5.1041    7.4622 C.3       4 RES4    0.0000
    140 H78        4.7068    5.5175    6.8721 H         4 RES4    0.0000
    141 H79        3.6179    4.3371    6.9918 H         4 RES4    0.0000
    142 C55        1.0459    8.6339    6.5255 C.2       4 RES4    0.0000
    143 H80        1.7117    8.7340    5.8549 H         4 RES4    0.0000
    144 H81        0.4659    9.3570    6.7295 H         4 RES4    0.0000
    145 C56       -0.7694    4.1916   10.0969 C.3       4 RES4    0.0000
    146 H82       -0.4716    4.3119   11.0240 H         4 RES4    0.0000
    147 H83       -0.7721    3.2366    9.8779 H         4 RES4    0.0000
    148 H84       -1.6755    4.5524    9.9975 H         4 RES4    0.0000
    149 O5         9.3942    4.8873   13.1768 O.3       5 RES5    0.0000
    150 N5        10.3680    3.9158   12.8048 N.2       5 RES5    0.0000
    151 C57       11.8628    2.2046   13.6412 C.3       5 RES5    0.0000
    152 H85        9.2895    5.4376   12.3956 H         5 RES5    0.0000
    153 C58       10.8323    3.2698   13.7931 C.2       5 RES5    0.0000
    154 C59       10.5712    3.4937   15.2738 C.3       5 RES5    0.0000
    155 H86       10.3818    4.4646   15.4244 H         5 RES5    0.0000
    156 C60        9.3857    2.6734   15.8027 C.3       5 RES5    0.0000
    157 H87        9.4264    2.6799   16.7914 H         5 RES5    0.0000
    158 H88        8.5513    3.1380   15.5394 H         5 RES5    0.0000
    159 C61        9.2782    1.2344   15.3498 C.2       5 RES5    0.0000
    160 C62       10.5462    0.4213   15.0888 C.3       5 RES5    0.0000
    161 H89       10.3138   -0.5409   15.0791 H         5 RES5    0.0000
    162 H90       11.1820    0.5711   15.8340 H         5 RES5    0.0000
    163 C63       11.2415    0.7749   13.7687 C.3       5 RES5    0.0000
    164 H91       10.5504    0.6972   13.0493 H         5 RES5    0.0000
    165 C64       12.7979    2.5575   14.8090 C.3       5 RES5    0.0000
    166 H92       13.4708    3.2237   14.5176 H         5 RES5    0.0000
    167 H93       13.2741    1.7472   15.1252 H         5 RES5    0.0000
    168 C65       11.9226    3.1401   15.9486 C.3       5 RES5    0.0000
    169 H94       11.7643    2.4264   16.6303 H         5 RES5    0.0000
    170 C66       12.5773    2.0778   12.3008 C.3       5 RES5    0.0000
    171 H95       13.3183    2.7325   12.2391 H         5 RES5    0.0000
    172 H96       11.9480    2.2370   11.5533 H         5 RES5    0.0000
    173 C67       13.1188    0.6482   12.2534 C.3       5 RES5    0.0000
    174 H97       12.9356    0.2384   11.3692 H         5 RES5    0.0000
    175 H98       14.0962    0.6431   12.4095 H         5 RES5    0.0000
    176 C68       12.3986   -0.1239   13.3595 C.3       5 RES5    0.0000
    177 H99       12.0670   -0.9932   13.0216 H         5 RES5    0.0000
    178 H100      13.0058   -0.2866   14.1263 H         5 RES5    0.0000
    179 C69        8.1127    0.6691   15.1473 C.2       5 RES5    0.0000
    180 H101       7.3139    1.1646   15.2863 H         5 RES5    0.0000
    181 H102       8.0675   -0.2362   14.8628 H         5 RES5    0.0000
    182 C70       12.5750    4.3220   16.6248 C.3       5 RES5    0.0000
    183 H103      12.6704    5.0552   15.9813 H         5 RES5    0.0000
    184 H104      13.4592    4.0605   16.9571 H         5 RES5    0.0000
    185 H105      12.0197    4.6165   17.3760 H         5 RES5    0.0000
    186 O6         4.0581    1.5456   12.2916 O.3       6 RES6    0.0000
    187 N6         3.0290    2.4480   12.6898 N.2       6 RES6    0.0000
    188 C71        2.4159    4.0951   14.3381 C.3       6 RES6    0.0000
    189 C72        3.3384    3.0890   13.7669 C.2       6 RES6    0.0000
    190 C73        4.5627    2.9284   14.6465 C.3       6 RES6    0.0000
    191 H106       4.8753    1.9784   14.6142 H         6 RES6    0.0000
    192 C74        5.7075    3.8574   14.2359 C.3       6 RES6    0.0000
    193 H107       6.3185    3.9475   15.0101 H         6 RES6    0.0000
    194 H108       6.2154    3.4131   13.5095 H         6 RES6    0.0000
    195 C75        5.3484    5.2453   13.7655 C.2       6 RES6    0.0000
    196 C76        4.2164    5.9972   14.4591 C.3       6 RES6    0.0000
    197 H109       4.2890    5.8632   15.4382 H         6 RES6    0.0000
    198 H110       4.3100    6.9659   14.2782 H         6 RES6    0.0000
    199 C77        2.8476    5.5312   13.9896 C.3       6 RES6    0.0000
    200 H111       2.8607    5.5852   12.9894 H         6 RES6    0.0000
    201 C78        2.5599    3.7717   15.8612 C.3       6 RES6    0.0000
    202 H112       2.4149    4.5870   16.4048 H         6 RES6    0.0000
    203 H113       1.8968    3.0883   16.1332 H         6 RES6    0.0000
    204 C79        3.9894    3.2431   16.0540 C.3       6 RES6    0.0000
    205 H114       4.5441    3.9612   16.4738 H         6 RES6    0.0000
    206 C80        0.9645    4.0987   13.8741 C.3       6 RES6    0.0000
    207 H115       0.4488    3.3871   14.3289 H         6 RES6    0.0000
    208 H116       0.9071    3.9590   12.8974 H         6 RES6    0.0000
    209 C81        0.4288    5.4858   14.2561 C.3       6 RES6    0.0000
    210 H117      -0.1495    5.8452   13.5372 H         6 RES6    0.0000
    211 H118      -0.0971    5.4369   15.0930 H         6 RES6    0.0000
    212 C82        1.6606    6.3724   14.4462 C.3       6 RES6    0.0000
    213 H119       1.5863    7.1949   13.9008 H         6 RES6    0.0000
    214 H120       1.7626    6.6295   15.3967 H         6 RES6    0.0000
    215 C83        6.0019    5.8020   12.7768 C.2       6 RES6    0.0000
    216 H121       6.7079    5.3317   12.3496 H         6 RES6    0.0000
    217 H122       5.7701    6.6763   12.4877 H         6 RES6    0.0000
    218 C84        4.0068    2.0015   16.9709 C.3       6 RES6    0.0000
    219 H123       3.4341    1.3043   16.5889 H         6 RES6    0.0000
    220 H124       3.6748    2.2463   17.8593 H         6 RES6    0.0000
    221 H125       4.9250    1.6644   17.0446 H         6 RES6    0.0000
    222 O7        10.0941   -2.2060   21.8726 O.3       7 RES7    0.0000
    223 N7         9.0744   -1.2395   22.0972 N.2       7 RES7    0.0000
    224 C85        7.9918    0.7375   21.1651 C.3       7 RES7    0.0000
    225 H126       9.9611   -2.7728   22.5497 H         7 RES7    0.0000
    226 C86        9.0080   -0.3853   21.1752 C.2       7 RES7    0.0000
    227 C87        9.8671   -0.2650   19.9274 C.3       7 RES7    0.0000
    228 H127      10.8011   -0.5438   20.1562 H         7 RES7    0.0000
    229 C88        9.3411   -1.1754   18.7799 C.3       7 RES7    0.0000
    230 H128       9.7506   -0.8722   17.9329 H         7 RES7    0.0000
    231 H129       9.6572   -2.0980   18.9456 H         7 RES7    0.0000
    232 C89        7.8311   -1.2179   18.5879 C.2       7 RES7    0.0000
    233 C90        7.0128    0.0194   18.8227 C.3       7 RES7    0.0000
    234 H130       6.1389   -0.0850   18.3656 H         7 RES7    0.0000
    235 H131       7.4744    0.7915   18.4117 H         7 RES7    0.0000
    236 C91        6.7641    0.3255   20.3030 C.3       7 RES7    0.0000
    237 H132       6.3845   -0.5041   20.7131 H         7 RES7    0.0000
    238 C92        8.8073    1.8833   20.5538 C.3       7 RES7    0.0000
    239 H133       9.2503    2.4077   21.2655 H         7 RES7    0.0000
    240 H134       8.2146    2.4890   20.0411 H         7 RES7    0.0000
    241 C93        9.8664    1.2460   19.6181 C.3       7 RES7    0.0000
    242 H135       9.5740    1.3770   18.6694 H         7 RES7    0.0000
    243 C94        7.2987    1.1005   22.4650 C.3       7 RES7    0.0000
    244 H136       7.8865    1.6536   23.0376 H         7 RES7    0.0000
    245 H137       7.0363    0.2874   22.9639 H         7 RES7    0.0000
    246 C95        6.0523    1.8992   22.0217 C.3       7 RES7    0.0000
    247 H138       5.2826    1.6961   22.6095 H         7 RES7    0.0000
    248 H139       6.2319    2.8722   22.0618 H         7 RES7    0.0000
    249 C96        5.7642    1.4627   20.5870 C.3       7 RES7    0.0000
    250 H140       5.8998    2.2154   19.9582 H         7 RES7    0.0000
    251 H141       4.8319    1.1401   20.5014 H         7 RES7    0.0000
    252 C97        7.2531   -2.3630   18.2409 C.2       7 RES7    0.0000
    253 H142       6.3100   -2.4069   18.1401 H         7 RES7    0.0000
    254 H143       7.7837   -3.1380   18.0940 H         7 RES7    0.0000
    255 C98       11.2290    1.8970   19.7994 C.3       7 RES7    0.0000
    256 H144      11.1403    2.8693   19.7189 H         7 RES7    0.0000
    257 H145      11.8425    1.5686   19.1113 H         7 RES7    0.0000
    258 H146      11.5837    1.6716   20.6855 H         7 RES7    0.0000
    259 O8         2.1848    8.5273   21.4252 O.3       8 RES8    0.0000
    260 N8         1.1271    7.5932   21.6434 N.2       8 RES8    0.0000
    261 C99       -0.2710    5.9223   20.5824 C.3       8 RES8    0.0000
    262 H147       2.1758    9.0963   22.1998 H         8 RES8    0.0000
    263 C100       0.7774    6.9954   20.5953 C.2       8 RES8    0.0000
    264 C101       1.2896    7.2043   19.1808 C.3       8 RES8    0.0000
    265 H148       1.4983    8.1729   19.0515 H         8 RES8    0.0000
    266 C102       2.5504    6.3753   18.8996 C.3       8 RES8    0.0000
    267 H149       2.6712    6.3198   17.9191 H         8 RES8    0.0000
    268 H150       3.3308    6.8643   19.2632 H         8 RES8    0.0000
    269 C103       2.5729    4.9795   19.4528 C.2       8 RES8    0.0000
    270 C104       1.3013    4.1491   19.4602 C.3       8 RES8    0.0000
    271 H151       1.5411    3.1913   19.5302 H         8 RES8    0.0000
    272 H152       0.8247    4.2809   18.6004 H         8 RES8    0.0000
    273 C105       0.3660    4.5107   20.6109 C.3       8 RES8    0.0000
    274 H153       0.9067    4.4559   21.4496 H         8 RES8    0.0000
    275 C106      -0.9832    6.2471   19.2678 C.3       8 RES8    0.0000
    276 H154      -1.7003    6.9104   19.4243 H         8 RES8    0.0000
    277 H155      -1.3889    5.4275   18.8858 H         8 RES8    0.0000
    278 C107       0.0759    6.8233   18.2888 C.3       8 RES8    0.0000
    279 H156       0.3546    6.1038   17.6522 H         8 RES8    0.0000
    280 C108      -1.2219    5.8344   21.7782 C.3       8 RES8    0.0000
    281 H157      -1.9689    6.4768   21.6797 H         8 RES8    0.0000
    282 H158      -0.7423    6.0246   22.6233 H         8 RES8    0.0000
    283 C109      -1.7424    4.3868   21.7589 C.3       8 RES8    0.0000
    284 H159      -1.7042    3.9957   22.6693 H         8 RES8    0.0000
    285 H160      -2.6796    4.3623   21.4450 H         8 RES8    0.0000
    286 C110      -0.8457    3.6025   20.8093 C.3       8 RES8    0.0000
    287 H161      -1.3037    3.4311   19.9490 H         8 RES8    0.0000
    288 H162      -0.5765    2.7375   21.2102 H         8 RES8    0.0000
    289 C111       3.6704    4.4891   20.0015 C.2       8 RES8    0.0000
    290 H163       4.4552    5.0213   20.0503 H         8 RES8    0.0000
    291 H164       3.6732    3.6054   20.3495 H         8 RES8    0.0000
    292 C112      -0.4818    8.0008   17.4934 C.3       8 RES8    0.0000
    293 H165      -0.7240    8.7239   18.1079 H         8 RES8    0.0000
    294 H166      -1.2774    7.7127   16.9986 H         8 RES8    0.0000
    295 H167       0.1964    8.3206   16.8651 H         8 RES8    0.0000
    296 H168       3.6264    0.9147   11.7190 H         6 RES6    0.0000
@<TRIPOS>BOND
     1    1    2 1
     2    2    5 2
     3    3    5 1
     4    4    1 1
     5    5    6 1
     6    6    7 1
     7    8    6 1
     8    9    8 1
     9   10    8 1
    10   11    8 1
    11   12   11 1
    12   13   12 1
    13   14   12 1
    14   15    3 1
    15   16   15 1
    16   17    3 1
    17   18   17 1
    18   19   17 1
    19   20    6 1
    20   21   20 1
    21   22    3 1
    22   23   22 1
    23   24   22 1
    24   25   22 1
    25   26   25 1
    26   27   25 1
    27   28   15 1
    28   29   28 1
    29   30   28 1
    30   31   11 2
    31   32   31 1
    32   33   31 1
    33   34   20 1
    34   35   34 1
    35   36   34 1
    36   37   34 1
    37   38   39 1
    38   39   42 2
    39   40   42 1
    40   41   38 1
    41   42   43 1
    42   43   44 1
    43   45   43 1
    44   46   45 1
    45   47   45 1
    46   48   45 1
    47   49   48 1
    48   50   49 1
    49   51   49 1
    50   52   40 1
    51   53   52 1
    52   54   40 1
    53   55   54 1
    54   56   54 1
    55   57   43 1
    56   58   57 1
    57   59   40 1
    58   60   59 1
    59   61   59 1
    60   62   59 1
    61   63   62 1
    62   64   62 1
    63   65   52 1
    64   66   65 1
    65   67   65 1
    66   68   48 2
    67   69   68 1
    68   70   68 1
    69   71   57 1
    70   72   71 1
    71   73   71 1
    72   74   71 1
    73   75   76 1
    74   76   79 2
    75   77   79 1
    76   78   75 1
    77   79   80 1
    78   80   81 1
    79   82   80 1
    80   83   82 1
    81   84   82 1
    82   85   82 1
    83   86   85 1
    84   87   86 1
    85   88   86 1
    86   89   77 1
    87   90   89 1
    88   91   77 1
    89   92   91 1
    90   93   91 1
    91   94   80 1
    92   95   94 1
    93   96   77 1
    94   97   96 1
    95   98   96 1
    96   99   96 1
    97  100   99 1
    98  101   99 1
    99  102   89 1
   100  103  102 1
   101  104  102 1
   102  105   85 2
   103  106  105 1
   104  107  105 1
   105  108   94 1
   106  109  108 1
   107  110  108 1
   108  111  108 1
   109  112  113 1
   110  113  116 2
   111  114  116 1
   112  115  112 1
   113  116  117 1
   114  117  118 1
   115  119  117 1
   116  120  119 1
   117  121  119 1
   118  122  119 1
   119  123  122 1
   120  124  123 1
   121  125  123 1
   122  126  114 1
   123  127  126 1
   124  128  114 1
   125  129  128 1
   126  130  128 1
   127  131  117 1
   128  132  131 1
   129  133  114 1
   130  134  133 1
   131  135  133 1
   132  136  133 1
   133  137  136 1
   134  138  136 1
   135  139  126 1
   136  140  139 1
   137  141  139 1
   138  142  122 2
   139  143  142 1
   140  144  142 1
   141  145  131 1
   142  146  145 1
   143  147  145 1
   144  148  145 1
   145  149  150 1
   146  150  153 2
   147  151  153 1
   148  152  149 1
   149  153  154 1
   150  154  155 1
   151  156  154 1
   152  157  156 1
   153  158  156 1
   154  159  156 1
   155  160  159 1
   156  161  160 1
   157  162  160 1
   158  163  151 1
   159  164  163 1
   160  165  151 1
   161  166  165 1
   162  167  165 1
   163  168  154 1
   164  169  168 1
   165  170  151 1
   166  171  170 1
   167  172  170 1
   168  173  170 1
   169  174  173 1
   170  175  173 1
   171  176  163 1
   172  177  176 1
   173  178  176 1
   174  179  159 2
   175  180  179 1
   176  181  179 1
   177  182  168 1
   178  183  182 1
   179  184  182 1
   180  185  182 1
   181  186  187 1
   182  187  189 2
   183  188  189 1
   184  189  190 1
   185  190  191 1
   186  192  190 1
   187  193  192 1
   188  194  192 1
   189  195  192 1
   190  196  195 1
   191  197  196 1
   192  198  196 1
   193  199  188 1
   194  200  199 1
   195  201  188 1
   196  202  201 1
   197  203  201 1
   198  204  190 1
   199  205  204 1
   200  206  188 1
   201  207  206 1
   202  208  206 1
   203  209  206 1
   204  210  209 1
   205  211  209 1
   206  212  199 1
   207  213  212 1
   208  214  212 1
   209  215  195 2
   210  216  215 1
   211  217  215 1
   212  218  204 1
   213  219  218 1
   214  220  218 1
   215  221  218 1
   216  222  223 1
   217  223  226 2
   218  224  226 1
   219  225  222 1
   220  226  227 1
   221  227  228 1
   222  229  227 1
   223  230  229 1
   224  231  229 1
   225  232  229 1
   226  233  232 1
   227  234  233 1
   228  235  233 1
   229  236  224 1
   230  237  236 1
   231  238  224 1
   232  239  238 1
   233  240  238 1
   234  241  227 1
   235  242  241 1
   236  243  224 1
   237  244  243 1
   238  245  243 1
   239  246  243 1
   240  247  246 1
   241  248  246 1
   242  249  236 1
   243  250  249 1
   244  251  249 1
   245  252  232 2
   246  253  252 1
   247  254  252 1
   248  255  241 1
   249  256  255 1
   250  257  255 1
   251  258  255 1
   252  259  260 1
   253  260  263 2
   254  261  263 1
   255  262  259 1
   256  263  264 1
   257  264  265 1
   258  266  264 1
   259  267  266 1
   260  268  266 1
   261  269  266 1
   262  270  269 1
   263  271  270 1
   264  272  270 1
   265  273  261 1
   266  274  273 1
   267  275  261 1
   268  276  275 1
   269  277  275 1
   270  278  264 1
   271  279  278 1
   272  280  261 1
   273  281  280 1
   274  282  280 1
   275  283  280 1
   276  284  283 1
   277  285  283 1
   278  286  273 1
   279  287  286 1
   280  288  286 1
   281  289  269 2
   282  290  289 1
   283  291  289 1
   284  292  278 1
   285  293  292 1
   286  294  292 1
   287  295  292 1
   288  296  186 1
   289   12   15 1
   290   17   20 1
   291   25   28 1
   292   49   52 1
   293   54   57 1
   294   62   65 1
   295   86   89 1
   296   91   94 1
   297   99  102 1
   298  123  126 1
   299  128  131 1
   300  136  139 1
   301  160  163 1
   302  165  168 1
   303  173  176 1
   304  196  199 1
   305  201  204 1
   306  209  212 1
   307  233  236 1
   308  238  241 1
   309  246  249 1
   310  270  273 1
   311  275  278 1
   312  283  286 1
@<TRIPOS>SUBSTRUCTURE
     1 RES1 1
     2 RES2 38
     3 RES3 75
     4 RES4 112
     5 RES5 149
     6 RES6 186
     7 RES7 222
     8 RES8 259

@<TRIPOS>CRYSIN
  15.4603    7.2021   46.2940  90.0000  96.1320  90.0000   4 1

