# MOL2 file generated by ConQuest
# Please check atom types

@<TRIPOS>MOLECULE
BIVJEW
    74    78     2
SMALL
NO_CHARGES
****
Generated from CSD

@<TRIPOS>ATOM
      1 O1         9.4881    1.3872   18.5858 O.3       1 RES1    0.0000
      2 N1         8.9613    1.9361   17.3902 N.2       1 RES1    0.0000
      3 C1         9.5433    2.7975   15.1701 C.3       1 RES1    0.0000
      4 C2         9.8632    2.1804   16.5295 C.2       1 RES1    0.0000
      5 C3        11.3359    1.9284   16.6159 C.3       1 RES1    0.0000
      6 H1        11.5096    1.1673   17.2413 H         1 RES1    0.0000
      7 C4        12.0695    3.1677   17.1033 C.3       1 RES1    0.0000
      8 H2        11.8332    3.3130   18.0518 H         1 RES1    0.0000
      9 H3        13.0421    2.9852   17.0645 H         1 RES1    0.0000
     10 C5        11.8066    4.4366   16.3575 C.2       1 RES1    0.0000
     11 C6        10.3844    4.9470   16.3618 C.3       1 RES1    0.0000
     12 H4        10.4065    5.9228   16.1958 H         1 RES1    0.0000
     13 H5        10.0103    4.8107   17.2693 H         1 RES1    0.0000
     14 C7         9.4302    4.3158   15.3551 C.3       1 RES1    0.0000
     15 H6         9.6021    4.7413   14.4669 H         1 RES1    0.0000
     16 C8        10.7494    2.3784   14.3080 C.3       1 RES1    0.0000
     17 H7        10.4423    1.8783   13.5098 H         1 RES1    0.0000
     18 H8        11.2467    3.1793   14.0056 H         1 RES1    0.0000
     19 C9        11.6475    1.4939   15.1718 C.3       1 RES1    0.0000
     20 H9        11.3423    0.5477   15.0640 H         1 RES1    0.0000
     21 C10        8.1900    2.4259   14.5725 C.3       1 RES1    0.0000
     22 H10        7.9510    1.4964   14.8183 H         1 RES1    0.0000
     23 H11        8.2213    2.4928   13.5852 H         1 RES1    0.0000
     24 C11        7.1604    3.4056   15.1395 C.3       1 RES1    0.0000
     25 H12        6.5519    3.7244   14.4259 H         1 RES1    0.0000
     26 H13        6.6208    2.9749   15.8487 H         1 RES1    0.0000
     27 C12        7.9501    4.5266   15.6913 C.3       1 RES1    0.0000
     28 H14        7.8306    4.5703   16.6722 H         1 RES1    0.0000
     29 H15        7.6357    5.3815   15.3012 H         1 RES1    0.0000
     30 C13       12.7801    5.1450   15.8228 C.2       1 RES1    0.0000
     31 H16       13.6810    4.8544   15.9026 H         1 RES1    0.0000
     32 H17       12.5815    5.9485   15.3551 H         1 RES1    0.0000
     33 C14       13.0881    1.5607   14.7730 C.3       1 RES1    0.0000
     34 H18       13.2094    1.1108   13.9107 H         1 RES1    0.0000
     35 H19       13.6369    1.1172   15.4542 H         1 RES1    0.0000
     36 H20       13.3620    2.4979   14.6933 H         1 RES1    0.0000
     37 O2         6.2853    1.7883   18.2269 O.3       2 RES2    0.0000
     38 N2         6.7725    0.9732   19.2890 N.2       2 RES2    0.0000
     39 C15        6.0968   -0.4024   21.1733 C.3       2 RES2    0.0000
     40 C16        5.8339    0.4474   19.9555 C.2       2 RES2    0.0000
     41 C17        4.3575    0.5245   19.7117 C.3       2 RES2    0.0000
     42 H21        4.1920    0.6685   18.7352 H         2 RES2    0.0000
     43 C18        3.7351    1.6777   20.5037 C.3       2 RES2    0.0000
     44 H22        4.0275    2.5275   20.0890 H         2 RES2    0.0000
     45 H23        2.7515    1.6250   20.3994 H         2 RES2    0.0000
     46 C19        4.0440    1.7497   21.9687 C.2       2 RES2    0.0000
     47 C20        5.4974    1.8461   22.3438 C.3       2 RES2    0.0000
     48 H24        5.5636    2.2909   23.2255 H         2 RES2    0.0000
     49 H25        5.9525    2.4272   21.6842 H         2 RES2    0.0000
     50 C21        6.2439    0.5220   22.4163 C.3       2 RES2    0.0000
     51 H26        5.8789    0.0206   23.2018 H         2 RES2    0.0000
     52 C22        4.8226   -1.2779   21.2638 C.3       2 RES2    0.0000
     53 H27        5.0635   -2.2357   21.2078 H         2 RES2    0.0000
     54 H28        4.3593   -1.1185   22.1239 H         2 RES2    0.0000
     55 C23        3.9125   -0.8973   20.0985 C.3       2 RES2    0.0000
     56 H29        4.1295   -1.5029   19.3323 H         2 RES2    0.0000
     57 C24        7.4436   -1.1750   21.1151 C.3       2 RES2    0.0000
     58 H30        7.2790   -2.1508   21.1086 H         2 RES2    0.0000
     59 H31        7.9409   -0.9333   20.2938 H         2 RES2    0.0000
     60 C25        8.2204   -0.7984   22.3093 C.3       2 RES2    0.0000
     61 H32        9.1921   -0.8202   22.1218 H         2 RES2    0.0000
     62 H33        8.0227   -1.4052   23.0660 H         2 RES2    0.0000
     63 C26        7.7525    0.6171   22.6068 C.3       2 RES2    0.0000
     64 H34        8.1533    1.2663   21.9752 H         2 RES2    0.0000
     65 H35        7.9804    0.8819   23.5338 H         2 RES2    0.0000
     66 C27        3.0760    1.7767   22.8763 C.2       2 RES2    0.0000
     67 H36        2.1668    1.7523   22.6004 H         2 RES2    0.0000
     68 H37        3.2911    1.8217   23.7989 H         2 RES2    0.0000
     69 C28        2.4260   -1.0619   20.4145 C.3       2 RES2    0.0000
     70 H38        2.2339   -2.0043   20.6020 H         2 RES2    0.0000
     71 H39        1.8938   -0.7675   19.6449 H         2 RES2    0.0000
     72 H40        2.1962   -0.5194   21.1970 H         2 RES2    0.0000
     73 H41        7.0970    2.0955   17.8492 H         2 RES2    0.0000
     74 H42        8.5219    1.2085   18.9486 H         1 RES1    0.0000
@<TRIPOS>BOND
     1    1    2 1
     2    2    4 2
     3    3    4 1
     4    4    5 1
     5    5    6 1
     6    7    5 1
     7    8    7 1
     8    9    7 1
     9   10    7 1
    10   11   10 1
    11   12   11 1
    12   13   11 1
    13   14    3 1
    14   15   14 1
    15   16    3 1
    16   17   16 1
    17   18   16 1
    18   19    5 1
    19   20   19 1
    20   21    3 1
    21   22   21 1
    22   23   21 1
    23   24   21 1
    24   25   24 1
    25   26   24 1
    26   27   14 1
    27   28   27 1
    28   29   27 1
    29   30   10 2
    30   31   30 1
    31   32   30 1
    32   33   19 1
    33   34   33 1
    34   35   33 1
    35   36   33 1
    36   37   38 1
    37   38   40 2
    38   39   40 1
    39   40   41 1
    40   41   42 1
    41   43   41 1
    42   44   43 1
    43   45   43 1
    44   46   43 1
    45   47   46 1
    46   48   47 1
    47   49   47 1
    48   50   39 1
    49   51   50 1
    50   52   39 1
    51   53   52 1
    52   54   52 1
    53   55   41 1
    54   56   55 1
    55   57   39 1
    56   58   57 1
    57   59   57 1
    58   60   57 1
    59   61   60 1
    60   62   60 1
    61   63   50 1
    62   64   63 1
    63   65   63 1
    64   66   46 2
    65   67   66 1
    66   68   66 1
    67   69   55 1
    68   70   69 1
    69   71   69 1
    70   72   69 1
    71   73   37 1
    72   74    1 1
    73   11   14 1
    74   16   19 1
    75   24   27 1
    76   47   50 1
    77   52   55 1
    78   60   63 1
@<TRIPOS>SUBSTRUCTURE
     1 RES1 1
     2 RES2 37

@<TRIPOS>CRYSIN
   9.1930   12.8560   21.5570  90.0000  90.0000  90.0000  19 1

