# MOL2 file generated by ConQuest
# Please check atom types

@<TRIPOS>MOLECULE
BIVJAS
    74    78     2
SMALL
NO_CHARGES
****
Generated from CSD

@<TRIPOS>ATOM
      1 O1         0.0834    3.9142    5.9442 O.3       1 RES1    0.0000
      2 H1        -0.4055    3.3882    5.5090 H         1 RES1    0.0000
      3 N1        -0.5791    4.2987    7.1323 N.2       1 RES1    0.0000
      4 C1        -0.4025    5.5956    9.1660 C.3       1 RES1    0.0000
      5 C2         0.0965    5.0860    7.8668 C.2       1 RES1    0.0000
      6 C3         1.4707    5.6825    7.5675 C.3       1 RES1    0.0000
      7 H2         1.5653    5.8274    6.5833 H         1 RES1    0.0000
      8 C4         2.5900    4.7551    8.0616 C.3       1 RES1    0.0000
      9 H3         2.6893    4.0282    7.3989 H         1 RES1    0.0000
     10 H4         3.4330    5.2744    8.0524 H         1 RES1    0.0000
     11 C5         2.4579    4.1200    9.4248 C.2       1 RES1    0.0000
     12 C6         1.7150    4.8276   10.5213 C.3       1 RES1    0.0000
     13 H5         1.9915    5.7791   10.5409 H         1 RES1    0.0000
     14 H6         1.9552    4.4243   11.3931 H         1 RES1    0.0000
     15 C7         0.1707    4.7479   10.3266 C.3       1 RES1    0.0000
     16 H7        -0.0559    3.7916   10.1371 H         1 RES1    0.0000
     17 C8         0.1259    7.0156    9.1751 C.3       1 RES1    0.0000
     18 H8         0.3565    7.2909   10.0979 H         1 RES1    0.0000
     19 H9        -0.5592    7.6386    8.8235 H         1 RES1    0.0000
     20 C9         1.3802    7.0446    8.2811 C.3       1 RES1    0.0000
     21 H10        1.3111    7.7763    7.6159 H         1 RES1    0.0000
     22 H11        2.1895    7.1967    8.8314 H         1 RES1    0.0000
     23 C10       -1.9014    5.4845    9.4561 C.3       1 RES1    0.0000
     24 H12       -2.2494    4.5933    9.2000 H         1 RES1    0.0000
     25 H13       -2.4105    6.1824    8.9725 H         1 RES1    0.0000
     26 C11       -1.9852    5.6922   10.9814 C.3       1 RES1    0.0000
     27 H14       -2.1076    6.6533   11.1944 H         1 RES1    0.0000
     28 H15       -2.7462    5.1850   11.3604 H         1 RES1    0.0000
     29 C12       -0.6605    5.1802   11.5526 C.3       1 RES1    0.0000
     30 H16       -0.1991    5.9989   11.8976 H         1 RES1    0.0000
     31 C13        3.0476    2.9753    9.6130 C.2       1 RES1    0.0000
     32 H17        3.0174    2.5599   10.4664 H         1 RES1    0.0000
     33 H18        3.5086    2.5551    8.8967 H         1 RES1    0.0000
     34 C14       -0.7154    4.3180   12.6439 C.3       1 RES1    0.0000
     35 H19       -1.2287    4.7382   13.3654 H         1 RES1    0.0000
     36 H20        0.1944    4.1297   12.9563 H         1 RES1    0.0000
     37 H21       -1.1495    3.4824   12.3760 H         1 RES1    0.0000
     38 O2        -2.9191    2.8898    6.6892 O.3       2 RES2    0.0000
     39 H22       -2.4697    3.5307    6.9911 H         2 RES2    0.0000
     40 N2        -2.2083    2.2822    5.5979 N.2       2 RES2    0.0000
     41 C15       -2.3449    0.5385    3.9092 C.3       2 RES2    0.0000
     42 C16       -2.8364    1.3089    5.1051 C.2       2 RES2    0.0000
     43 C17       -4.1419    0.6931    5.5626 C.3       2 RES2    0.0000
     44 H23       -4.1817    0.7414    6.5611 H         2 RES2    0.0000
     45 C18       -5.3414    1.4224    4.9993 C.3       2 RES2    0.0000
     46 H24       -6.1305    0.8308    5.0881 H         2 RES2    0.0000
     47 H25       -5.5069    2.2218    5.5600 H         2 RES2    0.0000
     48 C19       -5.2497    1.8668    3.5707 C.2       2 RES2    0.0000
     49 C20       -4.5350    1.0529    2.5225 C.3       2 RES2    0.0000
     50 H26       -4.8218    1.3572    1.6246 H         2 RES2    0.0000
     51 H27       -4.7945    0.1014    2.6166 H         2 RES2    0.0000
     52 C21       -2.9913    1.1689    2.6284 C.3       2 RES2    0.0000
     53 H28       -2.7602    2.1421    2.6205 H         2 RES2    0.0000
     54 C22       -2.8359   -0.8694    4.1798 C.3       2 RES2    0.0000
     55 H29       -2.1116   -1.4104    4.5810 H         2 RES2    0.0000
     56 H30       -3.1181   -1.2993    3.3342 H         2 RES2    0.0000
     57 C23       -4.0299   -0.7752    5.1509 C.3       2 RES2    0.0000
     58 H31       -4.8624   -1.0723    4.7052 H         2 RES2    0.0000
     59 H32       -3.8750   -1.3452    5.9455 H         2 RES2    0.0000
     60 C24       -0.8496    0.6376    3.5576 C.3       2 RES2    0.0000
     61 H33       -0.5096    1.5601    3.6857 H         2 RES2    0.0000
     62 H34       -0.3092    0.0121    4.1040 H         2 RES2    0.0000
     63 C25       -0.8366    0.2415    2.0860 C.3       2 RES2    0.0000
     64 H35       -0.1585    0.7728    1.5985 H         2 RES2    0.0000
     65 H36       -0.6048   -0.7173    1.9958 H         2 RES2    0.0000
     66 C26       -2.2078    0.4975    1.5083 C.3       2 RES2    0.0000
     67 H37       -2.6337   -0.3864    1.3253 H         2 RES2    0.0000
     68 C27       -5.8156    3.0163    3.2165 C.2       2 RES2    0.0000
     69 H38       -6.2694    3.5428    3.8648 H         2 RES2    0.0000
     70 H39       -5.7669    3.3110    2.3147 H         2 RES2    0.0000
     71 C28       -2.2205    1.2824    0.2379 C.3       2 RES2    0.0000
     72 H40       -3.0822    1.1592   -0.2130 H         2 RES2    0.0000
     73 H41       -1.4988    0.9708   -0.3464 H         2 RES2    0.0000
     74 H42       -2.0899    2.2315    0.4392 H         2 RES2    0.0000
@<TRIPOS>BOND
     1    1    2 1
     2    3    1 1
     3    4    5 1
     4    5    3 2
     5    6    5 1
     6    7    6 1
     7    8    6 1
     8    9    8 1
     9   10    8 1
    10   11    8 1
    11   12   11 1
    12   13   12 1
    13   14   12 1
    14   15    4 1
    15   16   15 1
    16   17    4 1
    17   18   17 1
    18   19   17 1
    19   20    6 1
    20   21   20 1
    21   22   20 1
    22   23    4 1
    23   24   23 1
    24   25   23 1
    25   26   23 1
    26   27   26 1
    27   28   26 1
    28   29   15 1
    29   30   29 1
    30   31   11 2
    31   32   31 1
    32   33   31 1
    33   34   29 1
    34   35   34 1
    35   36   34 1
    36   37   34 1
    37   38   39 1
    38   40   38 1
    39   41   42 1
    40   42   40 2
    41   43   42 1
    42   44   43 1
    43   45   43 1
    44   46   45 1
    45   47   45 1
    46   48   45 1
    47   49   48 1
    48   50   49 1
    49   51   49 1
    50   52   41 1
    51   53   52 1
    52   54   41 1
    53   55   54 1
    54   56   54 1
    55   57   43 1
    56   58   57 1
    57   59   57 1
    58   60   41 1
    59   61   60 1
    60   62   60 1
    61   63   60 1
    62   64   63 1
    63   65   63 1
    64   66   52 1
    65   67   66 1
    66   68   48 2
    67   69   68 1
    68   70   68 1
    69   71   66 1
    70   72   71 1
    71   73   71 1
    72   74   71 1
    73   12   15 1
    74   17   20 1
    75   26   29 1
    76   49   52 1
    77   54   57 1
    78   63   66 1
@<TRIPOS>SUBSTRUCTURE
     1 RES1 1
     2 RES2 38

@<TRIPOS>CRYSIN
   8.0579   24.1500   13.5856  90.0000 105.8360  90.0000 231 1

