# MOL2 file generated by ConQuest
# Please check atom types

@<TRIPOS>MOLECULE
BIVWAF
   115    89     2
SMALL
NO_CHARGES
****
Generated from CSD

@<TRIPOS>ATOM
      1 O1         3.0312    3.9074    9.5435 O.2       1 RES1    0.0000
      2 O2         3.4937    3.7293   20.5305 O.2       1 RES1    0.0000
      3 O3         2.5487    9.4052   30.0566 O.2       1 RES1    0.0000
      4 N1         3.1632    5.1350   11.4218 N.am      1 RES1    0.0000
      5 N2         3.2047    5.2711   14.2739 N.pl3     1 RES1    0.0000
      6 N3         3.0312    5.8439   19.8525 N.2       1 RES1    0.0000
      7 N4         3.2537    4.9680   20.7309 N.pl3     1 RES1    0.0000
      8 N5         3.4738    6.7851   26.0597 N.3       1 RES1    0.0000
      9 N6         3.1441    7.6942   28.7501 N.am      1 RES1    0.0000
     10 C1         3.3567    8.3180    4.6295 C.3       1 RES1    0.0000
     11 H1         3.3949    8.0880    3.7004 H         1 RES1    0.0000
     12 H2         4.1465    8.8068    4.8693 H         1 RES1    0.0000
     13 H3         2.5819    8.8599    4.7958 H         1 RES1    0.0000
     14 C2         3.2728    7.0616    5.4524 C.3       1 RES1    0.0000
     15 H4         4.0485    6.5120    5.2567 H         1 RES1    0.0000
     16 H5         2.4856    6.5639    5.1765 H         1 RES1    0.0000
     17 C3         3.2039    7.2861    6.9439 C.3       1 RES1    0.0000
     18 H6         2.4191    7.8214    7.1403 H         1 RES1    0.0000
     19 H7         3.9829    7.7982    7.2138 H         1 RES1    0.0000
     20 C4         3.1450    6.0264    7.7721 C.3       1 RES1    0.0000
     21 H8         2.3635    5.5155    7.5076 H         1 RES1    0.0000
     22 H9         3.9281    5.4867    7.5811 H         1 RES1    0.0000
     23 C5         3.0852    6.2797    9.2516 C.3       1 RES1    0.0000
     24 H10        2.2771    6.7785    9.4514 H         1 RES1    0.0000
     25 H11        3.8417    6.8305    9.5048 H         1 RES1    0.0000
     26 C6         3.0976    5.0156   10.0879 C.2       1 RES1    0.0000
     27 C7         2.9157    3.9262   12.2567 C.3       1 RES1    0.0000
     28 H12        3.3384    3.1741   11.6890 H         1 RES1    0.0000
     29 H13        1.9267    3.8488   12.6374 H         1 RES1    0.0000
     30 C8         3.3966    4.1031   13.6059 C.3       1 RES1    0.0000
     31 H14        3.1474    3.3179   14.1804 H         1 RES1    0.0000
     32 H15        4.3516    4.0368   13.1384 H         1 RES1    0.0000
     33 C9         3.4065    6.4345   13.4456 C.3       1 RES1    0.0000
     34 H16        4.3350    6.5473   13.3254 H         1 RES1    0.0000
     35 H17        2.9481    7.2662   13.9867 H         1 RES1    0.0000
     36 C10        3.2554    6.4334   12.0764 C.3       1 RES1    0.0000
     37 H18        2.1260    6.2377   12.6909 H         1 RES1    0.0000
     38 H19        3.0312    6.9676   11.5353 H         1 RES1    0.0000
     39 C11        3.1740    5.3452   15.6492 C.ar      1 RES1    0.0000
     40 C12        3.6175    4.2978   16.4580 C.ar      1 RES1    0.0000
     41 H20        3.9488    3.5258   16.0573 H         1 RES1    0.0000
     42 C13        3.5768    4.3796   17.8400 C.ar      1 RES1    0.0000
     43 H21        3.8766    3.6619   18.3483 H         1 RES1    0.0000
     44 C14        3.0910    5.5243   18.4819 C.ar      1 RES1    0.0000
     45 C15        2.6475    6.5650   17.6630 C.ar      1 RES1    0.0000
     46 H22        2.3261    7.3425   18.0611 H         1 RES1    0.0000
     47 C16        2.6699    6.4777   16.3078 C.ar      1 RES1    0.0000
     48 H23        2.3427    7.1866   15.8035 H         1 RES1    0.0000
     49 C17        3.2380    5.4491   22.1008 C.ar      1 RES1    0.0000
     50 C18        3.6723    4.6119   23.0907 C.ar      1 RES1    0.0000
     51 H24        3.9231    3.7404   22.8836 H         1 RES1    0.0000
     52 C19        3.7387    5.0576   24.3945 C.ar      1 RES1    0.0000
     53 H25        4.0651    4.4869   25.0544 H         1 RES1    0.0000
     54 C20        3.3285    6.3472   24.7525 C.ar      1 RES1    0.0000
     55 C21        2.8709    7.1523   23.7252 C.ar      1 RES1    0.0000
     56 H26        2.5861    8.0150   23.9256 H         1 RES1    0.0000
     57 C22        2.8219    6.7232   22.4181 C.ar      1 RES1    0.0000
     58 H27        2.5080    7.2906   21.7548 H         1 RES1    0.0000
     59 C23        2.9863    5.9037   27.1237 C.3       1 RES1    0.0000
     60 H28        3.2878    5.0001   26.9447 H         1 RES1    0.0000
     61 H29        2.0164    5.8992   27.1050 H         1 RES1    0.0000
     62 C24        3.4431    6.3029   28.4963 C.3       1 RES1    0.0000
     63 H30        2.9996    5.7499   29.1556 H         1 RES1    0.0000
     64 H31        4.3989    6.1569   28.5745 H         1 RES1    0.0000
     65 C25        3.6382    8.5801   27.7162 C.3       1 RES1    0.0000
     66 H32        4.6082    8.5657   27.7195 H         1 RES1    0.0000
     67 H33        3.3517    9.4859   27.9065 H         1 RES1    0.0000
     68 C26        3.1450    8.1842   26.3529 C.3       1 RES1    0.0000
     69 H34        2.1841    8.3058   26.3102 H         1 RES1    0.0000
     70 H35        3.5510    8.7571   25.6823 H         1 RES1    0.0000
     71 C27        2.6882    8.1997   29.9070 C.2       1 RES1    0.0000
     72 C28        2.3834    7.2176   30.9791 C.3       1 RES1    0.0000
     73 H36        2.9980    7.0450   31.7939 H         1 RES1    0.0000
     74 H37        1.4118    6.4146   30.7920 H         1 RES1    0.0000
     75 C29        1.9267    7.7893   32.3283 C.3       1 RES1    0.0000
     76 H38        1.2540    7.9298   31.7272 H         1 RES1    0.0000
     77 H39        2.8900    8.7261   32.4953 H         1 RES1    0.0000
     78 C30        1.9350    6.5086   33.3235 C.3       1 RES1    0.0000
     79 H40        1.2955    5.8063   33.2634 H         1 RES1    0.0000
     80 C31        1.6858    6.9897   34.6460 C.3       1 RES1    0.0000
     81 H41        0.9716    7.6754   34.5392 H         1 RES1    0.0000
     82 H42        2.6575    6.4146   33.7978 H         1 RES1    0.0000
     83 C32        1.6692    5.7953   35.6079 C.3       1 RES1    0.0000
     84 H43        1.5563    6.1381   36.5029 H         1 RES1    0.0000
     85 H44        0.9276    5.2268   35.3875 H         1 RES1    0.0000
     86 H45        2.4847    5.2976   35.5544 H         1 RES1    0.0000
     87 C33        3.6291    3.9815   12.2033 Du        2 SUP2    0.0000
     88 H46        4.4845    3.9704   12.0897 Du        2 SUP2    0.0000
     89 H47        2.7405    4.7557   12.0897 Du        2 SUP2    0.0000
     90 C34        3.6374    3.9262   13.5258 Du        2 SUP2    0.0000
     91 H48        3.6540    3.0967   13.8932 Du        2 SUP2    0.0000
     92 H49        5.0409    3.5391   13.9800 Du        2 SUP2    0.0000
     93 C35        2.7156    6.3925   13.4723 Du        2 SUP2    0.0000
     94 H50        3.5045    7.2552   13.8932 Du        2 SUP2    0.0000
     95 H51        1.7606    6.4257   13.7328 Du        2 SUP2    0.0000
     96 C36        2.6741    6.2930   12.2033 Du        2 SUP2    0.0000
     97 H52        1.5114    6.3372   12.3636 Du        2 SUP2    0.0000
     98 H53        3.1641    7.2220   11.4886 Du        2 SUP2    0.0000
     99 H54        2.0762    7.2994   30.9924 Du        2 SUP2    0.0000
    100 C37        2.3585    6.7354   30.8989 Du        2 SUP2    0.0000
    101 H55        3.8201    8.1842   31.6604 Du        2 SUP2    0.0000
    102 C38        2.3419    7.6976   31.9743 Du        2 SUP2    0.0000
    103 H56        5.1489    5.6404   34.5993 Du        2 SUP2    0.0000
    104 H57        0.5813    9.0690   31.1928 Du        2 SUP2    0.0000
    105 H58        2.6907    5.6736   33.5306 Du        2 SUP2    0.0000
    106 C39        1.3287    7.1335   33.2968 Du        2 SUP2    0.0000
    107 H59        0.4152    6.5252   34.0649 Du        2 SUP2    0.0000
    108 H60        2.1592    7.9630   33.9314 Du        2 SUP2    0.0000
    109 C40        2.4997    6.3483   34.1852 Du        2 SUP2    0.0000
    110 H61        3.4879    6.7464   34.0649 Du        2 SUP2    0.0000
    111 H62        2.1592    5.3087   32.7959 Du        2 SUP2    0.0000
    112 C41        1.7938    5.5962   35.3474 Du        2 SUP2    0.0000
    113 H63        2.4382    5.0985   35.8550 Du        2 SUP2    0.0000
    114 H64        1.3478    6.2222   35.9218 Du        2 SUP2    0.0000
    115 H65        1.1435    4.9868   34.9733 Du        2 SUP2    0.0000
@<TRIPOS>BOND
     1    1   26 2
     2    2    7 1
     3    3   71 2
     4    4   26 1
     5    5   30 1
     6    6    7 2
     7    7   49 1
     8    8   54 1
     9    9   62 1
    10   10   11 1
    11   12   10 1
    12   13   10 1
    13   14   10 1
    14   15   14 1
    15   16   14 1
    16   17   14 1
    17   18   17 1
    18   19   17 1
    19   20   17 1
    20   21   20 1
    21   22   20 1
    22   23   20 1
    23   24   23 1
    24   25   23 1
    25   26   23 1
    26   27    4 1
    27   28   27 1
    28   29   27 1
    29   30   27 1
    30   31   30 1
    31   32   30 1
    32   33    5 1
    33   34   33 1
    34   35   33 1
    35   36    4 1
    36   37   36 1
    37   38   36 1
    38   39    5 1
    39   40   39 ar
    40   41   40 1
    41   42   40 ar
    42   43   42 1
    43   44    6 1
    44   45   44 ar
    45   46   45 1
    46   47   39 ar
    47   48   47 1
    48   49   50 ar
    49   50   51 1
    50   52   50 ar
    51   53   52 1
    52   54   52 ar
    53   55   54 ar
    54   56   55 1
    55   57   49 ar
    56   58   57 1
    57   59    8 1
    58   60   59 1
    59   61   59 1
    60   62   59 1
    61   63   62 1
    62   64   62 1
    63   65    9 1
    64   66   65 1
    65   67   65 1
    66   68    8 1
    67   69   68 1
    68   70   68 1
    69   71    9 1
    70   72   71 1
    71   73   72 1
    72   74   72 1
    73   75   72 1
    74   76   75 1
    75   77   75 1
    76   78   75 1
    77   79   78 1
    78   80   78 1
    79   81   80 1
    80   82   78 1
    81   83   80 1
    82   84   83 1
    83   85   83 1
    84   86   83 1
    85   33   36 1
    86   42   44 ar
    87   45   47 ar
    88   55   57 ar
    89   65   68 1
@<TRIPOS>SUBSTRUCTURE
     1 RES1 1
     2 SUP2 87

@<TRIPOS>CRYSIN
   8.3046   11.0597   66.7940  90.0000  90.0000  90.0000  61 1

