# MOL2 file generated by ConQuest
# Please check atom types

@<TRIPOS>MOLECULE
BIWZIR
    37    38     1
SMALL
NO_CHARGES
****
Generated from CSD

@<TRIPOS>ATOM
      1 O1         1.2530    6.0923    4.2162 O.2       1 RES1    0.0000
      2 O2         1.1831    5.4044    6.2606 O.2       1 RES1    0.0000
      3 N1         1.0672    3.6288    3.3656 N.2       1 RES1    0.0000
      4 N2         0.9315    2.4033    2.9386 N.pl3     1 RES1    0.0000
      5 H1         0.6009    1.7896    3.4763 H         1 RES1    0.0000
      6 N3         0.1095    3.1477    5.5869 N.2       1 RES1    0.0000
      7 N4        -0.1401    1.9259    5.2661 N.2       1 RES1    0.0000
      8 N5         1.0556    5.2265    5.0505 N.pl3     1 RES1    0.0000
      9 C1         0.7040    3.8785    4.6094 C.2       1 RES1    0.0000
     10 C2         1.3047    2.0532    1.6330 C.ar      1 RES1    0.0000
     11 C3         1.4069    0.7123    1.3355 C.ar      1 RES1    0.0000
     12 H2         1.2480    0.0647    2.0118 H         1 RES1    0.0000
     13 C4         1.7385    0.3047    0.0606 C.ar      1 RES1    0.0000
     14 H3         1.8124   -0.6231   -0.1269 H         1 RES1    0.0000
     15 C5         1.9667    1.2230   -0.9544 C.ar      1 RES1    0.0000
     16 C6         1.8764    2.5619   -0.6348 C.ar      1 RES1    0.0000
     17 H4         2.0396    3.2093   -1.3107 H         1 RES1    0.0000
     18 C7         1.5543    2.9930    0.6447 C.ar      1 RES1    0.0000
     19 H5         1.5050    3.9209    0.8409 H         1 RES1    0.0000
     20 C8         2.2840    0.7684   -2.3484 C.3       1 RES1    0.0000
     21 H6         1.6959    0.0232   -2.5914 H         1 RES1    0.0000
     22 H7         3.2182    0.4740   -2.3914 H         1 RES1    0.0000
     23 H8         2.1466    1.5105   -2.9742 H         1 RES1    0.0000
     24 C9        -0.8053    1.1679    6.2546 C.ar      1 RES1    0.0000
     25 C10       -1.1305   -0.1432    5.9123 C.ar      1 RES1    0.0000
     26 H9        -0.8989   -0.4782    5.0548 H         1 RES1    0.0000
     27 C11       -1.7850   -0.9528    6.8089 C.ar      1 RES1    0.0000
     28 H10       -2.0047   -1.8425    6.5591 H         1 RES1    0.0000
     29 C12       -2.1305   -0.4944    8.0732 C.ar      1 RES1    0.0000
     30 C13       -1.7819    0.8168    8.4022 C.ar      1 RES1    0.0000
     31 H11       -2.0014    1.1474    9.2655 H         1 RES1    0.0000
     32 C14       -1.1317    1.6420    7.5200 C.ar      1 RES1    0.0000
     33 H12       -0.9068    2.5302    7.7709 H         1 RES1    0.0000
     34 C15       -2.8649   -1.3818    9.0365 C.3       1 RES1    0.0000
     35 H13       -3.3855   -2.0447    8.5365 H         1 RES1    0.0000
     36 H14       -3.4681   -0.8396    9.5860 H         1 RES1    0.0000
     37 H15       -2.2205   -1.8408    9.6150 H         1 RES1    0.0000
@<TRIPOS>BOND
     1    1    8 2
     2    2    8 2
     3    3    4 1
     4    4    5 1
     5    6    7 2
     6    7   24 1
     7    8    9 1
     8    9    3 2
     9   10    4 1
    10   11   10 ar
    11   12   11 1
    12   13   11 ar
    13   14   13 1
    14   15   13 ar
    15   16   15 ar
    16   17   16 1
    17   18   10 ar
    18   19   18 1
    19   20   15 1
    20   21   20 1
    21   22   20 1
    22   23   20 1
    23   24   25 ar
    24   25   26 1
    25   27   25 ar
    26   28   27 1
    27   29   27 ar
    28   30   29 ar
    29   31   30 1
    30   32   24 ar
    31   33   32 1
    32   34   29 1
    33   35   34 1
    34   36   34 1
    35   37   34 1
    36    6    9 1
    37   16   18 ar
    38   30   32 ar
@<TRIPOS>SUBSTRUCTURE
     1 RES1 1

@<TRIPOS>CRYSIN
   7.2118    9.8215   11.7772 110.4190  96.2450 105.7520   2 1

