# MOL2 file generated by ConQuest
# Please check atom types

@<TRIPOS>MOLECULE
BIWZOX
    49    50     1
SMALL
NO_CHARGES
****
Generated from CSD

@<TRIPOS>ATOM
      1 O1         7.4602   -2.3662    2.5233 O.2       1 RES1    0.0000
      2 O2         6.3002   -2.9582    4.2449 O.2       1 RES1    0.0000
      3 N1         6.0855   -0.1904    2.2449 N.2       1 RES1    0.0000
      4 N2         5.4703    0.9465    2.1140 N.pl3     1 RES1    0.0000
      5 H1         4.9758    1.2661    2.7679 H         1 RES1    0.0000
      6 N3         5.2213   -0.6239    4.5153 N.2       1 RES1    0.0000
      7 N4         4.5954    0.4952    4.5368 N.2       1 RES1    0.0000
      8 N5         6.6132   -2.1490    3.3804 N.pl3     1 RES1    0.0000
      9 C1         5.9156   -0.8567    3.3736 C.2       1 RES1    0.0000
     10 C2         5.6131    1.6669    0.8930 C.ar      1 RES1    0.0000
     11 C3         6.8773    1.8592    0.3182 C.ar      1 RES1    0.0000
     12 C4         6.9301    2.5669   -0.8749 C.ar      1 RES1    0.0000
     13 H2         7.7765    2.7038   -1.2852 H         1 RES1    0.0000
     14 C5         5.8097    3.0794   -1.4895 C.ar      1 RES1    0.0000
     15 C6         4.5820    2.9080   -0.8665 C.ar      1 RES1    0.0000
     16 H3         3.8054    3.2844   -1.2626 H         1 RES1    0.0000
     17 C7         4.4591    2.1984    0.3242 C.ar      1 RES1    0.0000
     18 C8         8.1434    1.3906    0.9731 C.3       1 RES1    0.0000
     19 H4         8.1291    1.6323    1.9228 H         1 RES1    0.0000
     20 H5         8.9127    1.8151    0.5395 H         1 RES1    0.0000
     21 H6         8.2154    0.4168    0.8853 H         1 RES1    0.0000
     22 C9         5.9151    3.8300   -2.7924 C.3       1 RES1    0.0000
     23 H7         5.1272    3.6408   -3.3426 H         1 RES1    0.0000
     24 H8         6.7228    3.5451   -3.2697 H         1 RES1    0.0000
     25 H9         5.9648    4.7918   -2.6120 H         1 RES1    0.0000
     26 C10        3.0989    2.0004    0.9419 C.3       1 RES1    0.0000
     27 H10        3.0152    2.5671    1.7367 H         1 RES1    0.0000
     28 H11        2.9898    1.0603    1.1972 H         1 RES1    0.0000
     29 H12        2.4070    2.2448    0.2930 H         1 RES1    0.0000
     30 C11        3.8440    0.8031    5.6966 C.ar      1 RES1    0.0000
     31 C12        3.2740   -0.1608    6.5579 C.ar      1 RES1    0.0000
     32 C13        2.5037    0.3021    7.6181 C.ar      1 RES1    0.0000
     33 H13        2.1117   -0.3342    8.2057 H         1 RES1    0.0000
     34 C14        2.2814    1.6477    7.8563 C.ar      1 RES1    0.0000
     35 C15        2.8512    2.5645    6.9862 C.ar      1 RES1    0.0000
     36 H14        2.7086    3.4914    7.1380 H         1 RES1    0.0000
     37 C16        3.6195    2.1739    5.9065 C.ar      1 RES1    0.0000
     38 C17        3.3790   -1.6448    6.3496 C.3       1 RES1    0.0000
     39 H15        3.2280   -1.8534    5.4038 H         1 RES1    0.0000
     40 H16        2.7045   -2.1001    6.8966 H         1 RES1    0.0000
     41 H17        4.2723   -1.9497    6.6123 H         1 RES1    0.0000
     42 C18        1.4298    2.0998    9.0129 C.3       1 RES1    0.0000
     43 H18        0.8913    1.3475    9.3362 H         1 RES1    0.0000
     44 H19        0.8377    2.8237    8.7188 H         1 RES1    0.0000
     45 H20        2.0064    2.4232    9.7362 H         1 RES1    0.0000
     46 C19        4.2210    3.2141    4.9948 C.3       1 RES1    0.0000
     47 H21        3.7170    3.2419    4.1550 H         1 RES1    0.0000
     48 H22        5.1552    2.9847    4.8077 H         1 RES1    0.0000
     49 H23        4.1803    4.0921    5.4290 H         1 RES1    0.0000
@<TRIPOS>BOND
     1    1    8 2
     2    2    8 2
     3    3    4 1
     4    4    5 1
     5    6    7 2
     6    7   30 1
     7    8    9 1
     8    9    3 2
     9   10    4 1
    10   11   10 ar
    11   12   11 ar
    12   13   12 1
    13   14   12 ar
    14   15   14 ar
    15   16   15 1
    16   17   10 ar
    17   18   11 1
    18   19   18 1
    19   20   18 1
    20   21   18 1
    21   22   14 1
    22   23   22 1
    23   24   22 1
    24   25   22 1
    25   26   17 1
    26   27   26 1
    27   28   26 1
    28   29   26 1
    29   30   31 ar
    30   31   32 ar
    31   32   33 1
    32   34   32 ar
    33   35   34 ar
    34   36   35 1
    35   37   30 ar
    36   38   31 1
    37   39   38 1
    38   40   38 1
    39   41   38 1
    40   42   34 1
    41   43   42 1
    42   44   42 1
    43   45   42 1
    44   46   37 1
    45   47   46 1
    46   48   46 1
    47   49   46 1
    48    6    9 1
    49   15   17 ar
    50   35   37 ar
@<TRIPOS>SUBSTRUCTURE
     1 RES1 1

@<TRIPOS>CRYSIN
   8.9215    9.2825   12.9559  77.9290  78.5390  63.8530   2 1

