# MOL2 file generated by ConQuest
# Please check atom types

@<TRIPOS>MOLECULE
BIXFAP
    16    17     1
SMALL
NO_CHARGES
****
Generated from CSD

@<TRIPOS>ATOM
      1 O1         4.0274   21.1526    1.1985 O.2       1 RES1    0.0000
      2 O2        -0.7518   16.2450   -0.6655 O.2       1 RES1    0.0000
      3 O3         0.7848   15.1573    0.3492 O.2       1 RES1    0.0000
      4 N1         2.1755   22.1379    2.0347 N.am      1 RES1    0.0000
      5 N2         0.2662   16.2002    0.0052 N.pl3     1 RES1    0.0000
      6 C1         0.8722   22.2038    2.5368 C.2       1 RES1    0.0000
      7 C2         0.6590   23.4467    3.0007 C.2       1 RES1    0.0000
      8 C3         1.8549   24.1964    2.7968 C.2       1 RES1    0.0000
      9 C4         2.7540   23.3932    2.2258 C.2       1 RES1    0.0000
     10 C5         2.8429   21.0670    1.4614 C.2       1 RES1    0.0000
     11 C6         2.0891   19.8200    1.1466 C.ar      1 RES1    0.0000
     12 C7         2.7222   18.6096    1.3954 C.ar      1 RES1    0.0000
     13 C8         2.1212   17.4184    1.0424 C.ar      1 RES1    0.0000
     14 C9         0.8942   17.4671    0.4062 C.ar      1 RES1    0.0000
     15 C10        0.2523   18.6465    0.1289 C.ar      1 RES1    0.0000
     16 C11        0.8454   19.8342    0.5096 C.ar      1 RES1    0.0000
@<TRIPOS>BOND
     1    1   10 2
     2    2    5 2
     3    3    5 2
     4    4    6 1
     5    5   14 1
     6    6    7 2
     7    7    8 1
     8    8    9 2
     9    9    4 1
    10   10    4 1
    11   11   10 1
    12   12   11 ar
    13   13   12 ar
    14   14   13 ar
    15   15   14 ar
    16   16   11 ar
    17   15   16 ar
@<TRIPOS>SUBSTRUCTURE
     1 RES1 1

@<TRIPOS>CRYSIN
   6.0270   21.8320    7.5800  90.0000  98.6300  90.0000  14 1

