# MOL2 file generated by ConQuest
# Please check atom types

@<TRIPOS>MOLECULE
BIXGOE
    60    63     1
SMALL
NO_CHARGES
****
Generated from CSD

@<TRIPOS>ATOM
      1 C1         0.3839   13.1981    3.4250 C.2       1 RES1    0.0000
      2 C2         0.0997   14.2773    2.3975 C.3       1 RES1    0.0000
      3 C3        -0.2362   13.6149    1.0584 C.3       1 RES1    0.0000
      4 C4         0.8687   12.6691    0.6303 C.3       1 RES1    0.0000
      5 C5         0.9486   11.5110    1.6269 C.3       1 RES1    0.0000
      6 C6         0.7622   11.9794    3.0492 C.2       1 RES1    0.0000
      7 C7        -0.8650   14.3092    5.2541 C.3       1 RES1    0.0000
      8 C8        -0.6158   14.8154    6.6907 C.3       1 RES1    0.0000
      9 C9         0.8305   13.0450    7.1403 C.3       1 RES1    0.0000
     10 C10        0.6946   12.5114    5.7536 C.3       1 RES1    0.0000
     11 C11        1.2852   15.3050    2.2643 C.3       1 RES1    0.0000
     12 C12        1.3239   16.1918    3.5130 C.3       1 RES1    0.0000
     13 C13       -2.1409   13.4770    5.1447 C.3       1 RES1    0.0000
     14 C14       -1.7785   15.5885    7.2497 C.ar      1 RES1    0.0000
     15 C15       -2.2941   16.6677    6.5670 C.ar      1 RES1    0.0000
     16 C16       -3.3854   17.3741    7.0475 C.ar      1 RES1    0.0000
     17 C17       -3.9680   17.0330    8.2534 C.ar      1 RES1    0.0000
     18 C18       -3.4445   15.9720    8.9551 C.ar      1 RES1    0.0000
     19 C19       -2.3698   15.2520    8.4556 C.ar      1 RES1    0.0000
     20 C20        1.1966   16.1599    1.0156 C.ar      1 RES1    0.0000
     21 C21        0.0837   16.9527    0.7564 C.ar      1 RES1    0.0000
     22 C22        0.0086   17.7167   -0.3925 C.ar      1 RES1    0.0000
     23 C23        1.0434   17.6970   -1.2915 C.ar      1 RES1    0.0000
     24 C24        2.1575   16.9451   -1.0442 C.ar      1 RES1    0.0000
     25 C25        2.2319   16.1645    0.1023 C.ar      1 RES1    0.0000
     26 N1         0.3507   13.5816    4.8188 N.3       1 RES1    0.0000
     27 N2         2.4848   17.1619    3.4488 N.pl3     1 RES1    0.0000
     28 O1        -0.3488   13.7301    7.5660 O.3       1 RES1    0.0000
     29 O2         2.2584   18.3169    3.7200 O.2       1 RES1    0.0000
     30 O3         3.5872   16.7087    3.1610 O.2       1 RES1    0.0000
     31 H1        -0.7432   14.8185    2.7305 H         1 RES1    0.0000
     32 H2        -1.1270   13.0465    1.1655 H         1 RES1    0.0000
     33 H3        -0.3722   14.3182    0.3853 H         1 RES1    0.0000
     34 H4         0.6238   12.2734   -0.2688 H         1 RES1    0.0000
     35 H5         1.7183   13.1647    0.5685 H         1 RES1    0.0000
     36 H6         1.9649   11.0835    1.5508 H         1 RES1    0.0000
     37 H7         0.2750   10.8425    1.4009 H         1 RES1    0.0000
     38 H8         0.9259   11.2063    3.7509 H         1 RES1    0.0000
     39 H9        -0.9923   15.1580    4.6333 H         1 RES1    0.0000
     40 H10        0.1876   15.5081    6.6384 H         1 RES1    0.0000
     41 H11        0.9585   12.2446    7.8443 H         1 RES1    0.0000
     42 H12        1.6561   13.7498    7.2116 H         1 RES1    0.0000
     43 H13        1.5694   12.0597    5.4063 H         1 RES1    0.0000
     44 H14       -0.0689   11.7444    5.7465 H         1 RES1    0.0000
     45 H15        2.1723   14.7472    2.2049 H         1 RES1    0.0000
     46 H16       -2.9019   14.0742    5.2541 H         1 RES1    0.0000
     47 H17       -2.1846   13.0283    4.2385 H         1 RES1    0.0000
     48 H18       -2.1267   12.7903    5.8701 H         1 RES1    0.0000
     49 H19        0.4934   16.8026    3.5559 H         1 RES1    0.0000
     50 H20        1.4734   15.6658    4.3717 H         1 RES1    0.0000
     51 H21       -1.8591   16.9269    5.6418 H         1 RES1    0.0000
     52 H22       -3.6284   18.1441    6.5147 H         1 RES1    0.0000
     53 H23       -4.6681   17.6242    8.6696 H         1 RES1    0.0000
     54 H24       -3.8973   15.6916    9.8779 H         1 RES1    0.0000
     55 H25       -1.9570   14.4592    8.9598 H         1 RES1    0.0000
     56 H26       -0.7032   16.9921    1.3938 H         1 RES1    0.0000
     57 H27       -0.8231   18.2987   -0.5637 H         1 RES1    0.0000
     58 H28        0.9345   18.3200   -2.1573 H         1 RES1    0.0000
     59 H29        2.9105   16.9406   -1.6626 H         1 RES1    0.0000
     60 H30        3.0385   15.5764    0.2545 H         1 RES1    0.0000
@<TRIPOS>BOND
     1    1    2 1
     2    2    3 1
     3    3    4 1
     4    4    5 1
     5    5    6 1
     6    6    1 2
     7    7    8 1
     8    8   14 1
     9    9   10 1
    10   10   26 1
    11   11    2 1
    12   12   11 1
    13   13    7 1
    14   14   15 ar
    15   15   16 ar
    16   16   17 ar
    17   17   18 ar
    18   18   19 ar
    19   19   14 ar
    20   20   11 1
    21   21   20 ar
    22   22   21 ar
    23   23   22 ar
    24   24   23 ar
    25   25   20 ar
    26   26    1 1
    27   27   12 1
    28   28    8 1
    29   29   27 2
    30   30   27 2
    31   31    2 1
    32   32    3 1
    33   33    3 1
    34   34    4 1
    35   35    4 1
    36   36    5 1
    37   37    5 1
    38   38    6 1
    39   39    7 1
    40   40    8 1
    41   41    9 1
    42   42    9 1
    43   43   10 1
    44   44   10 1
    45   45   11 1
    46   46   13 1
    47   47   13 1
    48   48   13 1
    49   49   12 1
    50   50   12 1
    51   51   15 1
    52   52   16 1
    53   53   17 1
    54   54   18 1
    55   55   19 1
    56   56   21 1
    57   57   22 1
    58   58   23 1
    59   59   24 1
    60   60   25 1
    61    7   26 1
    62    9   28 1
    63   24   25 ar
@<TRIPOS>SUBSTRUCTURE
     1 RES1 1

@<TRIPOS>CRYSIN
   6.1520   15.1580   23.7850  90.0000  90.0000  90.0000  19 1

