# MOL2 file generated by ConQuest
# Please check atom types

@<TRIPOS>MOLECULE
BIYDET
   111   114     1
SMALL
NO_CHARGES
****
Generated from CSD

@<TRIPOS>ATOM
      1 O1         0.6910    8.9115   18.8676 O.3       1 RES1    0.0000
      2 O2         1.3693   10.6122   17.6569 O.2       1 RES1    0.0000
      3 O3        -0.2958   12.1824   16.5762 O.3       1 RES1    0.0000
      4 H1         0.4382   11.8710   16.7692 H         1 RES1    0.0000
      5 O4        -0.7671    9.0889   23.5588 O.3       1 RES1    0.0000
      6 H2        -0.1950    9.0479   22.9717 H         1 RES1    0.0000
      7 O5        -3.1469    8.5276   25.7464 O.2       1 RES1    0.0000
      8 O6        -0.1382    9.1103   26.3278 O.3       1 RES1    0.0000
      9 O7         1.2171   11.1199   24.7621 O.3       1 RES1    0.0000
     10 O8         1.6661    9.8091   22.1886 O.3       1 RES1    0.0000
     11 H3         1.0298    9.6728   22.6874 H         1 RES1    0.0000
     12 O9         3.2946    6.1045   22.1143 O.2       1 RES1    0.0000
     13 O10        4.1637    7.5843   20.7897 O.2       1 RES1    0.0000
     14 N1         3.4055    6.6492   21.0212 N.pl3     1 RES1    0.0000
     15 C1         0.4594    9.9811   18.1336 C.2       1 RES1    0.0000
     16 C2        -0.9799   10.3154   17.9556 C.ar      1 RES1    0.0000
     17 C3        -1.2674   11.4349   17.1507 C.ar      1 RES1    0.0000
     18 C4        -2.5828   11.8435   16.8964 C.ar      1 RES1    0.0000
     19 C5        -3.5857   11.1386   17.4645 C.ar      1 RES1    0.0000
     20 H4        -4.4639   11.4135   17.3323 H         1 RES1    0.0000
     21 C6        -3.3362   10.0088   18.2438 C.ar      1 RES1    0.0000
     22 H5        -4.0581    9.5453   18.6021 H         1 RES1    0.0000
     23 C7        -2.0568    9.5525   18.5043 C.ar      1 RES1    0.0000
     24 C8        -1.9320    8.3402   19.4006 C.3       1 RES1    0.0000
     25 H6        -1.1832    7.7982   19.1072 H         1 RES1    0.0000
     26 H7        -2.7371    7.8030   19.3280 H         1 RES1    0.0000
     27 C9        -1.7203    8.7489   20.8744 C.3       1 RES1    0.0000
     28 H8        -0.8985    9.2600   20.9373 H         1 RES1    0.0000
     29 H9        -2.4487    9.3333   21.1388 H         1 RES1    0.0000
     30 C10       -1.6445    7.5870   21.8673 C.3       1 RES1    0.0000
     31 H10       -2.4053    6.9964   21.6854 H         1 RES1    0.0000
     32 C11       -1.8072    8.1170   23.2881 C.3       1 RES1    0.0000
     33 H11       -2.6641    8.5904   23.3250 H         1 RES1    0.0000
     34 C12       -1.8146    7.0746   24.4024 C.3       1 RES1    0.0000
     35 H12       -0.9115    6.7094   24.5092 H         1 RES1    0.0000
     36 C13       -2.2592    7.7078   25.7208 C.2       1 RES1    0.0000
     37 C14       -1.5650    7.2600   27.0107 C.3       1 RES1    0.0000
     38 H13       -1.4920    6.2838   26.9742 H         1 RES1    0.0000
     39 C15       -0.1155    7.8309   26.9715 C.3       1 RES1    0.0000
     40 H14        0.4382    7.2259   26.4332 H         1 RES1    0.0000
     41 C16        0.5851    8.0560   28.3174 C.3       1 RES1    0.0000
     42 H15       -0.0629    8.4215   28.9562 H         1 RES1    0.0000
     43 C17        1.5946    9.1528   27.9500 C.3       1 RES1    0.0000
     44 H16        1.7915    9.7079   28.7215 H         1 RES1    0.0000
     45 H17        2.4219    8.7626   27.6284 H         1 RES1    0.0000
     46 C18        0.9226    9.9754   26.8492 C.3       1 RES1    0.0000
     47 C19        1.9181   10.2940   25.7158 C.3       1 RES1    0.0000
     48 H18        2.6493   10.8253   26.0964 H         1 RES1    0.0000
     49 C20        2.5245    9.1168   24.9956 C.3       1 RES1    0.0000
     50 H19        1.8183    8.5538   24.6417 H         1 RES1    0.0000
     51 H20        3.0459    8.5888   25.6217 H         1 RES1    0.0000
     52 C21        3.4194    9.5837   23.8564 C.3       1 RES1    0.0000
     53 H21        3.7337    8.8120   23.3609 H         1 RES1    0.0000
     54 H22        4.1940   10.0363   24.2249 H         1 RES1    0.0000
     55 C22        2.6900   10.5304   22.9038 C.3       1 RES1    0.0000
     56 C23        2.0337   11.6558   23.6982 C.3       1 RES1    0.0000
     57 H23        1.4236   12.1133   23.0821 H         1 RES1    0.0000
     58 C24        2.9969   12.7304   24.2373 C.3       1 RES1    0.0000
     59 H24        2.4996   13.3886   24.7301 H         1 RES1    0.0000
     60 H25        3.4480   13.1527   23.5017 H         1 RES1    0.0000
     61 H26        3.6431   12.3190   24.8156 H         1 RES1    0.0000
     62 C25        3.6477   11.0260   21.8256 C.3       1 RES1    0.0000
     63 H27        3.9999   10.2562   21.3541 H         1 RES1    0.0000
     64 H28        4.3946   11.4661   22.2595 H         1 RES1    0.0000
     65 C26        3.0533   11.9890   20.7990 C.3       1 RES1    0.0000
     66 H29        3.7318   12.2441   20.1700 H         1 RES1    0.0000
     67 H30        2.7233   12.7717   21.2465 H         1 RES1    0.0000
     68 H31        2.3323   11.5570   20.3356 H         1 RES1    0.0000
     69 C27        0.2052   11.2159   27.3773 C.3       1 RES1    0.0000
     70 H32       -0.3494   11.5682   26.6623 H         1 RES1    0.0000
     71 H33       -0.3892   10.9385   28.0922 H         1 RES1    0.0000
     72 C28        1.0705   12.3429   27.8992 C.3       1 RES1    0.0000
     73 H34        0.5121   13.0618   28.1998 H         1 RES1    0.0000
     74 H35        1.6454   12.6569   27.1978 H         1 RES1    0.0000
     75 H36        1.6048   12.0241   28.6305 H         1 RES1    0.0000
     76 C29        1.1962    6.7812   28.9043 C.3       1 RES1    0.0000
     77 H37        1.6103    6.9820   29.7456 H         1 RES1    0.0000
     78 H38        1.8553    6.4337   28.2992 H         1 RES1    0.0000
     79 H39        0.5056    6.1260   29.0362 H         1 RES1    0.0000
     80 C30       -2.4044    7.6037   28.2366 C.3       1 RES1    0.0000
     81 H40       -2.5495    8.5617   28.2606 H         1 RES1    0.0000
     82 H41       -1.9107    7.3598   29.0362 H         1 RES1    0.0000
     83 C31       -3.7642    6.8928   28.2542 C.3       1 RES1    0.0000
     84 H42       -4.2448    7.1430   29.0473 H         1 RES1    0.0000
     85 H43       -3.6283    5.9427   28.2468 H         1 RES1    0.0000
     86 H44       -4.2689    7.1494   27.4794 H         1 RES1    0.0000
     87 C32       -2.8000    5.9218   24.1347 C.3       1 RES1    0.0000
     88 H45       -2.7556    5.2891   24.8543 H         1 RES1    0.0000
     89 H46       -2.5661    5.4868   23.3112 H         1 RES1    0.0000
     90 H47       -3.6911    6.2711   24.0703 H         1 RES1    0.0000
     91 C33       -0.3679    6.7566   21.6937 C.3       1 RES1    0.0000
     92 H48       -0.3143    6.4369   20.7910 H         1 RES1    0.0000
     93 H49       -0.3864    6.0096   22.2982 H         1 RES1    0.0000
     94 H50        0.3984    7.3040   21.8841 H         1 RES1    0.0000
     95 C34       -2.8324   13.0522   16.0162 C.3       1 RES1    0.0000
     96 H51       -3.7762   13.2117   15.9521 H         1 RES1    0.0000
     97 H52       -2.4755   12.8881   15.1406 H         1 RES1    0.0000
     98 H53       -2.4016   13.8206   16.3993 H         1 RES1    0.0000
     99 C35        2.0559    8.4989   19.1274 C.3       1 RES1    0.0000
    100 H54        2.3202    8.7467   20.0264 H         1 RES1    0.0000
    101 H55        2.6632    8.9172   18.4972 H         1 RES1    0.0000
    102 C36        2.0753    7.0000   18.9639 C.ar      1 RES1    0.0000
    103 C37        2.6068    6.1239   19.9014 C.ar      1 RES1    0.0000
    104 C38        2.4358    4.7562   19.8464 C.ar      1 RES1    0.0000
    105 H56        2.7501    4.2115   20.5316 H         1 RES1    0.0000
    106 C39        1.7915    4.2163   18.7608 C.ar      1 RES1    0.0000
    107 H57        1.6889    3.2933   18.6932 H         1 RES1    0.0000
    108 C40        1.3025    5.0293   17.7781 C.ar      1 RES1    0.0000
    109 H58        0.8920    4.6563   17.0314 H         1 RES1    0.0000
    110 C41        1.4125    6.4066   17.8858 C.ar      1 RES1    0.0000
    111 H59        1.0390    6.9470   17.2274 H         1 RES1    0.0000
@<TRIPOS>BOND
     1    1   15 1
     2    2   15 2
     3    3    4 1
     4    5    6 1
     5    7   36 2
     6    8   39 1
     7    9   47 1
     8   10   11 1
     9   12   14 2
    10   13   14 2
    11   14  103 1
    12   15   16 1
    13   16   17 ar
    14   17    3 1
    15   18   17 ar
    16   19   18 ar
    17   20   19 1
    18   21   19 ar
    19   22   21 1
    20   23   16 ar
    21   24   23 1
    22   25   24 1
    23   26   24 1
    24   27   24 1
    25   28   27 1
    26   29   27 1
    27   30   27 1
    28   31   30 1
    29   32    5 1
    30   33   32 1
    31   34   32 1
    32   35   34 1
    33   36   34 1
    34   37   36 1
    35   38   37 1
    36   39   37 1
    37   40   39 1
    38   41   39 1
    39   42   41 1
    40   43   41 1
    41   44   43 1
    42   45   43 1
    43   46    8 1
    44   47   46 1
    45   48   47 1
    46   49   47 1
    47   50   49 1
    48   51   49 1
    49   52   49 1
    50   53   52 1
    51   54   52 1
    52   55   10 1
    53   56    9 1
    54   57   56 1
    55   58   56 1
    56   59   58 1
    57   60   58 1
    58   61   58 1
    59   62   55 1
    60   63   62 1
    61   64   62 1
    62   65   62 1
    63   66   65 1
    64   67   65 1
    65   68   65 1
    66   69   46 1
    67   70   69 1
    68   71   69 1
    69   72   69 1
    70   73   72 1
    71   74   72 1
    72   75   72 1
    73   76   41 1
    74   77   76 1
    75   78   76 1
    76   79   76 1
    77   80   37 1
    78   81   80 1
    79   82   80 1
    80   83   80 1
    81   84   83 1
    82   85   83 1
    83   86   83 1
    84   87   34 1
    85   88   87 1
    86   89   87 1
    87   90   87 1
    88   91   30 1
    89   92   91 1
    90   93   91 1
    91   94   91 1
    92   95   18 1
    93   96   95 1
    94   97   95 1
    95   98   95 1
    96   99    1 1
    97  100   99 1
    98  101   99 1
    99  102   99 1
   100  103  102 ar
   101  104  103 ar
   102  105  104 1
   103  106  104 ar
   104  107  106 1
   105  108  106 ar
   106  109  108 1
   107  110  102 ar
   108  111  110 1
   109   21   23 ar
   110   30   32 1
   111   43   46 1
   112   52   55 1
   113   55   56 1
   114  108  110 ar
@<TRIPOS>SUBSTRUCTURE
     1 RES1 1

@<TRIPOS>CRYSIN
   9.2440   15.9407   27.6036  90.0000  90.0000  90.0000  19 1

