# MOL2 file generated by ConQuest
# Please check atom types

@<TRIPOS>MOLECULE
BIYNUU
    71    74     1
SMALL
NO_CHARGES
****
Generated from CSD

@<TRIPOS>ATOM
      1 C1         5.7146    5.6047    3.9718 C.3       1 RES1    0.0000
      2 C2         6.0173    4.7861    2.6963 C.3       1 RES1    0.0000
      3 C3         4.9659    3.6942    2.5219 C.3       1 RES1    0.0000
      4 C4         3.5957    4.4183    2.3005 C.3       1 RES1    0.0000
      5 C5         3.2942    5.3655    3.5274 C.3       1 RES1    0.0000
      6 C6         6.7569    6.6644    4.2539 C.ar      1 RES1    0.0000
      7 C7         7.7051    6.4744    5.2290 C.ar      1 RES1    0.0000
      8 H1         7.7030    5.6822    5.7172 H         1 RES1    0.0000
      9 C8         8.6699    7.4405    5.5046 C.ar      1 RES1    0.0000
     10 H2         9.3063    7.2920    6.1670 H         1 RES1    0.0000
     11 C9         8.6755    8.6013    4.7979 C.ar      1 RES1    0.0000
     12 C10        7.7332    8.8234    3.8139 C.ar      1 RES1    0.0000
     13 H3         7.7313    9.6203    3.3343 H         1 RES1    0.0000
     14 C11        6.7977    7.8517    3.5511 C.ar      1 RES1    0.0000
     15 H4         6.1721    7.9991    2.8787 H         1 RES1    0.0000
     16 C12       10.6328    9.4246    5.9063 C.3       1 RES1    0.0000
     17 H5        10.2882    9.2980    6.7929 H         1 RES1    0.0000
     18 H6        11.2177   10.1866    5.8952 H         1 RES1    0.0000
     19 H7        11.1204    8.6429    5.6368 H         1 RES1    0.0000
     20 C13        5.2731    2.6837    1.4225 C.ar      1 RES1    0.0000
     21 C14        4.9944    1.3452    1.6354 C.ar      1 RES1    0.0000
     22 C15        5.2270    0.3620    0.6642 C.ar      1 RES1    0.0000
     23 C16        5.7902    0.7676   -0.5357 C.ar      1 RES1    0.0000
     24 C17        6.1041    2.0872   -0.7683 C.ar      1 RES1    0.0000
     25 C18        5.8424    3.0543    0.1968 C.ar      1 RES1    0.0000
     26 C19        6.0081   -1.4784   -1.3431 C.3       1 RES1    0.0000
     27 H8         6.5915   -1.7119   -0.6163 H         1 RES1    0.0000
     28 H9         6.2851   -1.9416   -2.1380 H         1 RES1    0.0000
     29 H10        5.1074   -1.7290   -1.1235 H         1 RES1    0.0000
     30 C20        2.5053    3.3615    2.2521 C.2       1 RES1    0.0000
     31 C21        0.6962    2.4077    1.0221 C.3       1 RES1    0.0000
     32 H11        0.8433    1.8641    0.2335 H         1 RES1    0.0000
     33 H12        0.6999    1.8216    1.7954 H         1 RES1    0.0000
     34 C22       -0.5598    3.0448    0.9245 C.3       1 RES1    0.0000
     35 H13       -0.7044    3.5874    1.7016 H         1 RES1    0.0000
     36 H14       -1.2516    2.3822    0.8632 H         1 RES1    0.0000
     37 H15       -0.5768    3.5988    0.1397 H         1 RES1    0.0000
     38 C23        2.0248    6.1624    3.3172 C.ar      1 RES1    0.0000
     39 C24        0.7942    5.6283    3.6956 C.ar      1 RES1    0.0000
     40 C25       -0.3787    6.3212    3.3972 C.ar      1 RES1    0.0000
     41 H16       -1.1980    5.9507    3.6367 H         1 RES1    0.0000
     42 C26       -0.3537    7.5246    2.7656 C.ar      1 RES1    0.0000
     43 C27        0.8755    8.0918    2.4459 C.ar      1 RES1    0.0000
     44 H17        0.9114    8.9340    2.0538 H         1 RES1    0.0000
     45 C28        2.0429    7.4045    2.7107 C.ar      1 RES1    0.0000
     46 H18        2.8584    7.7845    2.4768 H         1 RES1    0.0000
     47 C29       -2.7373    7.6588    2.5648 C.3       1 RES1    0.0000
     48 H19       -2.7656    6.8544    2.0404 H         1 RES1    0.0000
     49 H20       -3.4195    8.2619    2.2624 H         1 RES1    0.0000
     50 H21       -2.8867    7.4442    3.4893 H         1 RES1    0.0000
     51 H22        5.6310    4.8588    4.7851 H         1 RES1    0.0000
     52 H23        6.2057    5.4449    1.8758 H         1 RES1    0.0000
     53 H24        4.8640    3.1289    3.3304 H         1 RES1    0.0000
     54 H25        3.1542    4.5942    4.3066 H         1 RES1    0.0000
     55 H26        4.6180    1.0209    2.4500 H         1 RES1    0.0000
     56 H27        4.9593   -0.5388    0.8613 H         1 RES1    0.0000
     57 H28        6.5607    2.3443   -1.6078 H         1 RES1    0.0000
     58 H29        6.0394    4.0270    0.0766 H         1 RES1    0.0000
     59 H30        0.7238    4.6509    4.1860 H         1 RES1    0.0000
     60 H31        4.2353    6.9196    4.3640 H         1 RES1    0.0000
     61 N1         4.4288    6.2711    3.6880 N.3       1 RES1    0.0000
     62 N2         7.3743    4.1423    2.8519 N.pl3     1 RES1    0.0000
     63 O1         9.5524    9.6440    5.0052 O.3       1 RES1    0.0000
     64 O2         7.5064    3.2774    3.7014 O.2       1 RES1    0.0000
     65 O3         8.2648    4.5223    2.1165 O.2       1 RES1    0.0000
     66 O4         6.0675   -0.0907   -1.5649 O.3       1 RES1    0.0000
     67 O5         2.3136    2.5854    3.1545 O.2       1 RES1    0.0000
     68 O6         1.7905    3.3993    1.1492 O.3       1 RES1    0.0000
     69 O7        -1.4494    8.2799    2.4205 O.3       1 RES1    0.0000
     70 C30        3.6319    5.2086    1.0552 C.1       1 RES1    0.0000
     71 N3         3.7501    5.8363    0.1173 N.1       1 RES1    0.0000
@<TRIPOS>BOND
     1    1    2 1
     2    2    3 1
     3    3    4 1
     4    4    5 1
     5    5   38 1
     6    6    1 1
     7    7    6 ar
     8    8    7 1
     9    9    7 ar
    10   10    9 1
    11   11    9 ar
    12   12   11 ar
    13   13   12 1
    14   14    6 ar
    15   15   14 1
    16   16   17 1
    17   18   16 1
    18   19   16 1
    19   20    3 1
    20   21   20 ar
    21   22   21 ar
    22   23   22 ar
    23   24   23 ar
    24   25   20 ar
    25   26   27 1
    26   28   26 1
    27   29   26 1
    28   30    4 1
    29   31   32 1
    30   33   31 1
    31   34   31 1
    32   35   34 1
    33   36   34 1
    34   37   34 1
    35   38   39 ar
    36   39   40 ar
    37   40   41 1
    38   42   40 ar
    39   43   42 ar
    40   44   43 1
    41   45   38 ar
    42   46   45 1
    43   47   48 1
    44   49   47 1
    45   50   47 1
    46   51    1 1
    47   52    2 1
    48   53    3 1
    49   54    5 1
    50   55   21 1
    51   56   22 1
    52   57   24 1
    53   58   25 1
    54   59   39 1
    55   60   61 1
    56   61    1 1
    57   62    2 1
    58   63   11 1
    59   64   62 2
    60   65   62 2
    61   66   23 1
    62   67   30 2
    63   68   30 1
    64   69   42 1
    65   70    4 1
    66   71   70 3
    67    5   61 1
    68   12   14 ar
    69   16   63 1
    70   24   25 ar
    71   26   66 1
    72   31   68 1
    73   43   45 ar
    74   47   69 1
@<TRIPOS>SUBSTRUCTURE
     1 RES1 1

@<TRIPOS>CRYSIN
  15.8550    9.4530   19.6180  90.0000 102.6690  90.0000 231 1

