# MOL2 file generated by ConQuest
# Please check atom types

@<TRIPOS>MOLECULE
BIYNOM
    53    54     1
SMALL
NO_CHARGES
****
Generated from CSD

@<TRIPOS>ATOM
      1 C1         2.8307    1.4957   11.2540 C.ar      1 RES1    0.0000
      2 C2         2.8369    1.1139    9.9247 C.ar      1 RES1    0.0000
      3 C3         3.9279    1.4318    9.1482 C.ar      1 RES1    0.0000
      4 C4         5.0153    2.1282    9.6303 C.ar      1 RES1    0.0000
      5 C5         4.9867    2.4651   10.9570 C.ar      1 RES1    0.0000
      6 C6         3.9294    2.1550   11.7927 C.ar      1 RES1    0.0000
      7 C7         1.6476    1.2247   12.1231 C.2       1 RES1    0.0000
      8 C8        -0.6777    0.5922   12.0845 C.3       1 RES1    0.0000
      9 C9        -1.3655    1.9356   12.2619 C.3       1 RES1    0.0000
     10 C10       -2.7189    1.8349   12.9844 C.3       1 RES1    0.0000
     11 C11       -2.5821    1.2035   14.3523 C.ar      1 RES1    0.0000
     12 C12       -1.6123    1.6020   15.2817 C.ar      1 RES1    0.0000
     13 C13       -1.5658    1.0378   16.5429 C.ar      1 RES1    0.0000
     14 C14       -2.4422    0.0616   16.9170 C.ar      1 RES1    0.0000
     15 C15       -3.3850   -0.3672   16.0171 C.ar      1 RES1    0.0000
     16 C16       -3.4447    0.1993   14.7444 C.ar      1 RES1    0.0000
     17 C17       -1.4076   -0.3706   11.1910 C.3       1 RES1    0.0000
     18 C18       -3.4996    3.2007   12.9947 C.3       1 RES1    0.0000
     19 C19       -4.8351    2.9465   13.7082 C.3       1 RES1    0.0000
     20 C20       -2.7150    4.3123   13.6876 C.3       1 RES1    0.0000
     21 C21       -3.7831    3.6249   11.5471 C.3       1 RES1    0.0000
     22 N1         6.1405    3.1939   11.5240 N.pl3     1 RES1    0.0000
     23 N2         3.9264    1.0187    7.7366 N.pl3     1 RES1    0.0000
     24 O1         2.9889    0.3504    7.3497 O.2       1 RES1    0.0000
     25 O2         4.8616    1.3367    7.0437 O.2       1 RES1    0.0000
     26 O3         6.9525    3.6563   10.7385 O.2       1 RES1    0.0000
     27 O4         6.2043    3.3216   12.7299 O.2       1 RES1    0.0000
     28 O5         0.5995    0.8363   11.4031 O.3       1 RES1    0.0000
     29 O6         1.6503    1.3624   13.3251 O.2       1 RES1    0.0000
     30 H1         2.0815    0.6717    9.5133 H         1 RES1    0.0000
     31 H2         5.7627    2.3286    9.0762 H         1 RES1    0.0000
     32 H3         3.9578    2.3845   12.7659 H         1 RES1    0.0000
     33 H4        -0.5063    0.1903   12.9973 H         1 RES1    0.0000
     34 H5        -1.4734    2.3174   11.3903 H         1 RES1    0.0000
     35 H6        -0.6884    2.4517   12.7401 H         1 RES1    0.0000
     36 H7        -3.2809    1.2091   12.4702 H         1 RES1    0.0000
     37 H8        -0.8691    2.2054   14.9771 H         1 RES1    0.0000
     38 H9        -0.9778    1.2874   17.1368 H         1 RES1    0.0000
     39 H10       -2.4546   -0.3135   17.8311 H         1 RES1    0.0000
     40 H11       -4.0280   -1.0411   16.2112 H         1 RES1    0.0000
     41 H12       -4.1651   -0.0112   14.2057 H         1 RES1    0.0000
     42 H13       -2.2524   -0.6269   11.5703 H         1 RES1    0.0000
     43 H14       -1.6489    0.0896   10.3618 H         1 RES1    0.0000
     44 H15       -0.8907   -1.1867   10.9917 H         1 RES1    0.0000
     45 H16       -5.3535    2.2838   13.2415 H         1 RES1    0.0000
     46 H17       -4.7568    2.7540   14.6685 H         1 RES1    0.0000
     47 H18       -5.3975    3.8959   13.6786 H         1 RES1    0.0000
     48 H19       -2.5890    4.0526   14.6685 H         1 RES1    0.0000
     49 H20       -1.7697    4.4220   13.2287 H         1 RES1    0.0000
     50 H21       -3.2686    5.1385   13.6658 H         1 RES1    0.0000
     51 H22       -2.9366    3.8511   11.0560 H         1 RES1    0.0000
     52 H23       -4.0034    2.9331   11.0689 H         1 RES1    0.0000
     53 H24       -4.4009    4.3437   11.5574 H         1 RES1    0.0000
@<TRIPOS>BOND
     1    1    2 ar
     2    2    3 ar
     3    3    4 ar
     4    4    5 ar
     5    5    6 ar
     6    6    1 ar
     7    7    1 1
     8    8    9 1
     9    9   10 1
    10   10   11 1
    11   11   12 ar
    12   12   13 ar
    13   13   14 ar
    14   14   15 ar
    15   15   16 ar
    16   16   11 ar
    17   17    8 1
    18   18   10 1
    19   19   18 1
    20   20   18 1
    21   21   18 1
    22   22    5 1
    23   23    3 1
    24   24   23 2
    25   25   23 2
    26   26   22 2
    27   27   22 2
    28   28    7 1
    29   29    7 2
    30   30    2 1
    31   31    4 1
    32   32    6 1
    33   33    8 1
    34   34    9 1
    35   35    9 1
    36   36   10 1
    37   37   12 1
    38   38   13 1
    39   39   14 1
    40   40   15 1
    41   41   16 1
    42   42   17 1
    43   43   17 1
    44   44   17 1
    45   45   19 1
    46   46   19 1
    47   47   19 1
    48   48   20 1
    49   49   20 1
    50   50   20 1
    51   51   21 1
    52   52   21 1
    53   53   21 1
    54    8   28 1
@<TRIPOS>SUBSTRUCTURE
     1 RES1 1

@<TRIPOS>CRYSIN
  14.5490   11.1950   13.6940  90.0000 110.1500  90.0000  14 1

