# MOL2 file generated by ConQuest
# Please check atom types

@<TRIPOS>MOLECULE
BIYPEG
    78    74     2
SMALL
NO_CHARGES
****
Generated from CSD

@<TRIPOS>ATOM
      1 C1         3.5904   12.8383    6.2036 C.3       1 RES1    0.0000
      2 H1         3.2815   12.8966    7.1320 H         1 RES1    0.0000
      3 C2         2.4983   12.0912    5.4121 C.3       1 RES1    0.0000
      4 H2         2.2140   11.3472    5.9825 H         1 RES1    0.0000
      5 C3         1.2413   12.9434    5.1742 C.3       1 RES1    0.0000
      6 H3         0.8616   13.0359    6.0723 H         1 RES1    0.0000
      7 C4         1.5301   14.4113    4.7586 C.3       1 RES1    0.0000
      8 C5         2.5212   14.9881    5.8267 C.3       1 RES1    0.0000
      9 H4         2.1350   14.8342    6.7149 H         1 RES1    0.0000
     10 C6         4.9040   12.1029    6.2247 C.ar      1 RES1    0.0000
     11 C7         5.9200   12.4206    5.3540 C.ar      1 RES1    0.0000
     12 H5         5.8039   13.0985    4.7279 H         1 RES1    0.0000
     13 C8         7.1191   11.7232    5.4119 C.ar      1 RES1    0.0000
     14 C9         7.2805   10.7065    6.3298 C.ar      1 RES1    0.0000
     15 H6         8.0804   10.2330    6.3629 H         1 RES1    0.0000
     16 C10        6.2796   10.3984    7.1780 C.ar      1 RES1    0.0000
     17 H7         6.3984    9.7160    7.7983 H         1 RES1    0.0000
     18 C11        5.0875   11.0808    7.1414 C.ar      1 RES1    0.0000
     19 H8         4.4044   10.8563    7.7309 H         1 RES1    0.0000
     20 C12        8.0535   12.8740    3.5807 C.3       1 RES1    0.0000
     21 H9         7.8200   13.7305    3.9482 H         1 RES1    0.0000
     22 H10        7.3625   12.5850    2.9794 H         1 RES1    0.0000
     23 H11        8.8831   12.9471    3.1023 H         1 RES1    0.0000
     24 C13        2.7790   16.4707    5.6758 C.ar      1 RES1    0.0000
     25 C14        3.8218   16.9557    4.8902 C.ar      1 RES1    0.0000
     26 H12        4.3715   16.3662    4.4266 H         1 RES1    0.0000
     27 C15        4.0332   18.3177    4.8046 C.ar      1 RES1    0.0000
     28 C16        3.1924   19.1919    5.4698 C.ar      1 RES1    0.0000
     29 H13        3.3301   20.1091    5.4024 H         1 RES1    0.0000
     30 C17        2.1652   18.7150    6.2235 C.ar      1 RES1    0.0000
     31 H14        1.5990   19.3101    6.6570 H         1 RES1    0.0000
     32 C18        1.9575   17.3582    6.3487 C.ar      1 RES1    0.0000
     33 H15        1.2668   17.0399    6.8851 H         1 RES1    0.0000
     34 C19        5.8417   18.0735    3.2630 C.3       1 RES1    0.0000
     35 H16        5.2743   17.6527    2.6132 H         1 RES1    0.0000
     36 H17        6.2828   17.4003    3.7863 H         1 RES1    0.0000
     37 H18        6.4990   18.6120    2.8140 H         1 RES1    0.0000
     38 C20        0.1403   12.2263    4.4042 C.ar      1 RES1    0.0000
     39 C21       -0.0072   12.2838    3.0302 C.ar      1 RES1    0.0000
     40 H19        0.5910   12.7765    2.5151 H         1 RES1    0.0000
     41 C22       -1.0436   11.6066    2.4289 C.ar      1 RES1    0.0000
     42 H20       -1.1522   11.6675    1.5074 H         1 RES1    0.0000
     43 C23       -1.9184   10.8493    3.1566 C.ar      1 RES1    0.0000
     44 H21       -2.6117   10.3967    2.7337 H         1 RES1    0.0000
     45 C24       -1.7648   10.7629    4.5129 C.ar      1 RES1    0.0000
     46 C25       -0.7446   11.4696    5.1307 C.ar      1 RES1    0.0000
     47 H22       -0.6574   11.4307    6.0557 H         1 RES1    0.0000
     48 C26       -3.3919    9.0440    4.7397 C.3       1 RES1    0.0000
     49 H23       -2.8586    8.4677    4.1880 H         1 RES1    0.0000
     50 H24       -4.0569    9.4775    4.1998 H         1 RES1    0.0000
     51 H25       -3.8208    8.5252    5.4237 H         1 RES1    0.0000
     52 C27        2.1283   14.6091    3.4260 C.1       1 RES1    0.0000
     53 C28        0.1943   15.1516    4.8708 C.2       1 RES1    0.0000
     54 C29       -1.3700   16.5960    3.9753 C.3       1 RES1    0.0000
     55 H26       -1.9248   16.1939    4.6605 H         1 RES1    0.0000
     56 H27       -1.1854   17.5187    4.2163 H         1 RES1    0.0000
     57 C30       -2.0226   16.5142    2.6451 C.3       1 RES1    0.0000
     58 H28       -1.4517   16.9111    1.9835 H         1 RES1    0.0000
     59 H29       -2.8594   16.9842    2.6687 H         1 RES1    0.0000
     60 H30       -2.1784   15.5932    2.4206 H         1 RES1    0.0000
     61 N1         3.7486   14.2042    5.7227 N.3       1 RES1    0.0000
     62 H31        4.3545   14.5748    6.1550 H         1 RES1    0.0000
     63 N2         3.0301   11.4638    4.1502 N.pl3     1 RES1    0.0000
     64 N3         2.6060   14.8328    2.4128 N.1       1 RES1    0.0000
     65 O1         3.5129   12.1485    3.3015 O.2       1 RES1    0.0000
     66 O2         2.9647   10.2577    4.0757 O.2       1 RES1    0.0000
     67 O3         8.1884   11.9568    4.6003 O.3       1 RES1    0.0000
     68 O4         5.0573   18.8964    4.1124 O.3       1 RES1    0.0000
     69 O5        -2.5590   10.0262    5.3421 O.3       1 RES1    0.0000
     70 O6        -0.4661   15.1128    5.8610 O.2       1 RES1    0.0000
     71 O7        -0.1090   15.8302    3.7910 O.3       1 RES1    0.0000
     72 C31       -1.4309   16.4498    3.5784 Du        2 SUP2    0.0000
     73 H32       -1.7784   16.7649    4.4278 Du        2 SUP2    0.0000
     74 H33       -1.3366   17.2158    2.9912 Du        2 SUP2    0.0000
     75 C32       -2.3548   15.5184    3.0031 Du        2 SUP2    0.0000
     76 H34       -2.0221   15.2224    2.1525 Du        2 SUP2    0.0000
     77 H35       -3.2056   15.9449    2.8814 Du        2 SUP2    0.0000
     78 H36       -2.4554   14.7646    3.5878 Du        2 SUP2    0.0000
@<TRIPOS>BOND
     1    1    2 1
     2    3    1 1
     3    4    3 1
     4    5    3 1
     5    6    5 1
     6    7    5 1
     7    8    7 1
     8    9    8 1
     9   10    1 1
    10   11   10 ar
    11   12   11 1
    12   13   11 ar
    13   14   13 ar
    14   15   14 1
    15   16   14 ar
    16   17   16 1
    17   18   10 ar
    18   19   18 1
    19   20   21 1
    20   22   20 1
    21   23   20 1
    22   24    8 1
    23   25   24 ar
    24   26   25 1
    25   27   25 ar
    26   28   27 ar
    27   29   28 1
    28   30   28 ar
    29   31   30 1
    30   32   24 ar
    31   33   32 1
    32   34   35 1
    33   36   34 1
    34   37   34 1
    35   38    5 1
    36   39   38 ar
    37   40   39 1
    38   41   39 ar
    39   42   41 1
    40   43   41 ar
    41   44   43 1
    42   45   43 ar
    43   46   38 ar
    44   47   46 1
    45   48   49 1
    46   50   48 1
    47   51   48 1
    48   52    7 1
    49   53    7 1
    50   54   55 1
    51   56   54 1
    52   57   54 1
    53   58   57 1
    54   59   57 1
    55   60   57 1
    56   61    1 1
    57   62   61 1
    58   63    3 1
    59   64   52 3
    60   65   63 2
    61   66   63 2
    62   67   13 1
    63   68   27 1
    64   69   45 1
    65   70   53 2
    66   71   53 1
    67    8   61 1
    68   16   18 ar
    69   20   67 1
    70   30   32 ar
    71   34   68 1
    72   45   46 ar
    73   48   69 1
    74   54   71 1
@<TRIPOS>SUBSTRUCTURE
     1 RES1 1
     2 SUP2 72

@<TRIPOS>CRYSIN
  13.6475   17.4090   12.1547  90.0000 103.6030  90.0000  14 1

