# MOL2 file generated by ConQuest
# Please check atom types

@<TRIPOS>MOLECULE
BIZGUN
    20    20     1
SMALL
NO_CHARGES
****
Generated from CSD

@<TRIPOS>ATOM
      1 C1        -3.3249    2.4673    9.0327 C.3       1 RES1    0.0000
      2 C2        -2.1596    3.3120    9.5387 C.3       1 RES1    0.0000
      3 C3        -1.7303    2.9771   10.9747 C.3       1 RES1    0.0000
      4 C4        -0.3007    3.4270   11.3928 C.3       1 RES1    0.0000
      5 C5         0.6711    2.2158   11.2870 C.3       1 RES1    0.0000
      6 C6         0.7060    1.5527    9.9378 C.2       1 RES1    0.0000
      7 C7         0.3140    0.3182    9.7216 C.2       1 RES1    0.0000
      8 C8        -1.2453   -0.6547    8.0410 C.3       1 RES1    0.0000
      9 C9        -2.0178    0.6248    8.0825 C.2       1 RES1    0.0000
     10 C10       -2.9418    0.9996    8.9710 C.2       1 RES1    0.0000
     11 C11        0.2573   -0.4248    8.3925 C.3       1 RES1    0.0000
     12 C12        0.9074   -1.8093    8.5909 C.3       1 RES1    0.0000
     13 C13        0.9703    0.3249    7.2808 C.3       1 RES1    0.0000
     14 C14        0.2169    4.6698   10.7134 C.3       1 RES1    0.0000
     15 C15       -3.5438    0.0933    9.9972 C.3       1 RES1    0.0000
     16 N1        -0.3821    3.6069   12.9095 N.2       1 RES1    0.0000
     17 N2        -2.7740    3.5919   11.8857 N.pl3     1 RES1    0.0000
     18 O1        -2.7669    4.8097   12.0234 O.2       1 RES1    0.0000
     19 O2        -3.5828    2.8539   12.4118 O.2       1 RES1    0.0000
     20 O3         0.4315    4.3499   13.3620 O.2       1 RES1    0.0000
@<TRIPOS>BOND
     1    1    2 1
     2    2    3 1
     3    3    4 1
     4    4    5 1
     5    5    6 1
     6    6    7 2
     7    7   11 1
     8    8    9 1
     9    9   10 2
    10   10    1 1
    11   11    8 1
    12   12   11 1
    13   13   11 1
    14   14    4 1
    15   15   10 1
    16   16    4 1
    17   17    3 1
    18   18   17 2
    19   19   17 2
    20   20   16 2
@<TRIPOS>SUBSTRUCTURE
     1 RES1 1

@<TRIPOS>CRYSIN
   7.8730   16.6600   12.1400  90.0000 101.9400  90.0000  14 1

