# MOL2 file generated by ConQuest
# Please check atom types

@<TRIPOS>MOLECULE
BIZHEX
    46    46     1
SMALL
NO_CHARGES
****
Generated from CSD

@<TRIPOS>ATOM
      1 C1         6.7322    2.5686    6.9555 C.3       1 RES1    0.0000
      2 C2         6.3052    2.8365    5.4873 C.3       1 RES1    0.0000
      3 C3         4.8190    3.1044    5.3692 C.3       1 RES1    0.0000
      4 C4         4.4051    3.9713    4.1482 C.3       1 RES1    0.0000
      5 C5         4.7776    5.4443    4.4226 C.3       1 RES1    0.0000
      6 C6         4.3353    5.9290    5.7781 C.2       1 RES1    0.0000
      7 C7         5.1716    6.4327    6.6757 C.2       1 RES1    0.0000
      8 C8         5.8760    5.7992    8.9451 C.3       1 RES1    0.0000
      9 C9         5.9503    4.3857    8.4309 C.2       1 RES1    0.0000
     10 C10        6.9077    3.8796    7.6641 C.2       1 RES1    0.0000
     11 C11        4.9048    6.6947    8.1383 C.3       1 RES1    0.0000
     12 C12        5.1961    8.1617    8.4854 C.3       1 RES1    0.0000
     13 C13        3.4653    6.3744    8.5308 C.3       1 RES1    0.0000
     14 C14        4.9301    3.4569    2.8218 C.3       1 RES1    0.0000
     15 C15        8.1901    4.5905    7.3443 C.3       1 RES1    0.0000
     16 N1         2.0987    4.3964    3.2870 N.pl3     1 RES1    0.0000
     17 N2         4.0808    1.7874    5.3511 N.pl3     1 RES1    0.0000
     18 O1         4.3438    0.9681    4.5043 O.2       1 RES1    0.0000
     19 O2         3.2400    1.6028    6.2178 O.2       1 RES1    0.0000
     20 O3         0.9420    4.0618    3.4378 O.2       1 RES1    0.0000
     21 O4         2.5478    5.1181    2.4566 O.2       1 RES1    0.0000
     22 O5         2.9227    3.7939    4.2427 O.3       1 RES1    0.0000
     23 H1         7.4895    2.1220    6.9300 H         1 RES1    0.0000
     24 H2         6.1029    1.9946    7.4751 H         1 RES1    0.0000
     25 H3         6.4984    2.1375    4.9768 H         1 RES1    0.0000
     26 H4         6.8379    3.5522    5.2075 H         1 RES1    0.0000
     27 H5         4.4005    3.5402    6.1469 H         1 RES1    0.0000
     28 H6         4.3721    6.0374    3.6594 H         1 RES1    0.0000
     29 H7         5.7510    5.5467    4.3535 H         1 RES1    0.0000
     30 H8         3.2377    5.8325    6.0542 H         1 RES1    0.0000
     31 H9         6.1420    6.5792    6.3595 H         1 RES1    0.0000
     32 H10        5.6943    5.9242    9.9245 H         1 RES1    0.0000
     33 H11        6.6302    6.1529    8.9851 H         1 RES1    0.0000
     34 H12        5.1003    3.7832    8.6071 H         1 RES1    0.0000
     35 H13        4.5009    8.8286    8.0275 H         1 RES1    0.0000
     36 H14        6.0975    8.4213    8.1983 H         1 RES1    0.0000
     37 H15        5.0344    8.3439    9.4466 H         1 RES1    0.0000
     38 H16        2.8859    7.0579    7.9203 H         1 RES1    0.0000
     39 H17        3.3833    6.5161    9.5120 H         1 RES1    0.0000
     40 H18        3.1434    5.3312    8.3618 H         1 RES1    0.0000
     41 H19        5.7035    3.5295    2.8763 H         1 RES1    0.0000
     42 H20        4.6166    4.0475    2.1586 H         1 RES1    0.0000
     43 H21        4.6626    2.5447    2.6837 H         1 RES1    0.0000
     44 H22        8.2253    4.9847    6.7011 H         1 RES1    0.0000
     45 H23        8.3426    5.4062    7.7586 H         1 RES1    0.0000
     46 H24        8.9152    3.8784    7.1626 H         1 RES1    0.0000
@<TRIPOS>BOND
     1    1    2 1
     2    2    3 1
     3    3    4 1
     4    4    5 1
     5    5    6 1
     6    6    7 2
     7    7   11 1
     8    8    9 1
     9    9   10 2
    10   10    1 1
    11   11    8 1
    12   12   11 1
    13   13   11 1
    14   14    4 1
    15   15   10 1
    16   16   20 2
    17   17    3 1
    18   18   17 2
    19   19   17 2
    20   21   16 2
    21   22    4 1
    22   23    1 1
    23   24    1 1
    24   25    2 1
    25   26    2 1
    26   27    3 1
    27   28    5 1
    28   29    5 1
    29   30    6 1
    30   31    7 1
    31   32    8 1
    32   33    8 1
    33   34    9 1
    34   35   12 1
    35   36   12 1
    36   37   12 1
    37   38   13 1
    38   39   13 1
    39   40   13 1
    40   41   14 1
    41   42   14 1
    42   43   14 1
    43   44   15 1
    44   45   15 1
    45   46   15 1
    46   16   22 1
@<TRIPOS>SUBSTRUCTURE
     1 RES1 1

@<TRIPOS>CRYSIN
   7.6650   11.9080   18.1700  90.0000  90.0000  90.0000  33 3

