# MOL2 file generated by ConQuest
# Please check atom types

@<TRIPOS>MOLECULE
BIZHAT
    45    45     1
SMALL
NO_CHARGES
****
Generated from CSD

@<TRIPOS>ATOM
      1 C1         3.4482    6.4528    8.0377 C.3       1 RES1    0.0000
      2 C2         2.9992    7.2999    6.8305 C.3       1 RES1    0.0000
      3 C3         3.7971    6.9981    5.5703 C.3       1 RES1    0.0000
      4 C4         3.0465    7.2526    4.2528 C.3       1 RES1    0.0000
      5 C5         2.0772    6.0711    3.9650 C.3       1 RES1    0.0000
      6 C6         2.6613    4.7169    4.1774 C.2       1 RES1    0.0000
      7 C7         2.1895    3.8299    5.0269 C.2       1 RES1    0.0000
      8 C8         2.9699    2.7193    7.0639 C.3       1 RES1    0.0000
      9 C9         3.5239    4.0535    7.4565 C.2       1 RES1    0.0000
     10 C10        2.8497    5.0750    7.9594 C.2       1 RES1    0.0000
     11 C11        2.8143    2.5611    5.5172 C.3       1 RES1    0.0000
     12 C12        1.9116    1.3506    5.2266 C.3       1 RES1    0.0000
     13 C13        4.1771    2.3176    4.8774 C.3       1 RES1    0.0000
     14 C14        2.2965    8.5686    4.1537 C.3       1 RES1    0.0000
     15 C15        1.4187    5.0059    8.3925 C.3       1 RES1    0.0000
     16 N1         4.0738    7.1908    3.1044 N.pl3     1 RES1    0.0000
     17 N2         5.0627    7.8252    5.6667 N.pl3     1 RES1    0.0000
     18 O1         5.0850    8.9558    5.2420 O.2       1 RES1    0.0000
     19 O2         6.0081    7.2981    6.2410 O.2       1 RES1    0.0000
     20 O3         5.1527    6.6582    3.3154 O.2       1 RES1    0.0000
     21 O4         3.7503    7.6416    2.0286 O.2       1 RES1    0.0000
     22 H1         3.1274    6.8891    8.9137 H         1 RES1    0.0000
     23 H2         4.4787    6.3874    8.0628 H         1 RES1    0.0000
     24 H3         3.0625    8.2287    6.9954 H         1 RES1    0.0000
     25 H4         2.1031    7.0981    6.6377 H         1 RES1    0.0000
     26 H5         4.1016    6.0820    5.5661 H         1 RES1    0.0000
     27 H6         1.3255    6.1856    4.5993 H         1 RES1    0.0000
     28 H7         1.8036    6.2238    3.0569 H         1 RES1    0.0000
     29 H8         3.5092    4.5061    3.7038 H         1 RES1    0.0000
     30 H9         1.3422    4.0535    5.4977 H         1 RES1    0.0000
     31 H10        3.5301    1.9940    7.3587 H         1 RES1    0.0000
     32 H11        2.0914    2.5357    7.5095 H         1 RES1    0.0000
     33 H12        4.4657    4.2316    7.2301 H         1 RES1    0.0000
     34 H13        1.8740    1.2324    4.1844 H         1 RES1    0.0000
     35 H14        2.2790    0.5599    5.6653 H         1 RES1    0.0000
     36 H15        1.0149    1.5341    5.6053 H         1 RES1    0.0000
     37 H16        4.5793    1.5069    5.2811 H         1 RES1    0.0000
     38 H17        4.8551    3.0810    5.0380 H         1 RES1    0.0000
     39 H18        4.1453    2.2358    3.8617 H         1 RES1    0.0000
     40 H19        2.8929    9.3521    4.2738 H         1 RES1    0.0000
     41 H20        1.5545    8.5668    4.8494 H         1 RES1    0.0000
     42 H21        1.8497    8.6104    3.3126 H         1 RES1    0.0000
     43 H22        1.0614    4.1698    8.3255 H         1 RES1    0.0000
     44 H23        0.9383    5.7021    7.9636 H         1 RES1    0.0000
     45 H24        1.3030    5.2786    9.2266 H         1 RES1    0.0000
@<TRIPOS>BOND
     1    1    2 1
     2    2    3 1
     3    3    4 1
     4    4    5 1
     5    5    6 1
     6    6    7 2
     7    7   11 1
     8    8    9 1
     9    9   10 2
    10   10    1 1
    11   11    8 1
    12   12   11 1
    13   13   11 1
    14   14    4 1
    15   15   10 1
    16   16    4 1
    17   17    3 1
    18   18   17 2
    19   19   17 2
    20   20   16 2
    21   21   16 2
    22   22    1 1
    23   23    1 1
    24   24    2 1
    25   25    2 1
    26   26    3 1
    27   27    5 1
    28   28    5 1
    29   29    6 1
    30   30    7 1
    31   31    8 1
    32   32    8 1
    33   33    9 1
    34   34   12 1
    35   35   12 1
    36   36   12 1
    37   37   13 1
    38   38   13 1
    39   39   13 1
    40   40   14 1
    41   41   14 1
    42   42   14 1
    43   43   15 1
    44   44   15 1
    45   45   15 1
@<TRIPOS>SUBSTRUCTURE
     1 RES1 1

@<TRIPOS>CRYSIN
   6.4220   18.1770   14.2180  90.0000 100.6900  90.0000 231 1

