# MOL2 file generated by ConQuest
# Please check atom types

@<TRIPOS>MOLECULE
BIZLEC
    66    66     1
SMALL
NO_CHARGES
****
Generated from CSD

@<TRIPOS>ATOM
      1 O1        -1.5911    2.2197    3.7684 O.2       1 RES1    0.0000
      2 N1        -1.6589    2.8527    2.7007 N.pl3     1 RES1    0.0000
      3 N2        -1.5511    4.3773    5.1635 N.3       1 RES1    0.0000
      4 H1        -1.5617    3.5334    5.1539 H         1 RES1    0.0000
      5 C1        -1.6589    4.2701    2.7007 C.ar      1 RES1    0.0000
      6 C2        -1.6032    4.9855    3.9569 C.ar      1 RES1    0.0000
      7 C3        -1.6027    6.3906    3.9083 C.ar      1 RES1    0.0000
      8 C4        -1.6589    7.0540    2.7007 C.ar      1 RES1    0.0000
      9 C5        -1.5130    5.1187    6.4141 C.3       1 RES1    0.0000
     10 C6        -1.4206    4.1879    7.6130 C.3       1 RES1    0.0000
     11 C7        -1.3325    4.9935    8.9091 C.3       1 RES1    0.0000
     12 C8        -1.1889    4.1286   10.1566 C.3       1 RES1    0.0000
     13 C9        -1.0667    4.9544   11.4359 C.3       1 RES1    0.0000
     14 C10       -0.9463    4.0933   12.6931 C.3       1 RES1    0.0000
     15 C11       -0.7665    4.9034   13.9723 C.3       1 RES1    0.0000
     16 C12       -0.7394    4.0288   15.2184 C.3       1 RES1    0.0000
     17 H2        -1.5918    6.8846    4.7186 H         1 RES1    0.0000
     18 H3        -1.6589    7.9956    2.7007 H         1 RES1    0.0000
     19 H4        -0.7074    5.7244    6.4168 H         1 RES1    0.0000
     20 H5        -2.3450    5.6780    6.4924 H         1 RES1    0.0000
     21 H6        -0.5923    3.6235    7.5176 H         1 RES1    0.0000
     22 H7        -2.2229    3.5916    7.6310 H         1 RES1    0.0000
     23 H8        -0.5238    5.6288    8.8593 H         1 RES1    0.0000
     24 H9        -2.1541    5.5614    8.9932 H         1 RES1    0.0000
     25 H10       -1.9682    3.5279   10.2139 H         1 RES1    0.0000
     26 H11       -0.3588    3.5607   10.0648 H         1 RES1    0.0000
     27 H12       -1.8628    5.5268   11.5059 H         1 RES1    0.0000
     28 H13       -0.2296    5.5232   11.3709 H         1 RES1    0.0000
     29 H14       -1.7520    3.5388   12.7752 H         1 RES1    0.0000
     30 H15       -0.1653    3.4833   12.5894 H         1 RES1    0.0000
     31 H16       -1.4858    5.5423   14.0478 H         1 RES1    0.0000
     32 H17        0.0942    5.4202   13.9009 H         1 RES1    0.0000
     33 H18       -1.5699    3.5434   15.3009 H         1 RES1    0.0000
     34 H19       -0.6303    4.5078   16.0528 H         1 RES1    0.0000
     35 H20        0.0171    3.4122   15.1777 H         1 RES1    0.0000
     36 O1B       -1.7266    2.2197    1.6329 O.2       1 RES1    0.0000
     37 N2B       -1.7666    4.3773    0.2379 N.pl3     1 RES1    0.0000
     38 H1B       -1.7560    3.5334    0.2474 H         1 RES1    0.0000
     39 C2B       -1.7145    4.9855    1.4444 C.ar      1 RES1    0.0000
     40 C3B       -1.7150    6.3906    1.4930 C.ar      1 RES1    0.0000
     41 C5B       -1.8048    5.1187   -1.0127 C.3       1 RES1    0.0000
     42 C6B       -1.8971    4.1879   -2.2116 C.3       1 RES1    0.0000
     43 C7B       -1.9852    4.9935   -3.5077 C.3       1 RES1    0.0000
     44 C8B       -2.1288    4.1286   -4.7552 C.3       1 RES1    0.0000
     45 C9B       -2.2511    4.9544   -6.0346 C.3       1 RES1    0.0000
     46 C10B      -2.3714    4.0933   -7.2918 C.3       1 RES1    0.0000
     47 C11B      -2.5512    4.9034   -8.5709 C.3       1 RES1    0.0000
     48 C12B      -2.5784    4.0288   -9.8170 C.3       1 RES1    0.0000
     49 H2B       -1.7259    6.8846    0.6827 H         1 RES1    0.0000
     50 H4B       -2.6103    5.7244   -1.0154 H         1 RES1    0.0000
     51 H5B       -0.9727    5.6780   -1.0911 H         1 RES1    0.0000
     52 H6B       -2.7254    3.6235   -2.1162 H         1 RES1    0.0000
     53 H7B       -1.0948    3.5916   -2.2297 H         1 RES1    0.0000
     54 H8B       -2.7939    5.6288   -3.4579 H         1 RES1    0.0000
     55 H9B       -1.1636    5.5614   -3.5919 H         1 RES1    0.0000
     56 H10B      -1.3495    3.5279   -4.8126 H         1 RES1    0.0000
     57 H11B      -2.9589    3.5607   -4.6635 H         1 RES1    0.0000
     58 H12B      -1.4550    5.5268   -6.1046 H         1 RES1    0.0000
     59 H13B      -3.0881    5.5232   -5.9695 H         1 RES1    0.0000
     60 H14B      -1.5657    3.5388   -7.3739 H         1 RES1    0.0000
     61 H15B      -3.1524    3.4833   -7.1881 H         1 RES1    0.0000
     62 H16B      -1.8319    5.5423   -8.6464 H         1 RES1    0.0000
     63 H17B      -3.4120    5.4202   -8.4995 H         1 RES1    0.0000
     64 H18B      -1.7478    3.5434   -9.8996 H         1 RES1    0.0000
     65 H19B      -2.6874    4.5078  -10.6514 H         1 RES1    0.0000
     66 H20B      -3.3348    3.4122   -9.7764 H         1 RES1    0.0000
@<TRIPOS>BOND
     1    1    2 2
     2    2    5 1
     3    3    4 1
     4    5    6 ar
     5    6    3 1
     6    7    6 ar
     7    8    7 ar
     8    9    3 1
     9   10    9 1
    10   11   10 1
    11   12   11 1
    12   13   12 1
    13   14   13 1
    14   15   14 1
    15   16   15 1
    16   17    7 1
    17   18    8 1
    18   19    9 1
    19   20    9 1
    20   21   10 1
    21   22   10 1
    22   23   11 1
    23   24   11 1
    24   25   12 1
    25   26   12 1
    26   27   13 1
    27   28   13 1
    28   29   14 1
    29   30   14 1
    30   31   15 1
    31   32   15 1
    32   33   16 1
    33   34   16 1
    34   35   16 1
    35   36    2 2
    36   37   38 1
    37   39    5 ar
    38   40    8 ar
    39   41   37 1
    40   42   41 1
    41   43   42 1
    42   44   43 1
    43   45   44 1
    44   46   45 1
    45   47   46 1
    46   48   47 1
    47   49   40 1
    48   50   41 1
    49   51   41 1
    50   52   42 1
    51   53   42 1
    52   54   43 1
    53   55   43 1
    54   56   44 1
    55   57   44 1
    56   58   45 1
    57   59   45 1
    58   60   46 1
    59   61   46 1
    60   62   47 1
    61   63   47 1
    62   64   48 1
    63   65   48 1
    64   66   48 1
    65   37   39 1
    66   39   40 ar
@<TRIPOS>SUBSTRUCTURE
     1 RES1 1

@<TRIPOS>CRYSIN
  21.5603    9.1066   12.6778  90.0000 121.5600  90.0000  15 1

