# MOL2 file generated by ConQuest
# Please check atom types

@<TRIPOS>MOLECULE
BIZLAY
    30    30     1
SMALL
NO_CHARGES
****
Generated from CSD

@<TRIPOS>ATOM
      1 O1         2.6183    4.6668    9.2191 O.2       1 RES1    0.0000
      2 N1         1.9179    4.0280    8.4136 N.pl3     1 RES1    0.0000
      3 N2         3.7114    2.5144   10.0892 N.3       1 RES1    0.0000
      4 C1         1.9179    2.6131    8.4136 C.ar      1 RES1    0.0000
      5 C2         2.8394    1.8952    9.2683 C.ar      1 RES1    0.0000
      6 C3         2.8119    0.4952    9.2238 C.ar      1 RES1    0.0000
      7 C4         1.9179   -0.1740    8.4136 C.ar      1 RES1    0.0000
      8 C5         4.6246    1.8109   10.9721 C.3       1 RES1    0.0000
      9 C6         5.3999    2.7989   11.8133 C.3       1 RES1    0.0000
     10 H1         3.6884    3.3601   10.1176 H         1 RES1    0.0000
     11 H2         3.4222    0.0333    9.7261 H         1 RES1    0.0000
     12 H3         1.9179   -1.1108    8.4136 H         1 RES1    0.0000
     13 H4         4.1035    1.2061   11.5670 H         1 RES1    0.0000
     14 H5         5.2416    1.2441   10.4586 H         1 RES1    0.0000
     15 H6         6.0138    2.3511   12.3904 H         1 RES1    0.0000
     16 H7         5.9067    3.4064   11.2349 H         1 RES1    0.0000
     17 H8         4.8128    3.3045   12.3489 H         1 RES1    0.0000
     18 O1A        1.2174    4.6668    7.6080 O.2       1 RES1    0.0000
     19 N2A        0.1244    2.5144    6.7379 N.3       1 RES1    0.0000
     20 C2A        0.9964    1.8952    7.5589 C.ar      1 RES1    0.0000
     21 C3A        1.0238    0.4952    7.6033 C.ar      1 RES1    0.0000
     22 C5A       -0.7889    1.8109    5.8551 C.3       1 RES1    0.0000
     23 C6A       -1.5641    2.7989    5.0138 C.3       1 RES1    0.0000
     24 H1A        0.1473    3.3601    6.7095 H         1 RES1    0.0000
     25 H2A        0.4135    0.0333    7.1010 H         1 RES1    0.0000
     26 H4A       -0.2678    1.2061    5.2602 H         1 RES1    0.0000
     27 H5A       -1.4059    1.2441    6.3685 H         1 RES1    0.0000
     28 H6A       -2.1780    2.3511    4.4368 H         1 RES1    0.0000
     29 H7A       -2.0710    3.4064    5.5922 H         1 RES1    0.0000
     30 H8A       -0.9770    3.3045    4.4783 H         1 RES1    0.0000
@<TRIPOS>BOND
     1    1    2 2
     2    2    4 1
     3    3    5 1
     4    4    5 ar
     5    5    6 ar
     6    6    7 ar
     7    7   12 1
     8    8    3 1
     9    9    8 1
    10   10    3 1
    11   11    6 1
    12   13    8 1
    13   14    8 1
    14   15    9 1
    15   16    9 1
    16   17    9 1
    17   18    2 2
    18   19   20 1
    19   20    4 ar
    20   21    7 ar
    21   22   19 1
    22   23   22 1
    23   24   19 1
    24   25   21 1
    25   26   22 1
    26   27   22 1
    27   28   23 1
    28   29   23 1
    29   30   23 1
    30   20   21 ar
@<TRIPOS>SUBSTRUCTURE
     1 RES1 1

