# MOL2 file generated by ConQuest
# Please check atom types

@<TRIPOS>MOLECULE
BIZWIR
    42    43     1
SMALL
USER_CHARGES
****
Generated from CSD

@<TRIPOS>ATOM
      1 O1         5.6284    3.1355    7.5086 O.2       1 RES1   -1.0000
      2 O2         7.3140    1.8134    3.7979 O.3       1 RES1    0.0000
      3 N1         5.4199    2.0341    6.8673 N.pl3     1 RES1    1.0000
      4 C1         5.0584    2.0187    5.6247 C.2       1 RES1    0.0000
      5 C2         4.7724    3.1783    4.8038 C.ar      1 RES1    0.0000
      6 C3         4.3298    4.3772    5.3539 C.ar      1 RES1    0.0000
      7 C4         3.9750    5.4512    4.5525 C.ar      1 RES1    0.0000
      8 C5         4.0776    5.3340    3.1935 C.ar      1 RES1    0.0000
      9 C6         4.5103    4.1573    2.6257 C.ar      1 RES1    0.0000
     10 C7         4.8574    3.0551    3.4048 C.ar      1 RES1    0.0000
     11 C8         5.2354    1.7997    2.7272 C.ar      1 RES1    0.0000
     12 C9         4.3632    1.2049    1.8187 C.ar      1 RES1    0.0000
     13 C10        4.6773    0.0462    1.1588 C.ar      1 RES1    0.0000
     14 C11        5.8925   -0.5451    1.3878 C.ar      1 RES1    0.0000
     15 C12        6.7946    0.0171    2.2683 C.ar      1 RES1    0.0000
     16 C13        6.4701    1.1750    2.9329 C.ar      1 RES1    0.0000
     17 C14        8.5346    1.1655    4.1457 C.3       1 RES1    0.0000
     18 C15        5.6503    0.7873    7.6929 C.3       1 RES1    0.0000
     19 C16        5.3997   -0.4570    6.8943 C.3       1 RES1    0.0000
     20 C17        7.0510    0.8438    8.2262 C.3       1 RES1    0.0000
     21 C18        4.6536    0.8669    8.8350 C.3       1 RES1    0.0000
     22 H1         4.9738    1.1852    5.2217 H         1 RES1    0.0000
     23 H2         4.2707    4.4594    6.2781 H         1 RES1    0.0000
     24 H3         3.6695    6.2419    4.9350 H         1 RES1    0.0000
     25 H4         3.8527    6.0536    2.6499 H         1 RES1    0.0000
     26 H5         4.5734    4.0965    1.6996 H         1 RES1    0.0000
     27 H6         3.5409    1.6071    1.6549 H         1 RES1    0.0000
     28 H7         4.0735   -0.3337    0.5631 H         1 RES1    0.0000
     29 H8         6.1108   -1.3333    0.9457 H         1 RES1    0.0000
     30 H9         7.6195   -0.3868    2.4117 H         1 RES1    0.0000
     31 H10        8.3424    0.3089    4.5357 H         1 RES1    0.0000
     32 H11        9.0691    1.0457    3.3583 H         1 RES1    0.0000
     33 H12        9.0143    1.7047    4.7796 H         1 RES1    0.0000
     34 H13        5.9868   -0.4724    6.1338 H         1 RES1    0.0000
     35 H14        4.4882   -0.4672    6.5946 H         1 RES1    0.0000
     36 H15        5.5664   -1.2280    7.4416 H         1 RES1    0.0000
     37 H16        7.2088    1.7038    8.6218 H         1 RES1    0.0000
     38 H17        7.1692    0.1600    8.8890 H         1 RES1    0.0000
     39 H18        7.6733    0.7034    7.5077 H         1 RES1    0.0000
     40 H19        4.6318    0.0282    9.3013 H         1 RES1    0.0000
     41 H20        3.7803    1.0611    8.4859 H         1 RES1    0.0000
     42 H21        4.9177    1.5635    9.4418 H         1 RES1    0.0000
@<TRIPOS>BOND
     1    1    3 1
     2    2   16 1
     3    3    4 2
     4    4    5 1
     5    5    6 ar
     6    6    7 ar
     7    7    8 ar
     8    8    9 ar
     9    9   10 ar
    10   10    5 ar
    11   11   10 1
    12   12   11 ar
    13   13   12 ar
    14   14   13 ar
    15   15   14 ar
    16   16   11 ar
    17   17    2 1
    18   18    3 1
    19   19   18 1
    20   20   18 1
    21   21   18 1
    22   22    4 1
    23   23    6 1
    24   24    7 1
    25   25    8 1
    26   26    9 1
    27   27   12 1
    28   28   13 1
    29   29   14 1
    30   30   15 1
    31   31   17 1
    32   32   17 1
    33   33   17 1
    34   34   19 1
    35   35   19 1
    36   36   19 1
    37   37   20 1
    38   38   20 1
    39   39   20 1
    40   40   21 1
    41   41   21 1
    42   42   21 1
    43   15   16 ar
@<TRIPOS>SUBSTRUCTURE
     1 RES1 1

@<TRIPOS>CRYSIN
  10.2526    8.5576   10.3333  90.0000 115.7420  90.0000   4 1

