# MOL2 file generated by ConQuest
# Please check atom types

@<TRIPOS>MOLECULE
BOBMAG01
    40    42     1
SMALL
NO_CHARGES
****
Generated from CSD

@<TRIPOS>ATOM
      1 O1         1.2779    3.0783   -0.2996 O.2       1 RES1    0.0000
      2 O2         2.6048    4.7064   -0.7361 O.2       1 RES1    0.0000
      3 O3         0.6852   13.0660    5.4135 O.2       1 RES1    0.0000
      4 N1         0.0000    6.8627    4.5860 N.pl3     1 RES1    0.0000
      5 N2         1.7604    4.1702   -0.0387 N.pl3     1 RES1    0.0000
      6 N3         0.0000   12.4903    4.5860 N.pl3     1 RES1    0.0000
      7 C1         0.4385    6.1796    3.4276 C.ar      1 RES1    0.0000
      8 C2        -0.1029    4.9418    3.0781 C.ar      1 RES1    0.0000
      9 H1        -0.7552    4.5552    3.6156 H         1 RES1    0.0000
     10 C3         0.3233    4.2890    1.9424 C.ar      1 RES1    0.0000
     11 H2        -0.0418    3.4660    1.7078 H         1 RES1    0.0000
     12 C4         1.2956    4.8702    1.1584 C.ar      1 RES1    0.0000
     13 C5         1.8497    6.0916    1.4791 C.ar      1 RES1    0.0000
     14 H3         2.5043    6.4703    0.9374 H         1 RES1    0.0000
     15 C6         1.4194    6.7413    2.6111 C.ar      1 RES1    0.0000
     16 H4         1.7878    7.5651    2.8360 H         1 RES1    0.0000
     17 C7         0.0000    8.2927    4.5860 C.ar      1 RES1    0.0000
     18 C8         0.4849    8.9828    5.6870 C.ar      1 RES1    0.0000
     19 H5         0.8147    8.5147    6.4204 H         1 RES1    0.0000
     20 C9         0.4769   10.3648    5.6962 C.ar      1 RES1    0.0000
     21 H6         0.7873   10.8371    6.4351 H         1 RES1    0.0000
     22 C10        0.0000   11.0281    4.5860 C.ar      1 RES1    0.0000
     23 O1B       -1.2779    3.0783    9.4716 O.2       1 RES1    0.0000
     24 O2B       -2.6048    4.7064    9.9081 O.2       1 RES1    0.0000
     25 O3B       -0.6852   13.0660    3.7585 O.2       1 RES1    0.0000
     26 N2B       -1.7604    4.1702    9.2107 N.pl3     1 RES1    0.0000
     27 C1B       -0.4385    6.1796    5.7444 C.ar      1 RES1    0.0000
     28 C2B        0.1029    4.9418    6.0939 C.ar      1 RES1    0.0000
     29 H1B        0.7552    4.5552    5.5564 H         1 RES1    0.0000
     30 C3B       -0.3233    4.2890    7.2296 C.ar      1 RES1    0.0000
     31 H2B        0.0418    3.4660    7.4642 H         1 RES1    0.0000
     32 C4B       -1.2956    4.8702    8.0136 C.ar      1 RES1    0.0000
     33 C5B       -1.8497    6.0916    7.6929 C.ar      1 RES1    0.0000
     34 H3B       -2.5043    6.4703    8.2346 H         1 RES1    0.0000
     35 C6B       -1.4194    6.7413    6.5609 C.ar      1 RES1    0.0000
     36 H4B       -1.7878    7.5651    6.3360 H         1 RES1    0.0000
     37 C8B       -0.4849    8.9828    3.4850 C.ar      1 RES1    0.0000
     38 H5B       -0.8147    8.5147    2.7516 H         1 RES1    0.0000
     39 C9B       -0.4769   10.3648    3.4758 C.ar      1 RES1    0.0000
     40 H6B       -0.7873   10.8371    2.7369 H         1 RES1    0.0000
@<TRIPOS>BOND
     1    1    5 2
     2    2    5 2
     3    3    6 2
     4    4    7 1
     5    5   12 1
     6    6   22 1
     7    7    8 ar
     8    8    9 1
     9   10    8 ar
    10   11   10 1
    11   12   10 ar
    12   13   12 ar
    13   14   13 1
    14   15    7 ar
    15   16   15 1
    16   17    4 1
    17   18   17 ar
    18   19   18 1
    19   20   18 ar
    20   21   20 1
    21   22   20 ar
    22   23   26 2
    23   24   26 2
    24   25    6 2
    25   26   32 1
    26   27    4 1
    27   28   27 ar
    28   29   28 1
    29   30   28 ar
    30   31   30 1
    31   32   30 ar
    32   33   32 ar
    33   34   33 1
    34   35   27 ar
    35   36   35 1
    36   37   17 ar
    37   38   37 1
    38   39   22 ar
    39   40   39 1
    40   13   15 ar
    41   33   35 ar
    42   37   39 ar
@<TRIPOS>SUBSTRUCTURE
     1 RES1 1

@<TRIPOS>CRYSIN
   8.0421   11.3454   18.3440  90.0000  90.0000  90.0000  60 1

