# MOL2 file generated by ConQuest
# Please check atom types

@<TRIPOS>MOLECULE
BOBZTZ
    27    29     1
SMALL
NO_CHARGES
****
Generated from CSD

@<TRIPOS>ATOM
      1 N1         3.6425    5.1261    2.8333 N.pl3     1 RES1    0.0000
      2 N2         3.3162    3.8089    2.9844 N.2       1 RES1    0.0000
      3 N3         4.2789    3.1490    2.4440 N.2       1 RES1    0.0000
      4 O1         2.7407    6.0807    3.2650 O.3       1 RES1    0.0000
      5 O2         1.7319    5.7847    1.2818 O.2       1 RES1    0.0000
      6 C1         6.4615    3.8266    1.2569 C.ar      1 RES1    0.0000
      7 C2         7.0714    4.9088    0.8534 C.ar      1 RES1    0.0000
      8 C3         6.6446    6.2151    1.0966 C.ar      1 RES1    0.0000
      9 C4         5.4879    6.4690    1.7716 C.ar      1 RES1    0.0000
     10 C5         4.7819    5.3379    2.1576 C.ar      1 RES1    0.0000
     11 C6         5.2228    4.0302    1.9384 C.ar      1 RES1    0.0000
     12 C7         1.7478    6.3563    2.2921 C.2       1 RES1    0.0000
     13 C8         0.8878    7.4114    2.7810 C.ar      1 RES1    0.0000
     14 C9         1.0530    8.0238    4.0039 C.ar      1 RES1    0.0000
     15 C10        0.1582    9.0165    4.4272 C.ar      1 RES1    0.0000
     16 C11       -0.8836    9.3668    3.5763 C.ar      1 RES1    0.0000
     17 C12       -1.0737    8.7680    2.3668 C.ar      1 RES1    0.0000
     18 C13       -0.1882    7.7685    1.9650 C.ar      1 RES1    0.0000
     19 H1         6.8664    2.8407    1.0809 H         1 RES1    0.0000
     20 H2         7.9829    4.7785    0.2897 H         1 RES1    0.0000
     21 H3         7.2363    7.0461    0.7438 H         1 RES1    0.0000
     22 H4         5.1421    7.4807    1.9857 H         1 RES1    0.0000
     23 H5         1.8743    7.7360    4.6431 H         1 RES1    0.0000
     24 H6         0.2781    9.5039    5.3836 H         1 RES1    0.0000
     25 H7        -1.5827   10.1408    3.8802 H         1 RES1    0.0000
     26 H8        -1.8949    9.0545    1.7259 H         1 RES1    0.0000
     27 H9        -0.3286    7.2675    1.0186 H         1 RES1    0.0000
@<TRIPOS>BOND
     1    1    2 1
     2    2    3 2
     3    3   11 1
     4    4    1 1
     5    5   12 2
     6    6    7 ar
     7    7    8 ar
     8    8    9 ar
     9    9   10 ar
    10   10    1 1
    11   11    6 ar
    12   12    4 1
    13   13   12 1
    14   14   13 ar
    15   15   14 ar
    16   16   15 ar
    17   17   16 ar
    18   18   13 ar
    19   19    6 1
    20   20    7 1
    21   21    8 1
    22   22    9 1
    23   23   14 1
    24   24   15 1
    25   25   16 1
    26   26   17 1
    27   27   18 1
    28   10   11 ar
    29   17   18 ar
@<TRIPOS>SUBSTRUCTURE
     1 RES1 1

@<TRIPOS>CRYSIN
  10.2900   13.5790    8.3400  90.0000  95.5000  90.0000  14 1

