# MOL2 file generated by ConQuest
# Please check atom types

@<TRIPOS>MOLECULE
BOCBIE
    28    30     1
SMALL
NO_CHARGES
****
Generated from CSD

@<TRIPOS>ATOM
      1 C1         5.2870    2.5237    2.5966 C.3       1 RES1    0.0000
      2 C2         5.0849    2.3398    4.0391 C.2       1 RES1    0.0000
      3 C3         4.7188    3.6183    4.7501 C.3       1 RES1    0.0000
      4 C4         4.4794    4.8649    3.8798 C.3       1 RES1    0.0000
      5 C5         5.6522    5.4962    3.1127 C.3       1 RES1    0.0000
      6 C6         6.1403    4.7667    1.8496 C.3       1 RES1    0.0000
      7 C7         6.4927    3.3609    2.2479 C.3       1 RES1    0.0000
      8 C8         7.7128    3.1827    3.1458 C.3       1 RES1    0.0000
      9 C9         8.1459    1.7689    2.9483 C.2       1 RES1    0.0000
     10 C10        7.3736    1.1281    2.1025 C.2       1 RES1    0.0000
     11 C11        6.2851    1.9900    1.6043 C.3       1 RES1    0.0000
     12 N1         5.2974    1.2174    4.5955 N.2       1 RES1    0.0000
     13 O1         5.1205    1.2885    6.0012 O.3       1 RES1    0.0000
     14 H1         4.4981    2.8389    2.1622 H         1 RES1    0.0000
     15 H2         5.4830    3.8183    5.3874 H         1 RES1    0.0000
     16 H3         3.9400    3.4669    5.2747 H         1 RES1    0.0000
     17 H4         4.1448    5.5604    4.5111 H         1 RES1    0.0000
     18 H5         3.7793    4.6720    3.2210 H         1 RES1    0.0000
     19 H6         5.3988    6.3713    2.8537 H         1 RES1    0.0000
     20 H7         6.3949    5.5873    3.7376 H         1 RES1    0.0000
     21 H8         5.3725    4.7602    1.1398 H         1 RES1    0.0000
     22 H9         6.9426    5.2214    1.4809 H         1 RES1    0.0000
     23 H10        8.4187    3.8113    2.8554 H         1 RES1    0.0000
     24 H11        7.5280    3.3428    4.1179 H         1 RES1    0.0000
     25 H12        8.8982    1.3624    3.4357 H         1 RES1    0.0000
     26 H13        7.4841    0.1851    1.8350 H         1 RES1    0.0000
     27 H14        5.9341    1.8701    0.6819 H         1 RES1    0.0000
     28 H15        5.4156    0.4457    6.2656 H         1 RES1    0.0000
@<TRIPOS>BOND
     1    1    2 1
     2    2    3 1
     3    3    4 1
     4    4    5 1
     5    5    6 1
     6    6    7 1
     7    7    1 1
     8    8    7 1
     9    9    8 1
    10   10    9 2
    11   11    1 1
    12   12    2 2
    13   13   12 1
    14   14    1 1
    15   15    3 1
    16   16    3 1
    17   17    4 1
    18   18    4 1
    19   19    5 1
    20   20    5 1
    21   21    6 1
    22   22    6 1
    23   23    8 1
    24   24    8 1
    25   25    9 1
    26   26   10 1
    27   27   11 1
    28   28   13 1
    29    7   11 1
    30   10   11 1
@<TRIPOS>SUBSTRUCTURE
     1 RES1 1

@<TRIPOS>CRYSIN
   6.9020   13.1820   10.7220  90.0000 101.4400  90.0000 231 1

