# MOL2 file generated by ConQuest
# Please check atom types

@<TRIPOS>MOLECULE
BOCPIS
    32    32     1
SMALL
NO_CHARGES
****
Generated from CSD

@<TRIPOS>ATOM
      1 O1         2.0918    9.2512    2.2240 O.2       1 RES1    0.0000
      2 O2         1.0591    7.9397    1.1161 O.2       1 RES1    0.0000
      3 O3         5.6047    8.0354   -3.4055 O.2       1 RES1    0.0000
      4 O4         3.6966    7.0391   -3.6219 O.2       1 RES1    0.0000
      5 O5         6.1184    5.9757    1.2828 O.3       1 RES1    0.0000
      6 N1         2.1478    8.4564    1.3366 N.pl3     1 RES1    0.0000
      7 N2         4.5668    7.5747   -2.9591 N.pl3     1 RES1    0.0000
      8 C1         5.2482    6.6769    0.5250 C.ar      1 RES1    0.0000
      9 C2         4.1854    7.2515    1.1843 C.ar      1 RES1    0.0000
     10 C3         3.2757    8.0054    0.4871 C.ar      1 RES1    0.0000
     11 C4         3.3150    8.2836   -0.8881 C.ar      1 RES1    0.0000
     12 C5         4.3769    7.6024   -1.4820 C.ar      1 RES1    0.0000
     13 C6         5.3300    6.8409   -0.8336 C.ar      1 RES1    0.0000
     14 C7         2.3663    9.2743   -1.6039 C.3       1 RES1    0.0000
     15 C8         3.0641    9.9508   -2.7972 C.3       1 RES1    0.0000
     16 C9         1.9828   10.4325   -0.6766 C.3       1 RES1    0.0000
     17 C10        1.1045    8.5653   -2.0889 C.3       1 RES1    0.0000
     18 C11        7.2720    5.4410    0.6504 C.3       1 RES1    0.0000
     19 H1         4.0890    7.1493    2.0944 H         1 RES1    0.0000
     20 H2         5.9476    6.4834   -1.3021 H         1 RES1    0.0000
     21 H3         3.9688   10.2756   -2.5492 H         1 RES1    0.0000
     22 H4         3.1422    9.4067   -3.5619 H         1 RES1    0.0000
     23 H5         2.4995   10.6572   -3.0659 H         1 RES1    0.0000
     24 H6         2.7823   10.7960   -0.2480 H         1 RES1    0.0000
     25 H7         1.5405   11.1225   -1.2057 H         1 RES1    0.0000
     26 H8         1.3512   10.1772    0.0276 H         1 RES1    0.0000
     27 H9         1.3361    7.8452   -2.6869 H         1 RES1    0.0000
     28 H10        0.6309    8.1588   -1.3297 H         1 RES1    0.0000
     29 H11        0.5449    9.1906   -2.5009 H         1 RES1    0.0000
     30 H12        7.7309    6.1268    0.2067 H         1 RES1    0.0000
     31 H13        7.0482    4.8841   -0.0827 H         1 RES1    0.0000
     32 H14        7.7245    5.0193    1.3641 H         1 RES1    0.0000
@<TRIPOS>BOND
     1    1    6 2
     2    2    6 2
     3    3    7 2
     4    4    7 2
     5    5    8 1
     6    6   10 1
     7    7   12 1
     8    8    9 ar
     9    9   10 ar
    10   10   11 ar
    11   11   12 ar
    12   12   13 ar
    13   13    8 ar
    14   14   11 1
    15   15   14 1
    16   16   14 1
    17   17   14 1
    18   18    5 1
    19   19    9 1
    20   20   13 1
    21   21   15 1
    22   22   15 1
    23   23   15 1
    24   24   16 1
    25   25   16 1
    26   26   16 1
    27   27   17 1
    28   28   17 1
    29   29   17 1
    30   30   18 1
    31   31   18 1
    32   32   18 1
@<TRIPOS>SUBSTRUCTURE
     1 RES1 1

@<TRIPOS>CRYSIN
   8.8870   10.1480    8.0240 110.4900 112.1500  89.5800   2 1

