# MOL2 file generated by ConQuest
# Please check atom types

@<TRIPOS>MOLECULE
BOCROA
    36    37     1
SMALL
NO_CHARGES
****
Generated from CSD

@<TRIPOS>ATOM
      1 N1         1.8814    4.5014   -2.7746 N.pl3     1 RES1    0.0000
      2 O1         1.7014    3.2914   -2.7907 O.2       1 RES1    0.0000
      3 O2         2.3705    5.1307   -3.7124 O.2       1 RES1    0.0000
      4 C1         1.4616    5.2409   -1.5804 C.ar      1 RES1    0.0000
      5 C2         1.0317    4.5529   -0.4678 C.ar      1 RES1    0.0000
      6 C3         0.6072    5.2556    0.6367 C.ar      1 RES1    0.0000
      7 C4         0.6088    6.6466    0.6096 C.ar      1 RES1    0.0000
      8 C5         1.0520    7.3296   -0.5134 C.ar      1 RES1    0.0000
      9 C6         1.4754    6.6209   -1.6135 C.ar      1 RES1    0.0000
     10 N2         0.1598    7.3287    1.7530 N.3       1 RES1    0.0000
     11 N3         0.2651    8.6381    1.7809 N.2       1 RES1    0.0000
     12 C7        -0.1391    9.3346    2.8128 C.2       1 RES1    0.0000
     13 C8         0.0613   10.8076    2.6762 C.2       1 RES1    0.0000
     14 C9        -0.4557   11.6680    3.7939 C.3       1 RES1    0.0000
     15 C10       -0.3851   11.0378    5.1805 C.3       1 RES1    0.0000
     16 C11       -1.1592    9.7026    5.1386 C.3       1 RES1    0.0000
     17 C12       -0.7528    8.7717    4.0209 C.2       1 RES1    0.0000
     18 O3         0.6034   11.2802    1.7104 O.2       1 RES1    0.0000
     19 C13        1.0628   10.7794    5.5903 C.3       1 RES1    0.0000
     20 C14       -1.0547   11.9713    6.1947 C.3       1 RES1    0.0000
     21 O4        -0.9571    7.5625    4.1208 O.2       1 RES1    0.0000
     22 H1         1.0270    3.6033   -0.4634 H         1 RES1    0.0000
     23 H2         0.3149    4.7958    1.4145 H         1 RES1    0.0000
     24 H3         1.0643    8.2784   -0.5214 H         1 RES1    0.0000
     25 H4         1.7742    7.0768   -2.3920 H         1 RES1    0.0000
     26 H5        -0.0946    6.8847    2.4801 H         1 RES1    0.0000
     27 H6         0.0506   12.4723    3.8086 H         1 RES1    0.0000
     28 H7        -1.3650   11.8708    3.6081 H         1 RES1    0.0000
     29 H8        -2.0834    9.8980    5.0358 H         1 RES1    0.0000
     30 H9        -1.0213    9.2529    5.9641 H         1 RES1    0.0000
     31 H10        1.5254   10.2383    4.9609 H         1 RES1    0.0000
     32 H11        1.0551   10.3466    6.4356 H         1 RES1    0.0000
     33 H12        1.5018   11.6180    5.6682 H         1 RES1    0.0000
     34 H13       -0.9939   11.6182    7.0753 H         1 RES1    0.0000
     35 H14       -1.9692   12.0603    5.9524 H         1 RES1    0.0000
     36 H15       -0.6344   12.8223    6.1653 H         1 RES1    0.0000
@<TRIPOS>BOND
     1    1    2 2
     2    3    1 2
     3    4    1 1
     4    5    4 ar
     5    6    5 ar
     6    7    6 ar
     7    8    7 ar
     8    9    4 ar
     9   10    7 1
    10   11   10 1
    11   12   11 2
    12   13   12 1
    13   14   13 1
    14   15   14 1
    15   16   15 1
    16   17   12 1
    17   18   13 2
    18   19   15 1
    19   20   15 1
    20   21   17 2
    21   22    5 1
    22   23    6 1
    23   24    8 1
    24   25    9 1
    25   26   10 1
    26   27   14 1
    27   28   14 1
    28   29   16 1
    29   30   16 1
    30   31   19 1
    31   32   19 1
    32   33   19 1
    33   34   20 1
    34   35   20 1
    35   36   20 1
    36    8    9 ar
    37   16   17 1
@<TRIPOS>SUBSTRUCTURE
     1 RES1 1

@<TRIPOS>CRYSIN
   7.2000   13.4500    7.4500  97.9700  94.2400  98.2900   2 1

