# MOL2 file generated by ConQuest
# Please check atom types

@<TRIPOS>MOLECULE
BOCYOI
    27    28     1
SMALL
NO_CHARGES
****
Generated from CSD

@<TRIPOS>ATOM
      1 O1        -0.3607    0.1283    2.9799 O.2       1 RES1    0.0000
      2 O2         3.6040   -5.4943   -1.7343 O.2       1 RES1    0.0000
      3 O3         2.9691   -3.9343   -3.0689 O.2       1 RES1    0.0000
      4 N1         0.9481   -1.5071    2.3862 N.pl3     1 RES1    0.0000
      5 N2         0.1200   -0.4980    2.0367 N.2       1 RES1    0.0000
      6 N3         3.0715   -4.4015   -1.9420 N.pl3     1 RES1    0.0000
      7 C1         1.5014   -2.2303    1.2998 C.ar      1 RES1    0.0000
      8 C2         1.3999   -1.7522    0.0079 C.ar      1 RES1    0.0000
      9 H1         0.9738   -0.9399   -0.1449 H         1 RES1    0.0000
     10 C3         1.9160   -2.4536   -1.0570 C.ar      1 RES1    0.0000
     11 H2         1.8643   -2.1122   -1.9205 H         1 RES1    0.0000
     12 C4         2.5141   -3.6790   -0.8159 C.ar      1 RES1    0.0000
     13 C5         2.6417   -4.1667    0.4591 C.ar      1 RES1    0.0000
     14 H3         3.0734   -4.9765    0.6051 H         1 RES1    0.0000
     15 C6         2.1287   -3.4556    1.5259 C.ar      1 RES1    0.0000
     16 H4         2.2014   -3.7909    2.3902 H         1 RES1    0.0000
     17 C7         1.1898   -1.7931    3.7829 C.ar      1 RES1    0.0000
     18 C8         0.4862   -2.8125    4.4009 C.ar      1 RES1    0.0000
     19 H5        -0.1090   -3.3412    3.9205 H         1 RES1    0.0000
     20 C9         0.6917   -3.0214    5.7467 C.ar      1 RES1    0.0000
     21 H6         0.2337   -3.7085    6.1752 H         1 RES1    0.0000
     22 C10        1.5529   -2.2435    6.4668 C.ar      1 RES1    0.0000
     23 H7         1.6730   -2.3964    7.3761 H         1 RES1    0.0000
     24 C11        2.2369   -1.2404    5.8427 C.ar      1 RES1    0.0000
     25 H8         2.8152   -0.6985    6.3294 H         1 RES1    0.0000
     26 C12        2.0713   -1.0314    4.4876 C.ar      1 RES1    0.0000
     27 H9         2.5622   -0.3697    4.0560 H         1 RES1    0.0000
@<TRIPOS>BOND
     1    1    5 2
     2    2    6 2
     3    3    6 2
     4    4    5 1
     5    6   12 1
     6    7    4 1
     7    8    7 ar
     8    9    8 1
     9   10    8 ar
    10   11   10 1
    11   12   10 ar
    12   13   12 ar
    13   14   13 1
    14   15    7 ar
    15   16   15 1
    16   17    4 1
    17   18   17 ar
    18   19   18 1
    19   20   18 ar
    20   21   20 1
    21   22   20 ar
    22   23   22 1
    23   24   22 ar
    24   25   24 1
    25   26   17 ar
    26   27   26 1
    27   13   15 ar
    28   24   26 ar
@<TRIPOS>SUBSTRUCTURE
     1 RES1 1

@<TRIPOS>CRYSIN
   8.1250    6.0212   23.4900  90.0000  95.9300  90.0000  14 1

