# MOL2 file generated by ConQuest
# Please check atom types

@<TRIPOS>MOLECULE
BODMAI
    34    36     1
SMALL
NO_CHARGES
****
Generated from CSD

@<TRIPOS>ATOM
      1 O1        -0.2021    1.2181    5.2676 O.3       1 RES1    0.0000
      2 O2         1.8648   -3.5194    8.5739 O.2       1 RES1    0.0000
      3 O3         3.4374   -2.1254    9.0062 O.2       1 RES1    0.0000
      4 N1        -0.9403   -0.9306    5.0851 N.2       1 RES1    0.0000
      5 N2         2.3974   -2.4306    8.4490 N.pl3     1 RES1    0.0000
      6 N3        -1.9949    0.8412    3.8891 N.3       1 RES1    0.0000
      7 C1         0.1263   -0.8757    5.9977 C.ar      1 RES1    0.0000
      8 C2         0.7222   -1.8593    6.7614 C.ar      1 RES1    0.0000
      9 C3         1.7623   -1.4517    7.5796 C.ar      1 RES1    0.0000
     10 C4         2.2118   -0.1433    7.6244 C.ar      1 RES1    0.0000
     11 C5         1.6137    0.8515    6.8783 C.ar      1 RES1    0.0000
     12 C6         0.5788    0.4439    6.0906 C.ar      1 RES1    0.0000
     13 C7        -1.0946    0.3136    4.7120 C.2       1 RES1    0.0000
     14 C8        -3.1215    0.0605    3.3735 C.3       1 RES1    0.0000
     15 C9        -3.7330    0.7873    2.1903 C.3       1 RES1    0.0000
     16 C10       -4.9435    0.0540    1.6331 C.3       1 RES1    0.0000
     17 C11       -5.9786   -0.2196    2.7203 C.3       1 RES1    0.0000
     18 C12       -5.3420   -0.9697    3.8731 C.3       1 RES1    0.0000
     19 C13       -4.1658   -0.1926    4.4527 C.3       1 RES1    0.0000
     20 H1         0.4178   -2.7452    6.6926 H         1 RES1    0.0000
     21 H2        -1.9599    1.6843    3.6825 H         1 RES1    0.0000
     22 H3         2.5150   -0.0465    8.1656 H         1 RES1    0.0000
     23 H4         1.9134    1.7309    6.8847 H         1 RES1    0.0000
     24 H5        -2.7284   -0.7724    3.0901 H         1 RES1    0.0000
     25 H6        -3.9997    1.7495    2.5457 H         1 RES1    0.0000
     26 H7        -3.0775    0.9399    1.6331 H         1 RES1    0.0000
     27 H8        -5.3564    0.5304    0.7365 H         1 RES1    0.0000
     28 H9        -4.6801   -0.7631    1.3609 H         1 RES1    0.0000
     29 H10       -6.3187    0.5956    3.0101 H         1 RES1    0.0000
     30 H11       -6.7638   -0.7351    2.3536 H         1 RES1    0.0000
     31 H12       -5.0407   -1.9170    3.4904 H         1 RES1    0.0000
     32 H13       -5.9640   -1.1446    4.5471 H         1 RES1    0.0000
     33 H14       -3.7029   -0.6886    5.2356 H         1 RES1    0.0000
     34 H15       -4.4698    0.7165    4.6912 H         1 RES1    0.0000
@<TRIPOS>BOND
     1    1   12 1
     2    2    5 2
     3    3    5 2
     4    4    7 1
     5    5    9 1
     6    6   13 1
     7    7    8 ar
     8    8    9 ar
     9    9   10 ar
    10   10   11 ar
    11   11   12 ar
    12   12    7 ar
    13   13    1 1
    14   14    6 1
    15   15   14 1
    16   16   15 1
    17   17   16 1
    18   18   17 1
    19   19   14 1
    20   20    8 1
    21   21    6 1
    22   22   10 1
    23   23   11 1
    24   24   14 1
    25   25   15 1
    26   26   15 1
    27   27   16 1
    28   28   16 1
    29   29   17 1
    30   30   17 1
    31   31   18 1
    32   32   18 1
    33   33   19 1
    34   34   19 1
    35    4   13 2
    36   18   19 1
@<TRIPOS>SUBSTRUCTURE
     1 RES1 1

@<TRIPOS>CRYSIN
   8.5520    9.4880   16.0110  90.0000  90.0000 101.2500  14 3

