# MOL2 file generated by ConQuest
# Please check atom types

@<TRIPOS>MOLECULE
BODMEM
    34    35     1
SMALL
NO_CHARGES
****
Generated from CSD

@<TRIPOS>ATOM
      1 O1        10.3953    0.7521    0.9329 O.2       1 RES1    0.0000
      2 O2         8.0967    0.8004    1.9308 O.3       1 RES1    0.0000
      3 O3         6.8159    0.0276   -4.0930 O.2       1 RES1    0.0000
      4 O4         4.9705    0.7038   -3.4856 O.2       1 RES1    0.0000
      5 N1         6.1032    0.7107   -3.2542 N.pl3     1 RES1    0.0000
      6 C1         8.4988    0.8142   -0.4556 C.ar      1 RES1    0.0000
      7 C2         7.6030    0.7452    0.6725 C.ar      1 RES1    0.0000
      8 C3         6.2384    0.8418    0.4628 C.ar      1 RES1    0.0000
      9 C4         5.6872    0.8142   -0.7810 C.ar      1 RES1    0.0000
     10 C5         6.5649    0.7245   -1.8513 C.ar      1 RES1    0.0000
     11 C6         7.9632    0.7521   -1.7066 C.ar      1 RES1    0.0000
     12 C7         4.1342    0.7107   -0.8967 C.3       1 RES1    0.0000
     13 C8         9.9626    0.8073   -0.2242 C.2       1 RES1    0.0000
     14 C9        10.9667    0.6624   -1.3595 C.3       1 RES1    0.0000
     15 C10       11.6489    2.0976   -1.3812 C.3       1 RES1    0.0000
     16 C11       12.7963    2.0148   -2.5093 C.3       1 RES1    0.0000
     17 C12       13.7130    0.9522   -2.3068 C.3       1 RES1    0.0000
     18 C13       12.9672   -0.4623   -2.3358 C.3       1 RES1    0.0000
     19 C14       11.8811   -0.4416   -1.1498 C.3       1 RES1    0.0000
     20 H1        10.3234    0.6900   -2.0971 H         1 RES1    0.0000
     21 H2        11.4634    2.9670   -1.0847 H         1 RES1    0.0000
     22 H3        11.9220    2.0700   -0.4339 H         1 RES1    0.0000
     23 H4        12.2033    2.0010   -2.6033 H         1 RES1    0.0000
     24 H5        12.9107    2.8980   -2.7480 H         1 RES1    0.0000
     25 H6        12.5780   -1.3800   -2.5310 H         1 RES1    0.0000
     26 H7        12.5167   -0.4830   -3.1818 H         1 RES1    0.0000
     27 H8        14.1285    0.8970   -3.2542 H         1 RES1    0.0000
     28 H9        14.3349    0.8970   -1.3740 H         1 RES1    0.0000
     29 H10       12.2354    0.4830   -1.0124 H         1 RES1    0.0000
     30 H11       12.2514   -0.4140   -0.2169 H         1 RES1    0.0000
     31 H12        8.5825    0.7590   -2.4587 H         1 RES1    0.0000
     32 H13        3.7438    0.4830   -1.8079 H         1 RES1    0.0000
     33 H14        3.8697    1.5180   -0.9401 H         1 RES1    0.0000
     34 H15        3.6209    0.4830   -0.1446 H         1 RES1    0.0000
@<TRIPOS>BOND
     1    1   13 2
     2    2    7 1
     3    3    5 2
     4    4    5 2
     5    5   10 1
     6    6    7 ar
     7    7    8 ar
     8    8    9 ar
     9    9   10 ar
    10   10   11 ar
    11   11    6 ar
    12   12    9 1
    13   13    6 1
    14   14   13 1
    15   15   14 1
    16   16   15 1
    17   17   16 1
    18   18   17 1
    19   19   14 1
    20   20   14 1
    21   21   15 1
    22   22   15 1
    23   23   16 1
    24   24   16 1
    25   25   18 1
    26   26   18 1
    27   27   17 1
    28   28   17 1
    29   29   19 1
    30   30   19 1
    31   31   11 1
    32   32   12 1
    33   33   12 1
    34   34   12 1
    35   18   19 1
@<TRIPOS>SUBSTRUCTURE
     1 RES1 1

@<TRIPOS>CRYSIN
  13.2430    6.9000    7.5770  90.0000 107.3700  90.0000   4 1

