# MOL2 file generated by ConQuest
# Please check atom types

@<TRIPOS>MOLECULE
BOFDIJ
    24    25     1
SMALL
NO_CHARGES
****
Generated from CSD

@<TRIPOS>ATOM
      1 C1         9.8613    1.6845   -0.4068 C.2       1 RES1    0.0000
      2 C2         8.4428    1.6845   -0.3994 C.2       1 RES1    0.0000
      3 C3         8.0585    1.6845    0.8964 C.2       1 RES1    0.0000
      4 C4         6.7003    1.6845    1.4760 C.2       1 RES1    0.0000
      5 C5         5.4226    1.6845    3.4465 C.3       1 RES1    0.0000
      6 C6        10.8311    1.6845   -1.5141 C.ar      1 RES1    0.0000
      7 C7        12.1853    1.6845   -1.2503 C.ar      1 RES1    0.0000
      8 C8        13.1008    1.6845   -2.2632 C.ar      1 RES1    0.0000
      9 C9        12.6803    1.6845   -3.5631 C.ar      1 RES1    0.0000
     10 C10       11.3563    1.6845   -3.8509 C.ar      1 RES1    0.0000
     11 C11       10.4247    1.6845   -2.8421 C.ar      1 RES1    0.0000
     12 N1        10.2818    1.6845    0.8401 N.2       1 RES1    0.0000
     13 N2         7.5092    1.6845   -1.5273 N.pl3     1 RES1    0.0000
     14 O1         9.1490    1.6845    1.6637 O.3       1 RES1    0.0000
     15 O2         7.1591    0.5983   -1.9283 O.2       1 RES1    0.0000
     16 O3         5.7365    1.6845    0.7905 O.2       1 RES1    0.0000
     17 O4         6.7265    1.6845    2.7875 O.3       1 RES1    0.0000
     18 H1         5.6178    1.6845    4.3164 H         1 RES1    0.0000
     19 H2        12.4348    1.6845   -0.4631 H         1 RES1    0.0000
     20 H3        14.0847    1.6845   -2.0391 H         1 RES1    0.0000
     21 H4        13.3201    1.6845   -4.2552 H         1 RES1    0.0000
     22 H5        10.9680    1.6845   -4.8093 H         1 RES1    0.0000
     23 H6         9.4830    1.6845   -3.0339 H         1 RES1    0.0000
     24 O2G        7.1591    2.7707   -1.9283 O.2       1 RES1    0.0000
@<TRIPOS>BOND
     1    1    2 1
     2    2    3 2
     3    3    4 1
     4    4   16 2
     5    5   17 1
     6    6    1 1
     7    7    6 ar
     8    8    7 ar
     9    9    8 ar
    10   10    9 ar
    11   11    6 ar
    12   12    1 2
    13   13    2 1
    14   14    3 1
    15   15   13 2
    16   17    4 1
    17   18    5 1
    18   19    7 1
    19   20    8 1
    20   21    9 1
    21   22   10 1
    22   23   11 1
    23   24   13 2
    24   10   11 ar
    25   12   14 1
@<TRIPOS>SUBSTRUCTURE
     1 RES1 1

@<TRIPOS>CRYSIN
  20.1210    6.7380    8.2690  90.0000  90.0000  90.0000  62 1

