# MOL2 file generated by ConQuest
# Please check atom types

@<TRIPOS>MOLECULE
BOFSEU
    94    98     2
SMALL
NO_CHARGES
****
Generated from CSD

@<TRIPOS>ATOM
      1 O1        26.4628    1.8105    7.9729 O.2       1 RES1    0.0000
      2 C1        25.9385    2.4446    7.0933 C.2       1 RES1    0.0000
      3 O2        24.5760    2.5692    7.1174 O.3       1 RES1    0.0000
      4 C2        23.9722    3.5867    6.2224 C.3       1 RES1    0.0000
      5 C3        22.4787    3.4032    6.4596 C.3       1 RES1    0.0000
      6 O3        22.2443    3.9013    7.7445 O.3       1 RES1    0.0000
      7 C4        25.9941    3.5949    4.8376 C.3       1 RES1    0.0000
      8 N1        26.5859    3.0640    6.0719 N.am      1 RES1    0.0000
      9 C5        28.0278    3.1033    6.1719 C.ar      1 RES1    0.0000
     10 C6        28.8024    2.5036    5.2033 C.ar      1 RES1    0.0000
     11 C7        30.2086    2.5397    5.3175 C.ar      1 RES1    0.0000
     12 C8        30.7607    3.1934    6.4278 C.ar      1 RES1    0.0000
     13 C9        29.9702    3.8243    7.3755 C.ar      1 RES1    0.0000
     14 C10       28.5919    3.7948    7.2558 C.ar      1 RES1    0.0000
     15 O4        32.1192    3.2803    6.6880 O.3       1 RES1    0.0000
     16 C11       33.0209    2.6609    5.7732 C.3       1 RES1    0.0000
     17 C12       34.3913    2.7019    6.4223 C.ar      1 RES1    0.0000
     18 C13       34.5581    2.6298    7.8214 C.ar      1 RES1    0.0000
     19 C14       35.8253    2.6216    8.3683 C.ar      1 RES1    0.0000
     20 C15       36.9375    2.6658    7.5512 C.ar      1 RES1    0.0000
     21 C16       36.7429    2.7134    6.1807 C.ar      1 RES1    0.0000
     22 C17       35.4916    2.7379    5.5942 C.ar      1 RES1    0.0000
     23 C18       24.4529    3.4409    4.8848 C.3       1 RES1    0.0000
     24 C19       20.9097    3.7849    8.1366 C.3       1 RES1    0.0000
     25 N2        37.9107    2.7478    5.2812 N.pl3     1 RES1    0.0000
     26 O5        37.7081    2.8264    4.0798 O.2       1 RES1    0.0000
     27 O6        39.0189    2.6921    5.7875 O.2       1 RES1    0.0000
     28 H1        26.4151    4.6107    4.5520 H         1 RES1    0.0000
     29 H2        26.2999    2.9886    4.0018 H         1 RES1    0.0000
     30 H3        28.4807    2.1546    4.3851 H         1 RES1    0.0000
     31 H4        30.7488    2.1268    4.5444 H         1 RES1    0.0000
     32 H5        30.3039    4.3306    8.1464 H         1 RES1    0.0000
     33 H6        28.0556    4.1978    8.0267 H         1 RES1    0.0000
     34 H7        32.8024    1.6582    5.4756 H         1 RES1    0.0000
     35 H8        32.9653    3.2491    4.8156 H         1 RES1    0.0000
     36 H9        33.5651    2.6658    8.4682 H         1 RES1    0.0000
     37 H10       35.8412    2.5626    9.2611 H         1 RES1    0.0000
     38 H11       37.9266    2.7805    7.9729 H         1 RES1    0.0000
     39 H12       35.3724    2.8100    4.5224 H         1 RES1    0.0000
     40 H13       24.1152    4.0225    4.2006 H         1 RES1    0.0000
     41 H14       24.1549    2.4430    4.5400 H         1 RES1    0.0000
     42 H15       24.0239    4.6894    6.6738 H         1 RES1    0.0000
     43 H16       21.9980    3.9045    5.7974 H         1 RES1    0.0000
     44 H17       22.1132    2.5380    6.6639 H         1 RES1    0.0000
     45 H18       20.2781    4.4764    7.6149 H         1 RES1    0.0000
     46 H19       20.6316    2.7134    8.1168 H         1 RES1    0.0000
     47 H20       20.6713    4.1618    9.1370 H         1 RES1    0.0000
     48 O7        32.9812   -0.0901   -1.2179 O.2       2 RES2    0.0000
     49 C20       33.4141    0.4326   -0.2229 C.2       2 RES2    0.0000
     50 O8        34.7726    0.3900   -0.0351 O.3       2 RES2    0.0000
     51 C21       35.3566    0.7570    1.2706 C.3       2 RES2    0.0000
     52 C22       36.8422    0.7832    1.0916 C.3       2 RES2    0.0000
     53 O9        37.2354    1.9285    0.3130 O.3       2 RES2    0.0000
     54 C23       33.1877    1.6434    1.9823 C.3       2 RES2    0.0000
     55 N3        32.6674    1.0716    0.7160 N.am      2 RES2    0.0000
     56 C24       31.2135    1.0290    0.5864 C.ar      2 RES2    0.0000
     57 C25       30.6098    1.5386   -0.5645 C.ar      2 RES2    0.0000
     58 C26       29.2354    1.5140   -0.6512 C.ar      2 RES2    0.0000
     59 C27       28.4688    1.0454    0.4184 C.ar      2 RES2    0.0000
     60 C28       29.0686    0.5751    1.5902 C.ar      2 RES2    0.0000
     61 C29       30.4668    0.5686    1.6539 C.ar      2 RES2    0.0000
     62 O10       27.0944    1.0601    0.2120 O.3       2 RES2    0.0000
     63 C30       26.2721    0.8782    1.3541 C.3       2 RES2    0.0000
     64 C31       24.8143    0.8815    0.8808 C.ar      2 RES2    0.0000
     65 C32       24.4449    1.0355   -0.4700 C.ar      2 RES2    0.0000
     66 C33       23.1182    1.0224   -0.8269 C.ar      2 RES2    0.0000
     67 C34       22.1212    0.8995    0.1439 C.ar      2 RES2    0.0000
     68 C35       22.5383    0.7472    1.4738 C.ar      2 RES2    0.0000
     69 C36       23.8531    0.7537    1.8911 C.ar      2 RES2    0.0000
     70 C37       34.7289    1.9400    1.7549 C.3       2 RES2    0.0000
     71 C38       38.6614    1.9646    0.1790 C.3       2 RES2    0.0000
     72 N4        21.4697    0.6275    2.4885 N.pl3     2 RES2    0.0000
     73 O11       20.3536    0.3113    2.1503 O.2       2 RES2    0.0000
     74 O12       21.7994    0.8193    3.6515 O.2       2 RES2    0.0000
     75 H21       39.0864    2.2021    1.1992 H         2 RES2    0.0000
     76 H22       38.9991    1.0454   -0.3613 H         2 RES2    0.0000
     77 H23       39.0864    2.6298   -0.3844 H         2 RES2    0.0000
     78 H24       37.3585    0.8274    2.1602 H         2 RES2    0.0000
     79 H25       37.1679   -0.0213    0.6600 H         2 RES2    0.0000
     80 H26       35.1778   -0.0311    2.0009 H         2 RES2    0.0000
     81 H27       35.0904    2.6478    0.9664 H         2 RES2    0.0000
     82 H28       35.3049    2.2169    2.7422 H         2 RES2    0.0000
     83 H29       32.8223    2.4315    2.2919 H         2 RES2    0.0000
     84 H30       33.0487    0.9356    2.8191 H         2 RES2    0.0000
     85 H31       31.0666    2.0055   -1.3167 H         2 RES2    0.0000
     86 H32       28.6793    1.9433   -1.4353 H         2 RES2    0.0000
     87 H33       28.5681    0.2851    2.3908 H         2 RES2    0.0000
     88 H34       30.8958    0.1770    2.5456 H         2 RES2    0.0000
     89 H35       26.5065   -0.0082    1.9592 H         2 RES2    0.0000
     90 H36       26.4151    1.5844    2.2557 H         2 RES2    0.0000
     91 H37       25.1837    1.0798   -1.2970 H         2 RES2    0.0000
     92 H38       22.8838    1.1027   -1.8318 H         2 RES2    0.0000
     93 H39       21.0209    0.9012   -0.0835 H         2 RES2    0.0000
     94 H40       24.1271    0.6636    2.9706 H         2 RES2    0.0000
@<TRIPOS>BOND
     1    1    2 2
     2    2    3 1
     3    3    4 1
     4    4    5 1
     5    5    6 1
     6    6   24 1
     7    7    8 1
     8    8    2 1
     9    9    8 1
    10   10    9 ar
    11   11   10 ar
    12   12   11 ar
    13   13   12 ar
    14   14    9 ar
    15   15   12 1
    16   16   15 1
    17   17   16 1
    18   18   17 ar
    19   19   18 ar
    20   20   19 ar
    21   21   20 ar
    22   22   17 ar
    23   23    4 1
    24   24   45 1
    25   25   21 1
    26   26   25 2
    27   27   25 2
    28   28    7 1
    29   29    7 1
    30   30   10 1
    31   31   11 1
    32   32   13 1
    33   33   14 1
    34   34   16 1
    35   35   16 1
    36   36   18 1
    37   37   19 1
    38   38   20 1
    39   39   22 1
    40   40   23 1
    41   41   23 1
    42   42    4 1
    43   43    5 1
    44   44    5 1
    45   46   24 1
    46   47   24 1
    47   48   49 2
    48   49   50 1
    49   50   51 1
    50   51   52 1
    51   52   53 1
    52   53   71 1
    53   54   55 1
    54   55   49 1
    55   56   55 1
    56   57   56 ar
    57   58   57 ar
    58   59   58 ar
    59   60   59 ar
    60   61   56 ar
    61   62   59 1
    62   63   62 1
    63   64   63 1
    64   65   64 ar
    65   66   65 ar
    66   67   66 ar
    67   68   67 ar
    68   69   64 ar
    69   70   51 1
    70   71   75 1
    71   72   68 1
    72   73   72 2
    73   74   72 2
    74   76   71 1
    75   77   71 1
    76   78   52 1
    77   79   52 1
    78   80   51 1
    79   81   70 1
    80   82   70 1
    81   83   54 1
    82   84   54 1
    83   85   57 1
    84   86   58 1
    85   87   60 1
    86   88   61 1
    87   89   63 1
    88   90   63 1
    89   91   65 1
    90   92   66 1
    91   93   67 1
    92   94   69 1
    93    7   23 1
    94   13   14 ar
    95   21   22 ar
    96   54   70 1
    97   60   61 ar
    98   68   69 ar
@<TRIPOS>SUBSTRUCTURE
     1 RES1 1
     2 RES2 48

@<TRIPOS>CRYSIN
  39.7220   16.3850   10.9820  90.0000  90.0000  90.0000  61 1

