# MOL2 file generated by ConQuest
# Please check atom types

@<TRIPOS>MOLECULE
BOGFOU
    86    90     2
SMALL
NO_CHARGES
****
Generated from CSD

@<TRIPOS>ATOM
      1 O1         5.5068    1.6411    6.9338 O.3       1 RES1    0.0000
      2 H1         5.6928    2.3062    6.4569 H         1 RES1    0.0000
      3 O2         3.7260    3.4341    7.8475 O.3       1 RES1    0.0000
      4 O3         4.5822    1.6173   10.3751 O.3       1 RES1    0.0000
      5 O4         3.1992   -0.6724    9.4833 O.3       1 RES1    0.0000
      6 O5         2.8610    3.1224    9.9095 O.3       1 RES1    0.0000
      7 O6         3.5151   -1.9553    7.6458 O.3       1 RES1    0.0000
      8 C1         4.9647    0.9081    9.1851 C.3       1 RES1    0.0000
      9 H2         5.6549    0.2250    9.4252 H         1 RES1    0.0000
     10 C2         4.8511    3.2716    8.6873 C.3       1 RES1    0.0000
     11 H3         5.4376    4.0813    8.6989 H         1 RES1    0.0000
     12 C3         3.7875    0.2040    8.5133 C.3       1 RES1    0.0000
     13 H4         3.1185    0.8669    8.1787 H         1 RES1    0.0000
     14 C4         5.6235    1.9910    8.2925 C.3       1 RES1    0.0000
     15 C5         4.2625    2.9583   10.0740 C.3       1 RES1    0.0000
     16 H5         4.6215    3.5807   10.7693 H         1 RES1    0.0000
     17 C6         4.2257   -0.7450    7.3959 C.3       1 RES1    0.0000
     18 H6         3.9899   -0.3757    6.5097 H         1 RES1    0.0000
     19 H7         5.2037   -0.8987    7.4287 H         1 RES1    0.0000
     20 C7         2.6518    3.8462    8.6936 C.3       1 RES1    0.0000
     21 C8         2.6460   -1.7698    8.7760 C.3       1 RES1    0.0000
     22 C9         7.1016    2.2096    8.6609 C.3       1 RES1    0.0000
     23 H8         7.4112    3.0801    8.3028 H         1 RES1    0.0000
     24 H9         7.2035    2.2238    9.6443 H         1 RES1    0.0000
     25 N1         7.9208    1.1062    8.0839 N.pl3     1 RES1    0.0000
     26 O7         8.6250    1.3575    7.1155 O.2       1 RES1    0.0000
     27 O8         7.8342    0.0012    8.5867 O.2       1 RES1    0.0000
     28 C10        2.7100    5.3445    8.9488 C.3       1 RES1    0.0000
     29 H10        2.5703    5.8256    8.1074 H         1 RES1    0.0000
     30 H11        3.5882    5.5795    9.3169 H         1 RES1    0.0000
     31 H12        2.0105    5.5948    9.5889 H         1 RES1    0.0000
     32 C11        1.2420   -1.4864    8.2782 C.3       1 RES1    0.0000
     33 H13        0.9014   -2.2685    7.7958 H         1 RES1    0.0000
     34 H14        1.2585   -0.7138    7.6743 H         1 RES1    0.0000
     35 H15        0.6579   -1.2921    9.0396 H         1 RES1    0.0000
     36 C12        1.3507    3.4063    8.0625 C.3       1 RES1    0.0000
     37 H16        1.2080    3.9034    7.2306 H         1 RES1    0.0000
     38 H17        0.6113    3.5842    8.6804 H         1 RES1    0.0000
     39 H18        1.3904    2.4464    7.8671 H         1 RES1    0.0000
     40 C13        2.7071   -2.9879    9.6649 C.3       1 RES1    0.0000
     41 H19        2.3287   -3.7573    9.1901 H         1 RES1    0.0000
     42 H20        2.1929   -2.8221   10.4815 H         1 RES1    0.0000
     43 H21        3.6406   -3.1743    9.8979 H         1 RES1    0.0000
     44 O9         2.4959    1.1502   15.4439 O.3       2 RES2    0.0000
     45 O10        3.3011   -1.8138   15.9150 O.3       2 RES2    0.0000
     46 O11        5.0750    3.9981   13.1437 O.3       2 RES2    0.0000
     47 O12        5.1670   -0.3204   14.9083 O.3       2 RES2    0.0000
     48 H22        5.0999   -0.9529   15.4568 H         2 RES2    0.0000
     49 O13        1.5159   -0.5760   16.6444 O.3       2 RES2    0.0000
     50 O14        3.6079    3.5459   14.7805 O.3       2 RES2    0.0000
     51 C14        3.9702   -0.2038   14.1789 C.3       2 RES2    0.0000
     52 C15        3.3815    1.2285   14.3192 C.3       2 RES2    0.0000
     53 H23        2.8643    1.4641   13.4973 H         2 RES2    0.0000
     54 C16        2.8362   -1.0856   14.7903 C.3       2 RES2    0.0000
     55 H24        2.4209   -1.6843   14.1047 H         2 RES2    0.0000
     56 C17        4.3702    2.3391   14.6421 C.3       2 RES2    0.0000
     57 H25        4.8340    2.1343   15.5044 H         2 RES2    0.0000
     58 C18        4.3770    4.6106   14.2180 C.3       2 RES2    0.0000
     59 N2         4.9330   -1.8674   12.5662 N.pl3     2 RES2    0.0000
     60 C19        2.5994   -1.4012   17.1055 C.3       2 RES2    0.0000
     61 C20        4.2538   -0.5384   12.7175 C.3       2 RES2    0.0000
     62 H26        3.4019   -0.5489   12.2139 H         2 RES2    0.0000
     63 H27        4.8282    0.1673   12.3274 H         2 RES2    0.0000
     64 C21        1.8203   -0.0991   15.3744 C.3       2 RES2    0.0000
     65 H28        1.0023   -0.0389   14.8019 H         2 RES2    0.0000
     66 C22        5.4114    2.6785   13.5634 C.3       2 RES2    0.0000
     67 H29        6.3273    2.6502   13.9357 H         2 RES2    0.0000
     68 H30        5.3541    2.0424   12.8054 H         2 RES2    0.0000
     69 O15        5.7849   -1.9561   11.7182 O.2       2 RES2    0.0000
     70 C23        2.0211   -2.6219   17.7750 C.3       2 RES2    0.0000
     71 H31        1.5350   -2.3522   18.5810 H         2 RES2    0.0000
     72 H32        2.7459   -3.2344   18.0211 H         2 RES2    0.0000
     73 H33        1.4069   -3.0730   17.1575 H         2 RES2    0.0000
     74 C24        5.3580    5.1743   15.2284 C.3       2 RES2    0.0000
     75 H34        4.8651    5.5936   15.9639 H         2 RES2    0.0000
     76 H35        5.9266    5.8433   14.7940 H         2 RES2    0.0000
     77 H36        5.9169    4.4499   15.5810 H         2 RES2    0.0000
     78 C25        3.4242    5.6454   13.6777 C.3       2 RES2    0.0000
     79 H37        2.9429    6.0659   14.4216 H         2 RES2    0.0000
     80 H38        2.7819    5.2143   13.0748 H         2 RES2    0.0000
     81 H39        3.9268    6.3274   13.1857 H         2 RES2    0.0000
     82 C26        3.5426   -0.6089   17.9942 C.3       2 RES2    0.0000
     83 H40        3.0671   -0.3251   18.8028 H         2 RES2    0.0000
     84 H41        3.8628    0.1790   17.5088 H         2 RES2    0.0000
     85 H42        4.3043   -1.1720   18.2456 H         2 RES2    0.0000
     86 O16        4.6089   -2.7814   13.2586 O.2       2 RES2    0.0000
@<TRIPOS>BOND
     1    1    2 1
     2    3   10 1
     3    4    8 1
     4    5   12 1
     5    6   15 1
     6    7   17 1
     7    8    9 1
     8   10   11 1
     9   12    8 1
    10   13   12 1
    11   14    1 1
    12   15    4 1
    13   16   15 1
    14   17   12 1
    15   18   17 1
    16   19   17 1
    17   20    3 1
    18   21    5 1
    19   22   14 1
    20   23   22 1
    21   24   22 1
    22   25   22 1
    23   26   25 2
    24   27   25 2
    25   28   20 1
    26   29   28 1
    27   30   28 1
    28   31   28 1
    29   32   21 1
    30   33   32 1
    31   34   32 1
    32   35   32 1
    33   36   20 1
    34   37   36 1
    35   38   36 1
    36   39   36 1
    37   40   21 1
    38   41   40 1
    39   42   40 1
    40   43   40 1
    41   44   52 1
    42   45   54 1
    43   46   58 1
    44   47   48 1
    45   49   60 1
    46   50   56 1
    47   51   47 1
    48   52   51 1
    49   53   52 1
    50   54   51 1
    51   55   54 1
    52   56   52 1
    53   57   56 1
    54   58   50 1
    55   59   61 1
    56   60   45 1
    57   61   51 1
    58   62   61 1
    59   63   61 1
    60   64   44 1
    61   65   64 1
    62   66   46 1
    63   67   66 1
    64   68   66 1
    65   69   59 2
    66   70   60 1
    67   71   70 1
    68   72   70 1
    69   73   70 1
    70   74   58 1
    71   75   74 1
    72   76   74 1
    73   77   74 1
    74   78   58 1
    75   79   78 1
    76   80   78 1
    77   81   78 1
    78   82   60 1
    79   83   82 1
    80   84   82 1
    81   85   82 1
    82   86   59 2
    83    6   20 1
    84    7   21 1
    85    8   14 1
    86   10   14 1
    87   10   15 1
    88   49   64 1
    89   54   64 1
    90   56   66 1
@<TRIPOS>SUBSTRUCTURE
     1 RES1 1
     2 RES2 44

@<TRIPOS>CRYSIN
   9.7030   11.7785   26.4084  90.0000  90.0000  90.0000  19 1

