# MOL2 file generated by ConQuest
# Please check atom types

@<TRIPOS>MOLECULE
BOGNAM
    23    25     1
SMALL
NO_CHARGES
****
Generated from CSD

@<TRIPOS>ATOM
      1 C1        -2.9049    0.7342    3.8583 C.3       1 RES1    0.0000
      2 C2        -4.2423    1.4778    3.6011 C.3       1 RES1    0.0000
      3 C3        -3.9147    0.2705    2.8097 C.3       1 RES1    0.0000
      4 C4        -2.8573   -0.0618    5.0479 C.1       1 RES1    0.0000
      5 N1        -2.8307   -0.6969    5.9967 N.1       1 RES1    0.0000
      6 C5        -1.6212    1.3790    3.4309 C.ar      1 RES1    0.0000
      7 C6        -0.4986    1.3289    4.2540 C.ar      1 RES1    0.0000
      8 C7         0.6822    1.9397    3.8672 C.ar      1 RES1    0.0000
      9 C8         0.7323    2.5959    2.6643 C.ar      1 RES1    0.0000
     10 C9        -0.3565    2.6704    1.8317 C.ar      1 RES1    0.0000
     11 C10       -1.5313    2.0665    2.2178 C.ar      1 RES1    0.0000
     12 N2         1.9814    3.2417    2.2343 N.pl3     1 RES1    0.0000
     13 O1         2.9558    3.1486    2.9787 O.2       1 RES1    0.0000
     14 O2         2.0012    3.8377    1.1845 O.2       1 RES1    0.0000
     15 C11       -5.3517    1.4852    4.6020 C.ar      1 RES1    0.0000
     16 C12       -6.5495    0.8423    4.3283 C.ar      1 RES1    0.0000
     17 C13       -7.6380    0.9488    5.1533 C.ar      1 RES1    0.0000
     18 C14       -7.5944    1.7034    6.3225 C.ar      1 RES1    0.0000
     19 C15       -6.3647    2.3070    6.6261 C.ar      1 RES1    0.0000
     20 C16       -5.2909    2.1986    5.7757 C.ar      1 RES1    0.0000
     21 N3        -8.7097    1.8546    7.1253 N.3       1 RES1    0.0000
     22 C17       -8.6613    2.7006    8.2755 C.3       1 RES1    0.0000
     23 C18      -10.0222    1.4963    6.6223 C.3       1 RES1    0.0000
@<TRIPOS>BOND
     1    1    2 1
     2    2    3 1
     3    3    1 1
     4    4    1 1
     5    5    4 3
     6    6    1 1
     7    7    6 ar
     8    8    7 ar
     9    9    8 ar
    10   10    9 ar
    11   11    6 ar
    12   12    9 1
    13   13   12 2
    14   14   12 2
    15   15    2 1
    16   16   15 ar
    17   17   16 ar
    18   18   17 ar
    19   19   18 ar
    20   20   15 ar
    21   21   18 1
    22   22   21 1
    23   23   21 1
    24   10   11 ar
    25   19   20 ar
@<TRIPOS>SUBSTRUCTURE
     1 RES1 1

@<TRIPOS>CRYSIN
  14.5470    8.5210    6.4020  93.5900  96.3700  88.3000   2 1

