# MOL2 file generated by ConQuest
# Please check atom types

@<TRIPOS>MOLECULE
BOGNOA
    20    22     1
SMALL
NO_CHARGES
****
Generated from CSD

@<TRIPOS>ATOM
      1 C1         4.4353    1.7957    8.7321 C.3       1 RES1    0.0000
      2 C2         5.4120    1.3022    9.8184 C.3       1 RES1    0.0000
      3 C3         3.9654    0.9352    9.9058 C.3       1 RES1    0.0000
      4 C4         4.0105    3.1905    8.8407 C.1       1 RES1    0.0000
      5 N1         3.7027    4.2718    8.9387 N.1       1 RES1    0.0000
      6 C5         4.5370    1.2274    7.3412 C.ar      1 RES1    0.0000
      7 C6         4.4427    2.0379    6.2368 C.ar      1 RES1    0.0000
      8 C7         4.5527    1.5124    4.9566 C.ar      1 RES1    0.0000
      9 C8         4.7315    0.1585    4.8288 C.ar      1 RES1    0.0000
     10 C9         4.8362   -0.6912    5.9045 C.ar      1 RES1    0.0000
     11 C10        4.7162   -0.1407    7.1655 C.ar      1 RES1    0.0000
     12 N2         4.8016   -0.4275    3.4581 N.pl3     1 RES1    0.0000
     13 O1         4.9695   -1.6122    3.3708 O.2       1 RES1    0.0000
     14 O2         4.6756    0.3064    2.5220 O.2       1 RES1    0.0000
     15 C11        6.0656    2.2731   10.7631 C.ar      1 RES1    0.0000
     16 C12        7.3624    2.6721   10.5064 C.ar      1 RES1    0.0000
     17 C13        8.0443    3.5076   11.3840 C.ar      1 RES1    0.0000
     18 C14        7.4120    3.9725   12.5193 C.ar      1 RES1    0.0000
     19 C15        6.1073    3.5966   12.7696 C.ar      1 RES1    0.0000
     20 C16        5.4510    2.7540   11.9069 C.ar      1 RES1    0.0000
@<TRIPOS>BOND
     1    1    2 1
     2    2    3 1
     3    3    1 1
     4    4    1 1
     5    5    4 3
     6    6    1 1
     7    7    6 ar
     8    8    7 ar
     9    9    8 ar
    10   10    9 ar
    11   11    6 ar
    12   12    9 1
    13   13   12 2
    14   14   12 2
    15   15    2 1
    16   16   15 ar
    17   17   16 ar
    18   18   17 ar
    19   19   18 ar
    20   20   15 ar
    21   10   11 ar
    22   19   20 ar
@<TRIPOS>SUBSTRUCTURE
     1 RES1 1

@<TRIPOS>CRYSIN
   7.1520   17.8140   10.7170  90.0000  96.4000  90.0000  14 1

