# MOL2 file generated by ConQuest
# Please check atom types

@<TRIPOS>MOLECULE
BOGNUG
    21    23     1
SMALL
NO_CHARGES
****
Generated from CSD

@<TRIPOS>ATOM
      1 C1         5.8245    3.3652    5.3018 C.3       1 RES1    0.0000
      2 C2         5.5767    1.8883    4.9499 C.3       1 RES1    0.0000
      3 C3         4.6712    2.5594    5.9305 C.3       1 RES1    0.0000
      4 C4         6.9190    3.6444    6.1889 C.1       1 RES1    0.0000
      5 N1         7.8004    3.9040    6.8835 N.1       1 RES1    0.0000
      6 C5         5.5315    4.4722    4.3227 C.ar      1 RES1    0.0000
      7 C6         5.3968    5.7679    4.8119 C.ar      1 RES1    0.0000
      8 C7         5.1245    6.8235    3.9585 C.ar      1 RES1    0.0000
      9 C8         4.9661    6.5467    2.6007 C.ar      1 RES1    0.0000
     10 C9         5.0759    5.2780    2.1000 C.ar      1 RES1    0.0000
     11 C10        5.3734    4.2469    2.9756 C.ar      1 RES1    0.0000
     12 N2         4.6600    7.6586    1.6960 N.pl3     1 RES1    0.0000
     13 O1         4.7082    8.8000    2.1399 O.2       1 RES1    0.0000
     14 O2         4.3459    7.4039    0.5513 O.2       1 RES1    0.0000
     15 C11        6.5331    0.8180    5.3938 C.ar      1 RES1    0.0000
     16 C12        6.1104   -0.1886    6.2602 C.ar      1 RES1    0.0000
     17 C13        6.9757   -1.2173    6.6344 C.ar      1 RES1    0.0000
     18 C14        8.2551   -1.2466    6.1552 C.ar      1 RES1    0.0000
     19 C15        8.6938   -0.2621    5.3026 C.ar      1 RES1    0.0000
     20 C16        7.8276    0.7715    4.9108 C.ar      1 RES1    0.0000
     21 C17        3.2431    2.8950    5.5648 C.3       1 RES1    0.0000
@<TRIPOS>BOND
     1    1    2 1
     2    2    3 1
     3    3    1 1
     4    4    1 1
     5    5    4 3
     6    6    1 1
     7    7    6 ar
     8    8    7 ar
     9    9    8 ar
    10   10    9 ar
    11   11    6 ar
    12   12    9 1
    13   13   12 2
    14   14   12 2
    15   15    2 1
    16   16   15 ar
    17   17   16 ar
    18   18   17 ar
    19   19   18 ar
    20   20   15 ar
    21   21    3 1
    22   10   11 ar
    23   19   20 ar
@<TRIPOS>SUBSTRUCTURE
     1 RES1 1

@<TRIPOS>CRYSIN
   7.7830   24.4920    8.5010  90.0000 115.5900  90.0000  14 2

