# MOL2 file generated by ConQuest
# Please check atom types

@<TRIPOS>MOLECULE
BOGNEQ
    24    26     1
SMALL
NO_CHARGES
****
Generated from CSD

@<TRIPOS>ATOM
      1 C1         2.2542    2.3961   -0.6150 C.3       1 RES1    0.0000
      2 C2         3.6227    3.1356   -0.4950 C.3       1 RES1    0.0000
      3 C3         3.3647    2.0913   -1.6331 C.3       1 RES1    0.0000
      4 C4         2.0252    1.3369    0.3591 C.1       1 RES1    0.0000
      5 N1         1.8012    0.5280    1.1338 N.1       1 RES1    0.0000
      6 C5         1.0059    3.0812   -1.0888 C.ar      1 RES1    0.0000
      7 C6         0.8853    4.4606   -1.1991 C.ar      1 RES1    0.0000
      8 C7        -0.2573    5.0297   -1.7276 C.ar      1 RES1    0.0000
      9 C8        -1.2805    4.2131   -2.1281 C.ar      1 RES1    0.0000
     10 C9        -1.2001    2.8538   -1.9720 C.ar      1 RES1    0.0000
     11 C10       -0.0717    2.2994   -1.4690 C.ar      1 RES1    0.0000
     12 N2        -2.5013    4.8089   -2.6699 N.pl3     1 RES1    0.0000
     13 O1        -2.5245    5.9805   -2.8578 O.2       1 RES1    0.0000
     14 O2        -3.4370    4.0971   -2.9222 O.2       1 RES1    0.0000
     15 C11        4.5998    2.7801    0.5506 C.ar      1 RES1    0.0000
     16 C12        5.7294    2.0638    0.3547 C.ar      1 RES1    0.0000
     17 C13        6.6588    1.8416    1.3393 C.ar      1 RES1    0.0000
     18 C14        6.4908    2.3355    2.5984 C.ar      1 RES1    0.0000
     19 C15        5.3225    3.0663    2.8322 C.ar      1 RES1    0.0000
     20 C16        4.3914    3.2862    1.8405 C.ar      1 RES1    0.0000
     21 N3         7.4015    2.1225    3.6051 N.3       1 RES1    0.0000
     22 C17        7.3077    2.8243    4.8536 C.3       1 RES1    0.0000
     23 C18        8.5377    1.2777    3.4207 C.3       1 RES1    0.0000
     24 C19        3.1995    2.5355   -3.0254 C.3       1 RES1    0.0000
@<TRIPOS>BOND
     1    1    2 1
     2    2    3 1
     3    3    1 1
     4    4    1 1
     5    5    4 3
     6    6    1 1
     7    7    6 ar
     8    8    7 ar
     9    9    8 ar
    10   10    9 ar
    11   11    6 ar
    12   12    9 1
    13   13   12 2
    14   14   12 2
    15   15    2 1
    16   16   15 ar
    17   17   16 ar
    18   18   17 ar
    19   19   18 ar
    20   20   15 ar
    21   21   18 1
    22   22   21 1
    23   23   21 1
    24   24    3 1
    25   10   11 ar
    26   19   20 ar
@<TRIPOS>SUBSTRUCTURE
     1 RES1 1

@<TRIPOS>CRYSIN
   9.8730   10.1340    9.3350  73.1000  84.0700  98.6800   2 1

