# MOL2 file generated by ConQuest
# Please check atom types

@<TRIPOS>MOLECULE
BOGSIA
    28    28     1
SMALL
NO_CHARGES
****
Generated from CSD

@<TRIPOS>ATOM
      1 N1         0.0808    4.6227    2.1575 N.2       1 RES1    0.0000
      2 N2         0.5211    5.8931    1.8371 N.pl3     1 RES1    0.0000
      3 H1         1.1631    6.0032    1.2750 H         1 RES1    0.0000
      4 N3         1.2504    8.6602    1.1200 N.pl3     1 RES1    0.0000
      5 N4        -2.0213   10.2607    4.3096 N.pl3     1 RES1    0.0000
      6 O1         1.8632    7.7501    0.5434 O.2       1 RES1    0.0000
      7 O2         1.4853    9.8396    0.8902 O.2       1 RES1    0.0000
      8 O3        -2.9595   10.0085    5.0706 O.2       1 RES1    0.0000
      9 O4        -1.6411   11.3942    4.0565 O.2       1 RES1    0.0000
     10 C1         0.7717   -0.1903    1.7675 C.3       1 RES1    0.0000
     11 H2        -0.0294   -0.2519    2.2935 H         1 RES1    0.0000
     12 H3         1.5002   -0.5921    2.2464 H         1 RES1    0.0000
     13 H4         0.6442   -0.6488    0.9336 H         1 RES1    0.0000
     14 C2         1.0853    1.2562    1.5002 C.2       1 RES1    0.0000
     15 H5         1.8260    1.4362    0.9676 H         1 RES1    0.0000
     16 C3         0.4076    2.2921    1.9504 C.2       1 RES1    0.0000
     17 H6        -0.3495    2.1299    2.4651 H         1 RES1    0.0000
     18 C4         0.7699    3.6519    1.6917 C.2       1 RES1    0.0000
     19 H7         1.5211    3.8324    1.1750 H         1 RES1    0.0000
     20 C5        -0.0714    6.9569    2.4182 C.ar      1 RES1    0.0000
     21 C6         0.2481    8.3111    2.1030 C.ar      1 RES1    0.0000
     22 C7        -0.3932    9.3721    2.7309 C.ar      1 RES1    0.0000
     23 H8        -0.1736   10.2484    2.5085 H         1 RES1    0.0000
     24 C8        -1.3481    9.1242    3.6770 C.ar      1 RES1    0.0000
     25 C9        -1.6896    7.8127    4.0238 C.ar      1 RES1    0.0000
     26 H9        -2.3396    7.6570    4.6700 H         1 RES1    0.0000
     27 C10       -1.0683    6.7653    3.4146 C.ar      1 RES1    0.0000
     28 H10       -1.3028    5.8990    3.6572 H         1 RES1    0.0000
@<TRIPOS>BOND
     1    1    2 1
     2    2    3 1
     3    4    6 2
     4    5    8 2
     5    7    4 2
     6    9    5 2
     7   10   11 1
     8   12   10 1
     9   13   10 1
    10   14   10 1
    11   15   14 1
    12   16   14 2
    13   17   16 1
    14   18    1 2
    15   19   18 1
    16   20    2 1
    17   21    4 1
    18   22   21 ar
    19   23   22 1
    20   24    5 1
    21   25   24 ar
    22   26   25 1
    23   27   20 ar
    24   28   27 1
    25   16   18 1
    26   20   21 ar
    27   22   24 ar
    28   25   27 ar
@<TRIPOS>SUBSTRUCTURE
     1 RES1 1

@<TRIPOS>CRYSIN
   4.6699   13.1880   18.8800  90.0000  92.5650  90.0000  14 1

