# MOL2 file generated by ConQuest
# Please check atom types

@<TRIPOS>MOLECULE
BOHGEM
    76    80     2
SMALL
NO_CHARGES
****
Generated from CSD

@<TRIPOS>ATOM
      1 N1         9.4243    0.5580    1.0756 N.3       1 RES1    0.0000
      2 O1        11.8848    5.7794   -1.2753 O.2       1 RES1    0.0000
      3 C1         9.4026    1.9244    1.1109 C.2       1 RES1    0.0000
      4 O2        11.9235    7.7132   -0.3025 O.2       1 RES1    0.0000
      5 N2         7.7003    2.2480    3.3509 N.pl3     1 RES1    0.0000
      6 H1         7.2519    2.2728    2.6283 H         1 RES1    0.0000
      7 C2         8.2814    1.2069   -0.7162 C.2       1 RES1    0.0000
      8 H2         7.7761    1.1991   -1.5210 H         1 RES1    0.0000
      9 N3        11.5519    6.5487   -0.3811 N.pl3     1 RES1    0.0000
     10 O3         7.9295    8.3859    2.6683 O.2       1 RES1    0.0000
     11 C3         8.6966    2.3532    0.0073 C.2       1 RES1    0.0000
     12 H3         8.5196    3.2557   -0.2270 H         1 RES1    0.0000
     13 N4         8.2198    7.3001    3.1419 N.pl3     1 RES1    0.0000
     14 O4         7.8341    6.9016    4.2408 O.2       1 RES1    0.0000
     15 C4         8.7479    0.1152   -0.0353 C.2       1 RES1    0.0000
     16 H4         8.6246   -0.7937   -0.2869 H         1 RES1    0.0000
     17 C5         9.9332    2.6915    2.3064 C.3       1 RES1    0.0000
     18 C6         9.8860    4.1833    1.9730 C.ar      1 RES1    0.0000
     19 C7        10.6678    4.6880    0.9299 C.ar      1 RES1    0.0000
     20 H5        11.1994    4.1034    0.4033 H         1 RES1    0.0000
     21 C8        10.6620    6.0443    0.6710 C.ar      1 RES1    0.0000
     22 C9         9.8744    6.9527    1.3642 C.ar      1 RES1    0.0000
     23 H6         9.8755    7.8825    1.1661 H         1 RES1    0.0000
     24 C10        9.0882    6.4097    2.3646 C.ar      1 RES1    0.0000
     25 C11        9.0864    5.0659    2.6963 C.ar      1 RES1    0.0000
     26 H7         8.5455    4.7496    3.4095 H         1 RES1    0.0000
     27 C12       11.3926    2.3092    2.6348 C.3       1 RES1    0.0000
     28 H8        11.6840    2.7913    3.4372 H         1 RES1    0.0000
     29 H9        11.9713    2.5505    1.8816 H         1 RES1    0.0000
     30 H10       11.4499    1.3441    2.7942 H         1 RES1    0.0000
     31 C13        9.0515    2.3910    3.4987 C.2       1 RES1    0.0000
     32 C14        9.3349    2.2829    4.8466 C.2       1 RES1    0.0000
     33 H11       10.1940    2.3441    5.2474 H         1 RES1    0.0000
     34 C15        8.1053    2.0628    5.5235 C.2       1 RES1    0.0000
     35 H12        7.9920    1.9485    6.4596 H         1 RES1    0.0000
     36 C16        7.1060    2.0461    4.5721 C.2       1 RES1    0.0000
     37 H13        6.1787    1.9190    4.7323 H         1 RES1    0.0000
     38 H14        9.8339   -0.0295    1.6788 H         1 RES1    0.0000
     39 O5         2.7326    7.2692    7.2478 O.2       2 RES2    0.0000
     40 C17        2.0524    2.0431    8.0752 C.2       2 RES2    0.0000
     41 N5         1.4654    1.0158    7.3715 N.pl3     2 RES2    0.0000
     42 H15        1.8920    0.4595    6.8398 H         2 RES2    0.0000
     43 O6         3.3758    8.2820    9.0554 O.2       2 RES2    0.0000
     44 N6         3.9592    0.4489    9.5792 N.pl3     2 RES2    0.0000
     45 H16        3.2961    0.6708   10.1145 H         2 RES2    0.0000
     46 C18        1.0529    2.6707    8.7833 C.2       2 RES2    0.0000
     47 H17        1.1605    3.4154    9.3633 H         2 RES2    0.0000
     48 O7         5.4854    3.6621   12.5185 O.2       2 RES2    0.0000
     49 N7         3.2125    7.2746    8.3821 N.pl3     2 RES2    0.0000
     50 C19       -0.1746    2.0023    8.4892 C.2       2 RES2    0.0000
     51 H18       -1.0335    2.2188    8.8309 H         2 RES2    0.0000
     52 O8         5.6254    5.8177   12.5117 O.2       2 RES2    0.0000
     53 N8         5.3146    4.7548   11.9926 N.pl3     2 RES2    0.0000
     54 C20        0.1261    0.9895    7.6197 C.2       2 RES2    0.0000
     55 H19       -0.4951    0.3710    7.2512 H         2 RES2    0.0000
     56 C21        3.5343    2.3301    7.9529 C.3       2 RES2    0.0000
     57 C22        3.8285    3.6066    8.7520 C.ar      2 RES2    0.0000
     58 C23        3.3959    4.8339    8.2434 C.ar      2 RES2    0.0000
     59 H20        2.9337    4.9118    7.4390 H         2 RES2    0.0000
     60 C24        3.6407    5.9937    8.9557 C.ar      2 RES2    0.0000
     61 C25        4.2759    6.0124   10.1852 C.ar      2 RES2    0.0000
     62 H21        4.4579    6.8210   10.6711 H         2 RES2    0.0000
     63 C26        4.6679    4.7850   10.6719 C.ar      2 RES2    0.0000
     64 C27        4.4770    3.5921    9.9887 C.ar      2 RES2    0.0000
     65 H22        4.8267    2.8011   10.3461 H         2 RES2    0.0000
     66 C28        3.9015    2.5714    6.4666 C.3       2 RES2    0.0000
     67 H23        4.8073    2.8675    6.4181 H         2 RES2    0.0000
     68 H24        3.2923    3.2016    6.0378 H         2 RES2    0.0000
     69 H25        3.7982    1.7151    5.9399 H         2 RES2    0.0000
     70 C29        4.3241    1.1347    8.4425 C.2       2 RES2    0.0000
     71 C30        5.4023    0.4784    7.9010 C.2       2 RES2    0.0000
     72 H26        5.8851    0.7543    7.1071 H         2 RES2    0.0000
     73 C31        5.6902   -0.6391    8.7283 C.2       2 RES2    0.0000
     74 H27        6.3832   -1.2753    8.5947 H         2 RES2    0.0000
     75 C32        4.7861   -0.6303    9.7505 C.2       2 RES2    0.0000
     76 H28        4.7384   -1.2630   10.4579 H         2 RES2    0.0000
@<TRIPOS>BOND
     1    1    3 1
     2    2    9 2
     3    3   11 2
     4    4    9 2
     5    5    6 1
     6    7    8 1
     7    9   21 1
     8   10   13 2
     9   11    7 1
    10   12   11 1
    11   13   14 2
    12   15    1 1
    13   16   15 1
    14   17    3 1
    15   18   17 1
    16   19   18 ar
    17   20   19 1
    18   21   19 ar
    19   22   21 ar
    20   23   22 1
    21   24   13 1
    22   25   18 ar
    23   26   25 1
    24   27   17 1
    25   28   27 1
    26   29   27 1
    27   30   27 1
    28   31    5 1
    29   32   31 2
    30   33   32 1
    31   34   32 1
    32   35   34 1
    33   36    5 1
    34   37   36 1
    35   38    1 1
    36   39   49 2
    37   40   41 1
    38   41   42 1
    39   43   49 2
    40   44   45 1
    41   46   40 2
    42   47   46 1
    43   48   53 2
    44   49   60 1
    45   50   46 1
    46   51   50 1
    47   52   53 2
    48   53   63 1
    49   54   41 1
    50   55   54 1
    51   56   40 1
    52   57   56 1
    53   58   57 ar
    54   59   58 1
    55   60   58 ar
    56   61   60 ar
    57   62   61 1
    58   63   61 ar
    59   64   57 ar
    60   65   64 1
    61   66   56 1
    62   67   66 1
    63   68   66 1
    64   69   66 1
    65   70   44 1
    66   71   70 2
    67   72   71 1
    68   73   71 1
    69   74   73 1
    70   75   44 1
    71   76   75 1
    72    7   15 2
    73   17   31 1
    74   22   24 ar
    75   24   25 ar
    76   34   36 2
    77   50   54 2
    78   56   70 1
    79   63   64 ar
    80   73   75 2
@<TRIPOS>SUBSTRUCTURE
     1 RES1 1
     2 RES2 39

@<TRIPOS>CRYSIN
  10.6399   24.5713   11.5358  90.0000  92.7410  90.0000  14 1

