# MOL2 file generated by ConQuest
# Please check atom types

@<TRIPOS>MOLECULE
BOHXUR
   150   160     2
SMALL
NO_CHARGES
****
Generated from CSD

@<TRIPOS>ATOM
      1 C1        11.3195   13.0969    7.2171 C.3       1 RES1    0.0000
      2 O1        12.0711   11.9256    6.9658 O.3       1 RES1    0.0000
      3 C2        12.3501   14.0858    7.7863 C.3       1 RES1    0.0000
      4 O2        13.3857   13.2412    8.2809 O.3       1 RES1    0.0000
      5 C3        11.8522   14.9095    8.9520 C.3       1 RES1    0.0000
      6 O3        10.9565   15.8991    8.4434 O.3       1 RES1    0.0000
      7 C4        10.9910   14.1352    9.9825 C.3       1 RES1    0.0000
      8 O4         9.8251   14.9419   10.1449 O.3       1 RES1    0.0000
      9 C5        10.5963   12.7546    9.4556 C.3       1 RES1    0.0000
     10 O5        10.2361   12.8294    8.0740 O.3       1 RES1    0.0000
     11 C6         9.3715   12.2269   10.1944 C.3       1 RES1    0.0000
     12 O6         9.6111   12.1774   11.5962 O.3       1 RES1    0.0000
     13 C7         8.9161   10.8208    9.7271 C.3       1 RES1    0.0000
     14 N1         8.2856   10.9361    8.3333 N.pl3     1 RES1    0.0000
     15 O7         7.4529   11.8138    8.1981 O.2       1 RES1    0.0000
     16 O8         8.5973   10.1367    7.4593 O.2       1 RES1    0.0000
     17 C8         7.8411   10.2210   10.7031 C.3       1 RES1    0.0000
     18 O9         6.6724    9.7962   10.0198 O.3       1 RES1    0.0000
     19 C9         8.5113    8.9275   11.1996 C.3       1 RES1    0.0000
     20 O10        7.8592    7.9138   10.4366 O.3       1 RES1    0.0000
     21 C10        9.9661    9.0489   10.7888 C.3       1 RES1    0.0000
     22 O11        9.9784    9.9211    9.6343 O.3       1 RES1    0.0000
     23 C11       10.5865    7.7186   10.4195 C.3       1 RES1    0.0000
     24 O12       10.6257    6.9730   11.6285 O.3       1 RES1    0.0000
     25 C12       12.0571    7.7331    9.9885 C.3       1 RES1    0.0000
     26 O13       12.5480    6.5033   10.4982 O.3       1 RES1    0.0000
     27 C13       13.4237   12.0875    7.4432 C.3       1 RES1    0.0000
     28 C14       13.7998   10.8924    8.2788 C.3       1 RES1    0.0000
     29 C15       14.3620   12.3157    6.2664 C.3       1 RES1    0.0000
     30 C16       10.0415   16.1915    9.4980 C.3       1 RES1    0.0000
     31 C17       10.6431   17.1856   10.4830 C.3       1 RES1    0.0000
     32 C18        8.7439   16.6753    8.8874 C.3       1 RES1    0.0000
     33 C19        6.5275    8.3735   10.2216 C.3       1 RES1    0.0000
     34 C20        5.6507    8.0997   11.4186 C.3       1 RES1    0.0000
     35 C21        6.0048    7.7663    8.9439 C.3       1 RES1    0.0000
     36 C22       11.6349    5.9746   11.4630 C.3       1 RES1    0.0000
     37 C23       11.0292    4.7278   10.8857 C.3       1 RES1    0.0000
     38 C24       12.3339    5.7462   12.7538 C.3       1 RES1    0.0000
     39 C25        7.7936    5.7879    4.3165 C.3       2 RES2    0.0000
     40 O14        6.7770    6.6902    3.9017 O.3       2 RES2    0.0000
     41 C26        7.3135    5.3118    5.6821 C.3       2 RES2    0.0000
     42 O15        6.5170    6.4010    6.1493 O.3       2 RES2    0.0000
     43 C27        8.4493    5.0809    6.6641 C.3       2 RES2    0.0000
     44 O16        9.2380    4.0071    6.1271 O.3       2 RES2    0.0000
     45 C28        9.4267    6.2585    6.7468 C.3       2 RES2    0.0000
     46 O17       10.7020    5.6185    6.8659 O.3       2 RES2    0.0000
     47 C29        9.3306    7.1675    5.5196 C.3       2 RES2    0.0000
     48 O18        9.0571    6.4096    4.3388 O.3       2 RES2    0.0000
     49 C30       10.6468    7.9073    5.2895 C.3       2 RES2    0.0000
     50 O19       11.0194    8.6245    6.4592 O.3       2 RES2    0.0000
     51 C31       10.6267    8.8872    4.0965 C.3       2 RES2    0.0000
     52 N2        10.4621    8.0921    2.7926 N.pl3     2 RES2    0.0000
     53 O20       11.2315    7.1594    2.6422 O.2       2 RES2    0.0000
     54 O21        9.6078    8.4382    1.9882 O.2       2 RES2    0.0000
     55 C32       11.9694    9.7006    4.0188 C.3       2 RES2    0.0000
     56 O22       12.7287    9.4547    2.8552 O.3       2 RES2    0.0000
     57 C33       11.4989   11.1558    3.9038 C.3       2 RES2    0.0000
     58 O23       11.5683   11.3780    2.4959 O.3       2 RES2    0.0000
     59 C34       10.0524   11.1371    4.3953 C.3       2 RES2    0.0000
     60 O24        9.5754    9.7864    4.1954 O.3       2 RES2    0.0000
     61 C35        9.1358   12.1020    3.6737 C.3       2 RES2    0.0000
     62 O25        9.5577   13.4191    4.0582 O.3       2 RES2    0.0000
     63 C36        7.6766   12.0692    4.0935 C.3       2 RES2    0.0000
     64 O26        7.2767   13.4284    3.9058 O.3       2 RES2    0.0000
     65 C37        5.8931    6.9815    5.0028 C.3       2 RES2    0.0000
     66 C38        5.7832    8.4833    5.1754 C.3       2 RES2    0.0000
     67 C39        4.5423    6.3381    4.7495 C.3       2 RES2    0.0000
     68 C40       10.6228    4.2624    6.3986 C.3       2 RES2    0.0000
     69 C41       11.1309    3.3551    7.5048 C.3       2 RES2    0.0000
     70 C42       11.4074    4.0981    5.1128 C.3       2 RES2    0.0000
     71 C43       12.6958   10.6437    2.0245 C.3       2 RES2    0.0000
     72 C44       13.9963   11.3988    2.2244 C.3       2 RES2    0.0000
     73 C45       12.4251   10.2441    0.6015 C.3       2 RES2    0.0000
     74 C46        8.3785   14.2220    4.3165 C.3       2 RES2    0.0000
     75 C47        8.4487   15.4742    3.4597 C.3       2 RES2    0.0000
     76 C48        8.3159   14.5360    5.8001 C.3       2 RES2    0.0000
     77 H1        10.9523   13.4076    6.4592 H         1 RES1    0.0000
     78 H2        12.6588   14.7189    7.0597 H         1 RES1    0.0000
     79 H3        12.5974   15.3084    9.3315 H         1 RES1    0.0000
     80 H4        11.4602   14.0484   10.7989 H         1 RES1    0.0000
     81 H5        11.3353   12.1998    9.5626 H         1 RES1    0.0000
     82 H6         8.6870   12.8358   10.0460 H         1 RES1    0.0000
     83 H7        10.3962   11.9678   11.7930 H         1 RES1    0.0000
     84 H8         7.6283   10.9000   11.4640 H         1 RES1    0.0000
     85 H9         8.3772    8.8089   12.1261 H         1 RES1    0.0000
     86 H10       10.5046    9.4960   11.5105 H         1 RES1    0.0000
     87 H11       10.0505    7.2813    9.7836 H         1 RES1    0.0000
     88 H12       12.5685    8.4769   10.3841 H         1 RES1    0.0000
     89 H13       12.1490    7.7480    8.9863 H         1 RES1    0.0000
     90 H14       13.6678   10.0990    7.7813 H         1 RES1    0.0000
     91 H15       14.7041   10.9748    8.5564 H         1 RES1    0.0000
     92 H16       13.2378   10.8187    9.0953 H         1 RES1    0.0000
     93 H17       15.2071   12.4075    6.5329 H         1 RES1    0.0000
     94 H18       14.3663   11.5672    5.6699 H         1 RES1    0.0000
     95 H19       14.0719   13.0900    5.7053 H         1 RES1    0.0000
     96 H20       10.8283   18.0351   10.0026 H         1 RES1    0.0000
     97 H21       10.0280   17.3145   11.2117 H         1 RES1    0.0000
     98 H22       11.4804   16.8203   10.8383 H         1 RES1    0.0000
     99 H23        8.1179   16.8127    9.6867 H         1 RES1    0.0000
    100 H24        8.8288   17.3721    8.2809 H         1 RES1    0.0000
    101 H25        8.4160   16.0288    8.3848 H         1 RES1    0.0000
    102 H26        4.7612    8.5729   11.2238 H         1 RES1    0.0000
    103 H27        5.5094    7.1343   11.5054 H         1 RES1    0.0000
    104 H28        6.0232    8.4257   12.2351 H         1 RES1    0.0000
    105 H29        5.9907    6.7360    8.9339 H         1 RES1    0.0000
    106 H30        5.0753    8.1519    8.7007 H         1 RES1    0.0000
    107 H31        6.6392    7.9410    8.2375 H         1 RES1    0.0000
    108 H32       11.7392    4.1951   10.6980 H         1 RES1    0.0000
    109 H33       10.3143    4.3093   11.4529 H         1 RES1    0.0000
    110 H34       10.6143    5.0526   10.0006 H         1 RES1    0.0000
    111 H35       11.5618    5.4469   13.3160 H         1 RES1    0.0000
    112 H36       13.0022    5.0273   12.6287 H         1 RES1    0.0000
    113 H37       12.6164    6.6776   13.1293 H         1 RES1    0.0000
    114 H38        7.8248    5.1151    3.7110 H         2 RES2    0.0000
    115 H39        6.7427    4.5623    5.5710 H         2 RES2    0.0000
    116 H40        8.0495    4.8443    7.5381 H         2 RES2    0.0000
    117 H41        9.2841    6.7986    7.4977 H         2 RES2    0.0000
    118 H42        8.6233    7.8107    5.6427 H         2 RES2    0.0000
    119 H43       11.3328    7.3225    5.1300 H         2 RES2    0.0000
    120 H44       10.3905    9.0832    6.6913 H         2 RES2    0.0000
    121 H45       12.4574    9.5500    4.8181 H         2 RES2    0.0000
    122 H46       12.0616   11.7206    4.4134 H         2 RES2    0.0000
    123 H47       10.0494   11.3738    5.2996 H         2 RES2    0.0000
    124 H48        9.2714   12.0044    2.6503 H         2 RES2    0.0000
    125 H49        7.6051   11.8456    5.0472 H         2 RES2    0.0000
    126 H50        7.1797   11.6171    3.5293 H         2 RES2    0.0000
    127 H51        5.4324    8.8840    4.2207 H         2 RES2    0.0000
    128 H52        5.2023    8.8067    6.0262 H         2 RES2    0.0000
    129 H53        6.6328    8.9221    5.3349 H         2 RES2    0.0000
    130 H54        4.0001    6.4566    5.4711 H         2 RES2    0.0000
    131 H55        4.1511    6.7172    3.8846 H         2 RES2    0.0000
    132 H56        4.6140    5.3786    4.5749 H         2 RES2    0.0000
    133 H57       11.1086    2.4833    7.2030 H         2 RES2    0.0000
    134 H58       12.0520    3.5851    7.7450 H         2 RES2    0.0000
    135 H59       10.4987    3.5217    8.2859 H         2 RES2    0.0000
    136 H60       12.3520    4.2915    5.2622 H         2 RES2    0.0000
    137 H61       11.2920    3.1749    4.7192 H         2 RES2    0.0000
    138 H62       11.0365    4.6948    4.3721 H         2 RES2    0.0000
    139 H63       14.7709   10.8248    2.0276 H         2 RES2    0.0000
    140 H64       13.9703   12.1860    1.6663 H         2 RES2    0.0000
    141 H65       14.1468   11.6773    3.1660 H         2 RES2    0.0000
    142 H66       12.4569   10.9673   -0.0010 H         2 RES2    0.0000
    143 H67       13.0657    9.7177    0.2644 H         2 RES2    0.0000
    144 H68       11.5562    9.7990    0.5500 H         2 RES2    0.0000
    145 H69        7.6205   16.0557    3.6020 H         2 RES2    0.0000
    146 H70        9.2299   16.0707    3.7332 H         2 RES2    0.0000
    147 H71        8.4938   15.2911    2.5504 H         2 RES2    0.0000
    148 H72        9.1219   15.0075    6.0504 H         2 RES2    0.0000
    149 H73        7.4694   15.1108    5.9495 H         2 RES2    0.0000
    150 H74        8.1914   13.8075    6.4370 H         2 RES2    0.0000
@<TRIPOS>BOND
     1    1    2 1
     2    2   27 1
     3    3    1 1
     4    4    3 1
     5    5    3 1
     6    6    5 1
     7    7    5 1
     8    8    7 1
     9    9    7 1
    10   10    1 1
    11   11    9 1
    12   12   11 1
    13   13   11 1
    14   14   13 1
    15   15   14 2
    16   16   14 2
    17   17   13 1
    18   18   17 1
    19   19   17 1
    20   20   19 1
    21   21   19 1
    22   22   13 1
    23   23   21 1
    24   24   23 1
    25   25   23 1
    26   26   25 1
    27   27    4 1
    28   28   27 1
    29   29   27 1
    30   30    6 1
    31   31   30 1
    32   32   30 1
    33   33   18 1
    34   34   33 1
    35   35   33 1
    36   36   24 1
    37   37   36 1
    38   38   36 1
    39   39   40 1
    40   40   65 1
    41   41   39 1
    42   42   41 1
    43   43   41 1
    44   44   43 1
    45   45   43 1
    46   46   45 1
    47   47   45 1
    48   48   39 1
    49   49   47 1
    50   50   49 1
    51   51   49 1
    52   52   51 1
    53   53   52 2
    54   54   52 2
    55   55   51 1
    56   56   55 1
    57   57   55 1
    58   58   57 1
    59   59   57 1
    60   60   51 1
    61   61   59 1
    62   62   61 1
    63   63   61 1
    64   64   63 1
    65   65   42 1
    66   66   65 1
    67   67   65 1
    68   68   44 1
    69   69   68 1
    70   70   68 1
    71   71   56 1
    72   72   71 1
    73   73   71 1
    74   74   62 1
    75   75   74 1
    76   76   74 1
    77   77    1 1
    78   78    3 1
    79   79    5 1
    80   80    7 1
    81   81    9 1
    82   82   11 1
    83   83   12 1
    84   84   17 1
    85   85   19 1
    86   86   21 1
    87   87   23 1
    88   88   25 1
    89   89   25 1
    90   90   28 1
    91   91   28 1
    92   92   28 1
    93   93   29 1
    94   94   29 1
    95   95   29 1
    96   96   31 1
    97   97   31 1
    98   98   31 1
    99   99   32 1
   100  100   32 1
   101  101   32 1
   102  102   34 1
   103  103   34 1
   104  104   34 1
   105  105   35 1
   106  106   35 1
   107  107   35 1
   108  108   37 1
   109  109   37 1
   110  110   37 1
   111  111   38 1
   112  112   38 1
   113  113   38 1
   114  114   39 1
   115  115   41 1
   116  116   43 1
   117  117   45 1
   118  118   47 1
   119  119   49 1
   120  120   50 1
   121  121   55 1
   122  122   57 1
   123  123   59 1
   124  124   61 1
   125  125   63 1
   126  126   63 1
   127  127   66 1
   128  128   66 1
   129  129   66 1
   130  130   67 1
   131  131   67 1
   132  132   67 1
   133  133   69 1
   134  134   69 1
   135  135   69 1
   136  136   70 1
   137  137   70 1
   138  138   70 1
   139  139   72 1
   140  140   72 1
   141  141   72 1
   142  142   73 1
   143  143   73 1
   144  144   73 1
   145  145   75 1
   146  146   75 1
   147  147   75 1
   148  148   76 1
   149  149   76 1
   150  150   76 1
   151    8   30 1
   152    9   10 1
   153   20   33 1
   154   21   22 1
   155   26   36 1
   156   46   68 1
   157   47   48 1
   158   58   71 1
   159   59   60 1
   160   64   74 1
@<TRIPOS>SUBSTRUCTURE
     1 RES1 1
     2 RES2 39

@<TRIPOS>CRYSIN
   9.9140   13.6780   11.1050  67.8500  74.0000  73.9900   1 1

