# MOL2 file generated by ConQuest
# Please check atom types

@<TRIPOS>MOLECULE
BOJDOU
    64    66     2
SMALL
NO_CHARGES
****
Generated from CSD

@<TRIPOS>ATOM
      1 C1         7.9214    7.6002    2.9061 C.ar      1 RES1    0.0000
      2 H1         7.8108    7.8006    2.0040 H         1 RES1    0.0000
      3 C2         7.0603    8.1320    3.8437 C.ar      1 RES1    0.0000
      4 H2         6.3855    8.7086    3.5698 H         1 RES1    0.0000
      5 C3         7.1857    7.8189    5.1904 C.ar      1 RES1    0.0000
      6 H3         6.5920    8.1666    5.8155 H         1 RES1    0.0000
      7 C4         8.2146    6.9805    5.5867 C.ar      1 RES1    0.0000
      8 H4         8.3253    6.7806    6.4888 H         1 RES1    0.0000
      9 C5         9.0610    6.4471    4.6653 C.ar      1 RES1    0.0000
     10 C6         8.9503    6.7695    3.3089 C.ar      1 RES1    0.0000
     11 C7         9.8686    6.6072    1.0729 C.3       1 RES1    0.0000
     12 H5        10.5582    6.1417    0.5928 H         1 RES1    0.0000
     13 H6        10.0198    7.5520    1.0149 H         1 RES1    0.0000
     14 H7         9.0149    6.3937    0.6895 H         1 RES1    0.0000
     15 C8        12.7894    3.0457    8.0998 C.2       1 RES1    0.0000
     16 C9        13.5951    2.6053    7.1268 C.2       1 RES1    0.0000
     17 H8        14.3014    2.0424    7.3491 H         1 RES1    0.0000
     18 C10       13.4181    2.9530    5.8187 C.2       1 RES1    0.0000
     19 H9        13.9879    2.6151    5.1679 H         1 RES1    0.0000
     20 C11       12.3689    3.8281    5.4578 C.2       1 RES1    0.0000
     21 C12       11.4617    4.2552    6.4824 C.2       1 RES1    0.0000
     22 C13       11.7217    3.8708    7.8034 C.2       1 RES1    0.0000
     23 H10       11.1704    4.1736    8.4864 H         1 RES1    0.0000
     24 C14       10.4015    5.1333    6.2118 C.2       1 RES1    0.0000
     25 H11        9.8594    5.4126    6.9141 H         1 RES1    0.0000
     26 N1        10.1489    5.5737    5.0058 N.pl3     1 RES1    0.0000
     27 H12       10.6707    5.3221    4.3721 H         1 RES1    0.0000
     28 N2        12.9848    2.6907    9.4820 N.pl3     1 RES1    0.0000
     29 O1         9.8889    6.1887    2.4931 O.3       1 RES1    0.0000
     30 O2        12.1919    4.1561    4.2345 O.2       1 RES1    0.0000
     31 O3        13.9068    1.8882    9.7139 O.2       1 RES1    0.0000
     32 O4        12.2177    3.1435   10.3519 O.2       1 RES1    0.0000
     33 C15        3.1568    1.0947   16.2028 C.ar      2 RES2    0.0000
     34 H13        3.0738    0.8721   17.1017 H         2 RES2    0.0000
     35 C16        2.2643    0.6065   15.3007 C.ar      2 RES2    0.0000
     36 H14        1.5599    0.0794   15.6067 H         2 RES2    0.0000
     37 C17        2.3694    0.8645   13.9604 C.ar      2 RES2    0.0000
     38 H15        1.7554    0.5125   13.3579 H         2 RES2    0.0000
     39 C18        3.4131    1.6618   13.5222 C.ar      2 RES2    0.0000
     40 H16        3.4942    1.8459   12.6136 H         2 RES2    0.0000
     41 C19        4.3406    2.1932   14.4114 C.ar      2 RES2    0.0000
     42 C20        4.2133    1.9412   15.7839 C.ar      2 RES2    0.0000
     43 C21        5.1869    2.1270   17.9490 C.3       2 RES2    0.0000
     44 H17        5.9153    2.5895   18.3679 H         2 RES2    0.0000
     45 H18        5.3234    1.1784   18.0264 H         2 RES2    0.0000
     46 H19        4.3645    2.3670   18.3808 H         2 RES2    0.0000
     47 C22        8.0616    5.3426   10.8287 C.2       2 RES2    0.0000
     48 C23        8.9208    5.8414   11.8114 C.2       2 RES2    0.0000
     49 H20        9.6400    6.3783   11.5665 H         2 RES2    0.0000
     50 C24        8.7180    5.5510   13.1227 C.2       2 RES2    0.0000
     51 H21        9.3062    5.8833   13.7638 H         2 RES2    0.0000
     52 C25        7.5969    4.7310   13.5415 C.2       2 RES2    0.0000
     53 C26        6.7782    4.2531   12.5009 C.2       2 RES2    0.0000
     54 C27        6.9958    4.5482   11.1573 C.2       2 RES2    0.0000
     55 H22        6.4316    4.2138   10.5001 H         2 RES2    0.0000
     56 C28        5.6295    3.4309   12.8037 C.2       2 RES2    0.0000
     57 H23        5.0505    3.1879   12.1175 H         2 RES2    0.0000
     58 N3         5.3879    3.0170   14.0345 N.pl3     2 RES2    0.0000
     59 H24        5.9245    3.2814   14.6531 H         2 RES2    0.0000
     60 N4         8.3050    5.6360    9.4272 N.pl3     2 RES2    0.0000
     61 O5         5.1261    2.4776   16.5984 O.3       2 RES2    0.0000
     62 O6         7.4346    4.4162   14.7649 O.2       2 RES2    0.0000
     63 O7         9.2122    6.3924    9.1340 O.2       2 RES2    0.0000
     64 O8         7.6024    5.1504    8.5805 O.2       2 RES2    0.0000
@<TRIPOS>BOND
     1    1    2 1
     2    3    1 ar
     3    4    3 1
     4    5    3 ar
     5    6    5 1
     6    7    5 ar
     7    8    7 1
     8    9    7 ar
     9   10    1 ar
    10   11   12 1
    11   13   11 1
    12   14   11 1
    13   15   16 1
    14   16   17 1
    15   18   16 2
    16   19   18 1
    17   20   18 1
    18   21   20 1
    19   22   15 2
    20   23   22 1
    21   24   21 2
    22   25   24 1
    23   26    9 1
    24   27   26 1
    25   28   15 1
    26   29   10 1
    27   30   20 2
    28   31   28 2
    29   32   28 2
    30   33   34 1
    31   35   33 ar
    32   36   35 1
    33   37   35 ar
    34   38   37 1
    35   39   37 ar
    36   40   39 1
    37   41   39 ar
    38   42   33 ar
    39   43   44 1
    40   45   43 1
    41   46   43 1
    42   47   48 1
    43   48   49 1
    44   50   48 2
    45   51   50 1
    46   52   50 1
    47   53   52 1
    48   54   47 2
    49   55   54 1
    50   56   53 2
    51   57   56 1
    52   58   41 1
    53   59   58 1
    54   60   47 1
    55   61   42 1
    56   62   52 2
    57   63   60 2
    58   64   60 2
    59    9   10 ar
    60   11   29 1
    61   21   22 1
    62   24   26 1
    63   41   42 ar
    64   43   61 1
    65   53   54 1
    66   56   58 1
@<TRIPOS>SUBSTRUCTURE
     1 RES1 1
     2 RES2 33

@<TRIPOS>CRYSIN
  18.4391    4.2710   32.2187  90.0000  90.0000  90.0000  29 1

