# MOL2 file generated by ConQuest
# Please check atom types

@<TRIPOS>MOLECULE
BOJVON
    26    27     1
SMALL
NO_CHARGES
****
Generated from CSD

@<TRIPOS>ATOM
      1 O1         1.5904    5.3986   13.3875 O.2       1 RES1    0.0000
      2 N1         2.2135   10.5515    9.7175 N.pl3     1 RES1    0.0000
      3 O2         1.6844   10.7239    8.6300 O.2       1 RES1    0.0000
      4 O3         2.8611   11.4057   10.2898 O.2       1 RES1    0.0000
      5 C1         1.7527    5.4071   12.1730 C.2       1 RES1    0.0000
      6 C2         1.8968    6.7303   11.4825 C.ar      1 RES1    0.0000
      7 C3         2.5074    7.7766   12.1783 C.ar      1 RES1    0.0000
      8 H1         2.8502    7.6230   13.0505 H         1 RES1    0.0000
      9 C4         2.6201    9.0315   11.6145 C.ar      1 RES1    0.0000
     10 H2         3.0512    9.7391   12.0777 H         1 RES1    0.0000
     11 C5         2.0841    9.2249   10.3514 C.ar      1 RES1    0.0000
     12 C6         1.4441    8.2265    9.6472 C.ar      1 RES1    0.0000
     13 H3         1.0679    8.3999    8.7917 H         1 RES1    0.0000
     14 C7         1.3620    6.9677   10.2139 C.ar      1 RES1    0.0000
     15 H4         0.9400    6.2607    9.7391 H         1 RES1    0.0000
     16 C8         1.8000    4.1338   11.4053 C.ar      1 RES1    0.0000
     17 C9         2.3915    4.0220   10.1444 C.ar      1 RES1    0.0000
     18 H5         2.7633    4.7877    9.7242 H         1 RES1    0.0000
     19 C10        2.4351    2.7933    9.5083 C.ar      1 RES1    0.0000
     20 H6         2.8535    2.7177    8.6592 H         1 RES1    0.0000
     21 C11        1.8734    1.6758   10.1000 C.ar      1 RES1    0.0000
     22 H7         1.8913    0.8391    9.6504 H         1 RES1    0.0000
     23 C12        1.2836    1.7796   11.3520 C.ar      1 RES1    0.0000
     24 H8         0.8990    1.0119   11.7596 H         1 RES1    0.0000
     25 C13        1.2543    2.9916   12.0036 C.ar      1 RES1    0.0000
     26 H9         0.8612    3.0543   12.8660 H         1 RES1    0.0000
@<TRIPOS>BOND
     1    1    5 2
     2    2    3 2
     3    4    2 2
     4    5    6 1
     5    6    7 ar
     6    7    8 1
     7    9    7 ar
     8   10    9 1
     9   11    2 1
    10   12   11 ar
    11   13   12 1
    12   14    6 ar
    13   15   14 1
    14   16    5 1
    15   17   16 ar
    16   18   17 1
    17   19   17 ar
    18   20   19 1
    19   21   19 ar
    20   22   21 1
    21   23   21 ar
    22   24   23 1
    23   25   16 ar
    24   26   25 1
    25    9   11 ar
    26   12   14 ar
    27   23   25 ar
@<TRIPOS>SUBSTRUCTURE
     1 RES1 1

@<TRIPOS>CRYSIN
   3.9190   23.0512   11.5262  90.0000  90.5750  90.0000 231 1

