# MOL2 file generated by ConQuest
# Please check atom types

@<TRIPOS>MOLECULE
BOJWED
    53    55     1
SMALL
NO_CHARGES
****
Generated from CSD

@<TRIPOS>ATOM
      1 C1        20.8929    2.2345   14.4195 C.3       1 RES1    0.0000
      2 H1        21.8084    2.2476   14.7056 H         1 RES1    0.0000
      3 H2        20.8540    2.2715   13.4623 H         1 RES1    0.0000
      4 H3        20.4737    1.4264   14.7257 H         1 RES1    0.0000
      5 C2        17.0921    3.1675   12.3395 C.3       1 RES1    0.0000
      6 H4        18.0604    3.0289   12.2759 H         1 RES1    0.0000
      7 C3        16.4929    2.1927   13.3836 C.3       1 RES1    0.0000
      8 H5        17.1625    1.5327   13.6614 H         1 RES1    0.0000
      9 C4        16.0744    3.0636   14.5734 C.3       1 RES1    0.0000
     10 C5        16.7345    4.4332   14.3609 C.3       1 RES1    0.0000
     11 H6        16.1488    5.1314   14.7223 H         1 RES1    0.0000
     12 C6        16.8080    4.5771   12.8348 C.3       1 RES1    0.0000
     13 H7        15.9682    4.9062   12.4783 H         1 RES1    0.0000
     14 H8        17.5200    5.1846   12.5771 H         1 RES1    0.0000
     15 C7        14.1770    2.2333   13.4556 C.3       1 RES1    0.0000
     16 C8        13.3366    1.2167   14.1785 C.3       1 RES1    0.0000
     17 H9        12.5375    1.6366   14.5081 H         1 RES1    0.0000
     18 H10       13.8338    0.8541   14.9148 H         1 RES1    0.0000
     19 H11       13.0992    0.5095   13.5727 H         1 RES1    0.0000
     20 C9        13.4291    2.9315   12.3261 C.3       1 RES1    0.0000
     21 H12       14.0226    3.5384   11.8759 H         1 RES1    0.0000
     22 H13       12.6833    3.4189   12.6875 H         1 RES1    0.0000
     23 H14       13.1095    2.2763   11.7002 H         1 RES1    0.0000
     24 C10       16.2761    2.4328   15.9322 C.3       1 RES1    0.0000
     25 H15       15.8233    1.5864   15.9640 H         1 RES1    0.0000
     26 H16       15.9180    3.0110   16.6099 H         1 RES1    0.0000
     27 H17       17.2130    2.3008   16.0878 H         1 RES1    0.0000
     28 C11       18.1113    4.5520   15.0085 C.3       1 RES1    0.0000
     29 H18       18.5097    5.4068   14.7859 H         1 RES1    0.0000
     30 H19       18.0298    4.4941   15.9740 H         1 RES1    0.0000
     31 C12       20.1850    3.3980   14.9851 C.2       1 RES1    0.0000
     32 C13       16.8174    1.8510   10.4201 C.2       1 RES1    0.0000
     33 C14       16.0491    1.6402    9.1517 C.ar      1 RES1    0.0000
     34 C15       16.3386    0.5005    8.4120 C.ar      1 RES1    0.0000
     35 H20       16.9555   -0.1213    8.7233 H         1 RES1    0.0000
     36 C16       15.6958    0.3082    7.2089 C.ar      1 RES1    0.0000
     37 C17       14.7245    1.1635    6.7454 C.ar      1 RES1    0.0000
     38 H21       14.2842    1.0082    5.9421 H         1 RES1    0.0000
     39 C18       14.4322    2.2620    7.5268 C.ar      1 RES1    0.0000
     40 C19       15.0786    2.5308    8.7166 C.ar      1 RES1    0.0000
     41 H22       14.8695    3.2893    9.2136 H         1 RES1    0.0000
     42 N1        13.3709    3.1723    7.0817 N.pl3     1 RES1    0.0000
     43 N2        16.0767   -0.8553    6.3873 N.pl3     1 RES1    0.0000
     44 O1        16.4838    2.9740   11.0317 O.3       1 RES1    0.0000
     45 O2        17.6667    1.0841   10.8023 O.2       1 RES1    0.0000
     46 O3        15.3205    1.5500   12.9442 O.3       1 RES1    0.0000
     47 O4        14.6720    3.2427   14.3184 O.3       1 RES1    0.0000
     48 O5        18.9287    3.4852   14.5199 O.3       1 RES1    0.0000
     49 O6        20.6289    4.1644   15.7648 O.2       1 RES1    0.0000
     50 O7        16.8814   -1.6372    6.8458 O.2       1 RES1    0.0000
     51 O8        15.5610   -0.9778    5.3012 O.2       1 RES1    0.0000
     52 O9        13.2744    4.2468    7.6389 O.2       1 RES1    0.0000
     53 O10       12.6571    2.8139    6.1697 O.2       1 RES1    0.0000
@<TRIPOS>BOND
     1    1    2 1
     2    3    1 1
     3    4    1 1
     4    5    6 1
     5    7    5 1
     6    8    7 1
     7    9    7 1
     8   10    9 1
     9   11   10 1
    10   12    5 1
    11   13   12 1
    12   14   12 1
    13   15   16 1
    14   16   17 1
    15   18   16 1
    16   19   16 1
    17   20   15 1
    18   21   20 1
    19   22   20 1
    20   23   20 1
    21   24    9 1
    22   25   24 1
    23   26   24 1
    24   27   24 1
    25   28   10 1
    26   29   28 1
    27   30   28 1
    28   31    1 1
    29   32   33 1
    30   33   34 ar
    31   34   35 1
    32   36   34 ar
    33   37   36 ar
    34   38   37 1
    35   39   37 ar
    36   40   33 ar
    37   41   40 1
    38   42   39 1
    39   43   36 1
    40   44    5 1
    41   45   32 2
    42   46    7 1
    43   47    9 1
    44   48   28 1
    45   49   31 2
    46   50   43 2
    47   51   43 2
    48   52   42 2
    49   53   42 2
    50   10   12 1
    51   15   46 1
    52   15   47 1
    53   31   48 1
    54   32   44 1
    55   39   40 ar
@<TRIPOS>SUBSTRUCTURE
     1 RES1 1

@<TRIPOS>CRYSIN
  21.6317    5.9730   18.2114  90.0000 113.2400  90.0000   5 1

