# MOL2 file generated by ConQuest
# Please check atom types

@<TRIPOS>MOLECULE
BOKLAO
    31    32     1
SMALL
NO_CHARGES
****
Generated from CSD

@<TRIPOS>ATOM
      1 O1         1.9715    9.9320    1.4624 O.2       1 RES1    0.0000
      2 O2         1.8499   11.7865    2.4885 O.2       1 RES1    0.0000
      3 O3         0.6371    7.5409    7.0122 O.3       1 RES1    0.0000
      4 N1         1.7732   10.5845    2.4744 N.pl3     1 RES1    0.0000
      5 C1         1.4490    9.8567    3.7196 C.ar      1 RES1    0.0000
      6 C2         1.5235    8.4727    3.6690 C.ar      1 RES1    0.0000
      7 C3         1.2399    7.7192    4.7635 C.ar      1 RES1    0.0000
      8 C4         0.8999    8.3643    5.9478 C.ar      1 RES1    0.0000
      9 C5         0.8103    9.7372    5.9871 C.ar      1 RES1    0.0000
     10 C6         1.0889   10.5201    4.8749 C.ar      1 RES1    0.0000
     11 C7         0.9507   12.0272    5.0162 C.3       1 RES1    0.0000
     12 C8         0.4460    8.1419    8.3173 C.3       1 RES1    0.0000
     13 C9         0.4514    7.0208    9.3294 C.ar      1 RES1    0.0000
     14 C10        1.6370    6.4712    9.7582 C.ar      1 RES1    0.0000
     15 C11        1.6035    5.4457   10.6803 C.ar      1 RES1    0.0000
     16 C12        0.3407    5.0340   11.1634 C.ar      1 RES1    0.0000
     17 C13       -0.8241    5.5688   10.7365 C.ar      1 RES1    0.0000
     18 C14       -0.7549    6.5631    9.8087 C.ar      1 RES1    0.0000
     19 H1         1.8340    8.0868    2.9210 H         1 RES1    0.0000
     20 H2         1.3998    6.7819    4.8028 H         1 RES1    0.0000
     21 H3         1.9204   12.4242    4.9339 H         1 RES1    0.0000
     22 H4         0.3145   12.3874    4.3253 H         1 RES1    0.0000
     23 H5         0.5942   12.2772    5.7109 H         1 RES1    0.0000
     24 H6         1.2411    8.7116    8.4259 H         1 RES1    0.0000
     25 H7        -0.4751    8.6381    8.3136 H         1 RES1    0.0000
     26 H8         2.4795    6.7819    9.3341 H         1 RES1    0.0000
     27 H9         2.3989    5.0910   11.0192 H         1 RES1    0.0000
     28 H10        0.5101    4.5029   11.5435 H         1 RES1    0.0000
     29 H11       -1.5546    6.8921    9.4745 H         1 RES1    0.0000
     30 H12        0.6013   10.2187    6.7969 H         1 RES1    0.0000
     31 H13       -1.8097    5.1094   11.1597 H         1 RES1    0.0000
@<TRIPOS>BOND
     1    1    4 2
     2    2    4 2
     3    3    8 1
     4    4    5 1
     5    5    6 ar
     6    6    7 ar
     7    7    8 ar
     8    8    9 ar
     9    9   10 ar
    10   10    5 ar
    11   11   10 1
    12   12    3 1
    13   13   12 1
    14   14   13 ar
    15   15   14 ar
    16   16   15 ar
    17   17   16 ar
    18   18   13 ar
    19   19    6 1
    20   20    7 1
    21   21   11 1
    22   22   11 1
    23   23   11 1
    24   24   12 1
    25   25   12 1
    26   26   14 1
    27   27   15 1
    28   28   16 1
    29   29   18 1
    30   30    9 1
    31   31   17 1
    32   17   18 ar
@<TRIPOS>SUBSTRUCTURE
     1 RES1 1

@<TRIPOS>CRYSIN
   7.2740   18.3790    9.4460  90.0000  97.6400  90.0000  14 1

