# MOL2 file generated by ConQuest
# Please check atom types

@<TRIPOS>MOLECULE
BOLPEX
    30    32     1
SMALL
NO_CHARGES
****
Generated from CSD

@<TRIPOS>ATOM
      1 C1         0.1494    2.5643    2.6162 C.ar      1 RES1    0.0000
      2 C2        -0.8493    2.3919    3.5670 C.ar      1 RES1    0.0000
      3 C3        -1.0085    3.3226    4.5612 C.ar      1 RES1    0.0000
      4 C4        -0.1448    4.4089    4.6381 C.ar      1 RES1    0.0000
      5 C5         3.6323    7.0552    2.7961 C.ar      1 RES1    0.0000
      6 C6         4.6217    7.2300    1.8440 C.ar      1 RES1    0.0000
      7 C7         4.8350    6.2751    0.8805 C.ar      1 RES1    0.0000
      8 C8         4.0348    5.1443    0.8565 C.ar      1 RES1    0.0000
      9 C9         2.0279    3.8459    1.5866 C.2       1 RES1    0.0000
     10 C10        1.7468    5.7579    3.7502 C.2       1 RES1    0.0000
     11 C11        2.8052    5.9279    2.7553 C.ar      1 RES1    0.0000
     12 C12        2.9965    4.9671    1.7497 C.ar      1 RES1    0.0000
     13 C13        0.9977    3.6566    2.6456 C.ar      1 RES1    0.0000
     14 C14        0.8646    4.5982    3.6693 C.ar      1 RES1    0.0000
     15 N1         0.2675    1.5022    1.6040 N.pl3     1 RES1    0.0000
     16 N2         4.4056    4.1075   -0.1190 N.pl3     1 RES1    0.0000
     17 O1         1.0882    0.6112    1.8620 O.2       1 RES1    0.0000
     18 O2        -0.4528    1.5576    0.6419 O.2       1 RES1    0.0000
     19 O3         4.7929    3.0285    0.3236 O.2       1 RES1    0.0000
     20 O4         4.4040    4.4113   -1.2917 O.2       1 RES1    0.0000
     21 O5        -0.3726    5.2793    5.6289 O.3       1 RES1    0.0000
     22 O6         3.5290    8.0197    3.7348 O.3       1 RES1    0.0000
     23 O7         1.9967    3.1888    0.5610 O.2       1 RES1    0.0000
     24 O8         1.6033    6.5910    4.6595 O.2       1 RES1    0.0000
     25 H1        -1.6362    1.5793    3.2962 H         1 RES1    0.0000
     26 H2        -1.7643    3.1707    5.2552 H         1 RES1    0.0000
     27 H3         5.2069    8.0414    1.8320 H         1 RES1    0.0000
     28 H4         5.3390    6.3897    0.0334 H         1 RES1    0.0000
     29 H5         0.2670    5.9195    5.7500 H         1 RES1    0.0000
     30 H6         2.5288    7.8002    4.1721 H         1 RES1    0.0000
@<TRIPOS>BOND
     1    1    2 ar
     2    2    3 ar
     3    3    4 ar
     4    4   14 ar
     5    5    6 ar
     6    6    7 ar
     7    7    8 ar
     8    8   12 ar
     9    9   12 1
    10   10   11 1
    11   11    5 ar
    12   12   11 ar
    13   13    1 ar
    14   14   10 1
    15   15    1 1
    16   16    8 1
    17   17   15 2
    18   18   15 2
    19   19   16 2
    20   20   16 2
    21   21    4 1
    22   22    5 1
    23   23    9 2
    24   24   10 2
    25   25    2 1
    26   26    3 1
    27   27    6 1
    28   28    7 1
    29   29   21 1
    30   30   22 1
    31    9   13 1
    32   13   14 ar
@<TRIPOS>SUBSTRUCTURE
     1 RES1 1

@<TRIPOS>CRYSIN
  15.6640   12.0560    6.7040  90.0000  94.2000  90.0000  14 2

