# MOL2 file generated by ConQuest
# Please check atom types

@<TRIPOS>MOLECULE
BOMAIU10
    44    45     1
SMALL
NO_CHARGES
****
Generated from CSD

@<TRIPOS>ATOM
      1 C1         7.2931    5.9395    2.4076 C.ar      1 RES1    0.0000
      2 C2         5.9331    5.8502    2.3824 C.ar      1 RES1    0.0000
      3 C3         5.3503    4.6074    2.4026 C.ar      1 RES1    0.0000
      4 C4         6.1133    3.4571    2.4394 C.ar      1 RES1    0.0000
      5 C5         7.4905    3.5400    2.4329 C.ar      1 RES1    0.0000
      6 C6         8.1389    4.7974    2.3911 C.ar      1 RES1    0.0000
      7 C7        10.3398    3.7041    2.3038 C.3       1 RES1    0.0000
      8 C8        10.8784    6.7145    2.3160 C.2       1 RES1    0.0000
      9 C9        12.1609    8.7598    2.6039 C.3       1 RES1    0.0000
     10 C10       11.1268    8.2075    0.4459 C.3       1 RES1    0.0000
     11 C11       12.4960    5.9412    3.8737 C.2       1 RES1    0.0000
     12 C12       12.8127    5.9688    5.3117 C.ar      1 RES1    0.0000
     13 C13       11.9707    6.5471    6.2388 C.ar      1 RES1    0.0000
     14 C14       12.3446    6.5439    7.5700 C.ar      1 RES1    0.0000
     15 C15       13.5375    5.9834    7.9538 C.ar      1 RES1    0.0000
     16 C16       14.3766    5.4067    7.0260 C.ar      1 RES1    0.0000
     17 C17       14.0338    5.4018    5.6869 C.ar      1 RES1    0.0000
     18 N1         7.8223    7.3026    2.6349 N.pl3     1 RES1    0.0000
     19 N2         3.8964    4.5261    2.4538 N.pl3     1 RES1    0.0000
     20 N3         9.5015    4.8933    2.3398 N.pl3     1 RES1    0.0000
     21 N4        10.0033    6.0386    1.6616 N.2       1 RES1    0.0000
     22 N5        11.4529    7.8030    1.8016 N.pl3     1 RES1    0.0000
     23 O1         7.4343    8.1864    1.8997 O.2       1 RES1    0.0000
     24 O2         8.5306    7.4667    3.6104 O.2       1 RES1    0.0000
     25 O3         3.3808    3.4182    2.5491 O.2       1 RES1    0.0000
     26 O4         3.2500    5.5529    2.4076 O.2       1 RES1    0.0000
     27 O5        11.2200    6.4123    3.6219 O.3       1 RES1    0.0000
     28 O6        13.2056    5.5708    2.9841 O.2       1 RES1    0.0000
     29 H1         5.4005    6.6771    2.4170 H         1 RES1    0.0000
     30 H2         5.7557    2.5344    2.4820 H         1 RES1    0.0000
     31 H3         8.0485    2.6968    2.5397 H         1 RES1    0.0000
     32 H4        10.0371    3.0867    1.5584 H         1 RES1    0.0000
     33 H5        10.2748    3.1517    3.0664 H         1 RES1    0.0000
     34 H6        11.3074    3.9803    2.3954 H         1 RES1    0.0000
     35 H7        13.0515    8.4804    2.6768 H         1 RES1    0.0000
     36 H8        12.1310    9.6501    2.1501 H         1 RES1    0.0000
     37 H9        11.7053    8.9515    3.5281 H         1 RES1    0.0000
     38 H10       10.9179    7.4244   -0.1371 H         1 RES1    0.0000
     39 H11       10.3323    8.8053    0.4690 H         1 RES1    0.0000
     40 H12       11.9050    8.6916    0.0577 H         1 RES1    0.0000
     41 H13       11.1251    7.0670    5.9524 H         1 RES1    0.0000
     42 H14       11.8074    7.0345    8.1818 H         1 RES1    0.0000
     43 H15       13.9477    6.1410    8.8673 H         1 RES1    0.0000
     44 H16       15.3055    4.9550    7.2944 H         1 RES1    0.0000
@<TRIPOS>BOND
     1    1    2 ar
     2    2    3 ar
     3    3    4 ar
     4    4    5 ar
     5    5    6 ar
     6    6    1 ar
     7    7   20 1
     8    8   21 2
     9    9   22 1
    10   10   22 1
    11   11   12 1
    12   12   13 ar
    13   13   14 ar
    14   14   15 ar
    15   15   16 ar
    16   16   17 ar
    17   17   12 ar
    18   18    1 1
    19   19    3 1
    20   20    6 1
    21   21   20 1
    22   22    8 1
    23   23   18 2
    24   24   18 2
    25   25   19 2
    26   26   19 2
    27   27    8 1
    28   28   11 2
    29   29    2 1
    30   30    4 1
    31   31    5 1
    32   32    7 1
    33   33    7 1
    34   34    7 1
    35   35    9 1
    36   36    9 1
    37   37    9 1
    38   38   10 1
    39   39   10 1
    40   40   10 1
    41   41   13 1
    42   42   14 1
    43   43   15 1
    44   44   16 1
    45   11   27 1
@<TRIPOS>SUBSTRUCTURE
     1 RES1 1

@<TRIPOS>CRYSIN
  15.7320   16.2460    7.6280  90.0000 108.9400  90.0000  14 1

