# MOL2 file generated by ConQuest
# Please check atom types

@<TRIPOS>MOLECULE
BOMHAO
    37    38     1
SMALL
NO_CHARGES
****
Generated from CSD

@<TRIPOS>ATOM
      1 O1         3.8040    2.0693    8.2242 O.3       1 RES1    0.0000
      2 O2         4.4975    0.1061   14.0537 O.2       1 RES1    0.0000
      3 O3         5.9291    1.6885   14.1024 O.2       1 RES1    0.0000
      4 N1         5.1176    0.9979   13.5150 N.pl3     1 RES1    0.0000
      5 C1         4.4731    1.4108    7.1006 C.3       1 RES1    0.0000
      6 C2         3.5062    1.6046    5.9411 C.3       1 RES1    0.0000
      7 H1         2.6799    1.1541    6.1322 H         1 RES1    0.0000
      8 H2         3.9560    1.2220    5.1613 H         1 RES1    0.0000
      9 H3         3.3711    2.5797    5.8059 H         1 RES1    0.0000
     10 C3         5.7904    2.1390    6.8360 C.3       1 RES1    0.0000
     11 H4         5.6150    3.0734    6.6027 H         1 RES1    0.0000
     12 H5         6.2637    1.6601    6.0782 H         1 RES1    0.0000
     13 H6         6.3487    2.1415    7.6078 H         1 RES1    0.0000
     14 C4         4.6749   -0.0531    7.4320 C.3       1 RES1    0.0000
     15 H7         3.8390   -0.4629    7.6017 H         1 RES1    0.0000
     16 H8         5.1045   -0.4875    6.6368 H         1 RES1    0.0000
     17 C5         5.5000   -0.2419    8.7001 C.3       1 RES1    0.0000
     18 H9         5.4299   -1.1602    8.9751 H         1 RES1    0.0000
     19 H10        6.4870   -0.0555    8.5247 H         1 RES1    0.0000
     20 C6         5.0160    0.6671    9.8048 C.ar      1 RES1    0.0000
     21 C7         5.3527    0.4227   11.1408 C.ar      1 RES1    0.0000
     22 C8         6.2775   -0.7060   11.5031 C.3       1 RES1    0.0000
     23 H11        5.8489   -1.5676   11.4156 H         1 RES1    0.0000
     24 H12        6.5721   -0.6048   12.4227 H         1 RES1    0.0000
     25 H13        7.0612   -0.7097   10.9331 H         1 RES1    0.0000
     26 C9         4.8304    1.2868   12.1019 C.ar      1 RES1    0.0000
     27 C10        4.0163    2.3859   11.8244 C.ar      1 RES1    0.0000
     28 C11        3.4328    3.2351   12.9228 C.3       1 RES1    0.0000
     29 H14        2.4565    3.2030   12.8751 H         1 RES1    0.0000
     30 H15        3.6476    2.9438   13.8041 H         1 RES1    0.0000
     31 H16        3.6795    4.1719   12.8431 H         1 RES1    0.0000
     32 C12        3.7169    2.6340   10.4893 C.ar      1 RES1    0.0000
     33 C13        2.8234    3.7887   10.1075 C.3       1 RES1    0.0000
     34 H17        1.8504    3.5980   10.3185 H         1 RES1    0.0000
     35 H18        2.9564    3.9930    9.1613 H         1 RES1    0.0000
     36 H19        3.0521    4.5731   10.6428 H         1 RES1    0.0000
     37 C14        4.2086    1.7700    9.5009 C.ar      1 RES1    0.0000
@<TRIPOS>BOND
     1    1    5 1
     2    2    4 2
     3    3    4 2
     4    4   26 1
     5    5    6 1
     6    6    7 1
     7    8    6 1
     8    9    6 1
     9   10    5 1
    10   11   10 1
    11   12   10 1
    12   13   10 1
    13   14    5 1
    14   15   14 1
    15   16   14 1
    16   17   14 1
    17   18   17 1
    18   19   17 1
    19   20   17 1
    20   21   20 ar
    21   22   21 1
    22   23   22 1
    23   24   22 1
    24   25   22 1
    25   26   21 ar
    26   27   26 ar
    27   28   27 1
    28   29   28 1
    29   30   28 1
    30   31   28 1
    31   32   27 ar
    32   33   32 1
    33   34   33 1
    34   35   33 1
    35   36   33 1
    36   37    1 1
    37   20   37 ar
    38   32   37 ar
@<TRIPOS>SUBSTRUCTURE
     1 RES1 1

@<TRIPOS>CRYSIN
  10.6344    6.1715   20.0204  90.0000  90.0000  90.0000  29 1

