# MOL2 file generated by ConQuest
# Please check atom types

@<TRIPOS>MOLECULE
BOMHAM
    21    22     1
SMALL
NO_CHARGES
****
Generated from CSD

@<TRIPOS>ATOM
      1 O1         2.9456    1.7690    6.6048 O.3       1 RES1    0.0000
      2 O2         1.4072    3.0401    7.5435 O.2       1 RES1    0.0000
      3 O3        -1.6769   -2.6162    4.1622 O.2       1 RES1    0.0000
      4 O4        -3.2751   -1.5596    5.1574 O.2       1 RES1    0.0000
      5 N1         2.4836   -0.1808    5.3789 N.2       1 RES1    0.0000
      6 N2        -2.0994   -1.6982    4.8501 N.pl3     1 RES1    0.0000
      7 C1         1.1188    0.0338    5.6003 C.ar      1 RES1    0.0000
      8 C2         0.2073   -0.9112    5.1119 C.ar      1 RES1    0.0000
      9 H1         0.5210   -1.6778    4.6035 H         1 RES1    0.0000
     10 C3        -1.1339   -0.6936    5.3541 C.ar      1 RES1    0.0000
     11 C4        -1.6216    0.4051    6.0459 C.ar      1 RES1    0.0000
     12 H2        -2.5128    0.4451    6.1630 H         1 RES1    0.0000
     13 C5        -0.7142    1.3268    6.5336 C.ar      1 RES1    0.0000
     14 H3        -0.9905    2.1293    7.0549 H         1 RES1    0.0000
     15 C6         0.6528    1.1381    6.3105 C.ar      1 RES1    0.0000
     16 C7         1.6303    2.0770    6.8653 C.2       1 RES1    0.0000
     17 C8         3.2992    0.6566    5.8715 C.2       1 RES1    0.0000
     18 C9         4.7743    0.5468    5.7375 C.3       1 RES1    0.0000
     19 H4         5.2196    0.8860    6.4946 H         1 RES1    0.0000
     20 H5         4.9687   -0.3552    5.4631 H         1 RES1    0.0000
     21 H6         5.0513    1.1877    5.0133 H         1 RES1    0.0000
@<TRIPOS>BOND
     1    1   16 1
     2    2   16 2
     3    3    6 2
     4    4    6 2
     5    5    7 1
     6    6   10 1
     7    7    8 ar
     8    8    9 1
     9   10    8 ar
    10   11   10 ar
    11   12   11 1
    12   13   11 ar
    13   14   13 1
    14   15    7 ar
    15   16   15 1
    16   17    1 1
    17   18   17 1
    18   19   18 1
    19   20   18 1
    20   21   18 1
    21    5   17 2
    22   13   15 ar
@<TRIPOS>SUBSTRUCTURE
     1 RES1 1

@<TRIPOS>CRYSIN
  10.7200   10.7000   15.3500  90.0000  90.0000  90.0000  61 1

