# MOL2 file generated by ConQuest
# Please check atom types

@<TRIPOS>MOLECULE
BOMJAO
    28    29     1
SMALL
NO_CHARGES
****
Generated from CSD

@<TRIPOS>ATOM
      1 N1        12.5946    2.9771    1.5525 N.2       1 RES1    0.0000
      2 C1        13.2496    2.2223    2.4422 C.2       1 RES1    0.0000
      3 C2        12.4083    1.7995    3.4584 C.2       1 RES1    0.0000
      4 N2        11.1453    2.3409    3.1749 N.pl3     1 RES1    0.0000
      5 C3         9.9275    2.3045    3.8413 C.2       1 RES1    0.0000
      6 C4         8.8594    2.9823    3.3236 C.2       1 RES1    0.0000
      7 C5         9.0316    3.6936    2.1154 C.2       1 RES1    0.0000
      8 C6        10.2271    3.7290    1.4550 C.2       1 RES1    0.0000
      9 C7        11.3283    3.0559    2.0040 C.2       1 RES1    0.0000
     10 C8        14.7482    2.0602    2.3598 C.2       1 RES1    0.0000
     11 N3        12.6557    0.8941    4.5125 N.pl3     1 RES1    0.0000
     12 C9         7.5401    2.9809    4.0790 C.3       1 RES1    0.0000
     13 O1        15.4925    2.5243    3.1851 O.2       1 RES1    0.0000
     14 O2        15.1096    1.4308    1.3009 O.3       1 RES1    0.0000
     15 C10       16.5748    1.2568    1.0992 C.3       1 RES1    0.0000
     16 C11       17.1728    2.4361    0.4996 C.3       1 RES1    0.0000
     17 O3        11.7297    0.5780    5.2577 O.2       1 RES1    0.0000
     18 O4        13.7917    0.4240    4.5986 O.2       1 RES1    0.0000
     19 H1         9.9204    1.7783    4.6172 H         1 RES1    0.0000
     20 H2         8.2746    4.1851    1.7157 H         1 RES1    0.0000
     21 H3        10.2762    4.1485    0.7224 H         1 RES1    0.0000
     22 H4         7.3739    2.1481    4.4968 H         1 RES1    0.0000
     23 H5         6.9435    3.3633    3.6962 H         1 RES1    0.0000
     24 H6        16.5774    0.5156    0.4635 H         1 RES1    0.0000
     25 H7        17.0181    1.2041    2.0106 H         1 RES1    0.0000
     26 H8        18.1699    2.1971    0.4093 H         1 RES1    0.0000
     27 H9        16.8394    2.8963   -0.2348 H         1 RES1    0.0000
     28 H10       17.0760    3.2171    1.1739 H         1 RES1    0.0000
@<TRIPOS>BOND
     1    1    2 1
     2    2    3 2
     3    3    4 1
     4    4    5 1
     5    5    6 2
     6    6    7 1
     7    7    8 2
     8    8    9 1
     9    9    1 2
    10   10    2 1
    11   11    3 1
    12   12    6 1
    13   13   10 2
    14   14   10 1
    15   15   14 1
    16   16   15 1
    17   17   11 2
    18   18   11 2
    19   19    5 1
    20   20    7 1
    21   21    8 1
    22   22   12 1
    23   23   12 1
    24   24   15 1
    25   25   15 1
    26   26   16 1
    27   27   16 1
    28   28   16 1
    29    4    9 1
@<TRIPOS>SUBSTRUCTURE
     1 RES1 1

@<TRIPOS>CRYSIN
  11.6410    8.3610    6.1910  83.6400 101.6400  88.0900   2 1

