# MOL2 file generated by ConQuest
# Please check atom types

@<TRIPOS>MOLECULE
BOMMAR
    24    26     1
SMALL
NO_CHARGES
****
Generated from CSD

@<TRIPOS>ATOM
      1 C1        -1.0548    5.7604    5.9380 C.3       1 RES1    0.0000
      2 C2        -1.9621    5.9368    4.7249 C.2       1 RES1    0.0000
      3 C3        -3.3880    5.8222    5.2455 C.3       1 RES1    0.0000
      4 C4        -3.1679    5.4967    6.7406 C.3       1 RES1    0.0000
      5 C5        -2.9603    2.8959    7.2049 C.ar      1 RES1    0.0000
      6 C6        -2.0795    1.8278    7.0643 C.ar      1 RES1    0.0000
      7 C7        -0.8131    1.9473    6.5410 C.ar      1 RES1    0.0000
      8 C8        -0.3644    3.2034    6.1289 C.ar      1 RES1    0.0000
      9 C9        -1.9437    6.3878    7.0304 C.3       1 RES1    0.0000
     10 C41       -2.5089    4.1317    6.7944 C.ar      1 RES1    0.0000
     11 C81       -1.2097    4.2840    6.2755 C.ar      1 RES1    0.0000
     12 N1        -2.5350    0.4964    7.5129 N.pl3     1 RES1    0.0000
     13 O1        -3.5285    0.4291    8.2140 O.2       1 RES1    0.0000
     14 O2        -1.8872   -0.4797    7.1563 O.2       1 RES1    0.0000
     15 O3        -1.6282    6.1225    3.5794 O.2       1 RES1    0.0000
     16 H1        -0.1798    6.0910    5.7965 H         1 RES1    0.0000
     17 H13       -3.8559    5.1194    4.7552 H         1 RES1    0.0000
     18 H23       -3.8473    6.7067    5.1284 H         1 RES1    0.0000
     19 H4        -3.9429    5.6299    7.2890 H         1 RES1    0.0000
     20 H5        -3.8032    2.7869    7.5754 H         1 RES1    0.0000
     21 H7        -0.2318    1.2095    6.4907 H         1 RES1    0.0000
     22 H8         0.4915    3.2755    5.7792 H         1 RES1    0.0000
     23 H19       -1.5769    6.2369    7.9225 H         1 RES1    0.0000
     24 H29       -2.1215    7.3428    6.8638 H         1 RES1    0.0000
@<TRIPOS>BOND
     1    1    2 1
     2    2    3 1
     3    3    4 1
     4    4    9 1
     5    5    6 ar
     6    6    7 ar
     7    7    8 ar
     8    8   11 ar
     9    9    1 1
    10   10    4 1
    11   11    1 1
    12   12    6 1
    13   13   12 2
    14   14   12 2
    15   15    2 2
    16   16    1 1
    17   17    3 1
    18   18    3 1
    19   19    4 1
    20   20    5 1
    21   21    7 1
    22   22    8 1
    23   23    9 1
    24   24    9 1
    25    5   10 ar
    26   10   11 ar
@<TRIPOS>SUBSTRUCTURE
     1 RES1 1

@<TRIPOS>CRYSIN
   6.2510    9.2080    9.3890  95.6000 108.3700 109.5800   2 1

