# MOL2 file generated by ConQuest
# Please check atom types

@<TRIPOS>MOLECULE
BONPEB
    42    44     1
SMALL
NO_CHARGES
****
Generated from CSD

@<TRIPOS>ATOM
      1 O1         8.4029   11.2216    2.5526 O.3       1 RES1    0.0000
      2 O2         9.0090    5.4358   -0.8761 O.3       1 RES1    0.0000
      3 O3         7.1813    3.4036    2.2835 O.2       1 RES1    0.0000
      4 N1         4.5537    4.1714    3.0215 N.pl3     1 RES1    0.0000
      5 N2         7.8802    6.3142   -1.2907 N.3       1 RES1    0.0000
      6 N3         4.6317    5.7868    1.4798 N.2       1 RES1    0.0000
      7 C1         4.9189    3.0792    3.9296 C.3       1 RES1    0.0000
      8 H1         4.1430    2.8349    4.4760 H         1 RES1    0.0000
      9 H2         5.6501    3.3700    4.5138 H         1 RES1    0.0000
     10 H3         5.2071    2.3023    3.4068 H         1 RES1    0.0000
     11 C2         5.3172    4.8009    2.0672 C.2       1 RES1    0.0000
     12 C3         6.6797    4.3842    1.7143 C.2       1 RES1    0.0000
     13 C4         7.3813    5.0958    0.6581 C.2       1 RES1    0.0000
     14 C5         7.0160    6.3725   -0.0687 C.3       1 RES1    0.0000
     15 C6         7.3243    7.6421    0.7059 C.ar      1 RES1    0.0000
     16 C7         8.2568    7.6943    1.7347 C.ar      1 RES1    0.0000
     17 H4         8.6705    6.8925    2.0293 H         1 RES1    0.0000
     18 C8         8.5943    8.8974    2.3388 C.ar      1 RES1    0.0000
     19 H5         9.2322    8.9164    3.0431 H         1 RES1    0.0000
     20 C9         7.9915   10.0808    1.9062 C.ar      1 RES1    0.0000
     21 C10        7.8987   12.4684    2.0614 C.3       1 RES1    0.0000
     22 H6         8.0902   12.5430    1.1026 H         1 RES1    0.0000
     23 H7         8.3312   13.2063    2.5398 H         1 RES1    0.0000
     24 H8         6.9304   12.5091    2.2053 H         1 RES1    0.0000
     25 C11        6.6998    8.8280    0.3272 C.ar      1 RES1    0.0000
     26 H9         6.0355    8.8050   -0.3506 H         1 RES1    0.0000
     27 C12        7.0248   10.0457    0.9173 C.ar      1 RES1    0.0000
     28 H10        6.5875   10.8435    0.6444 H         1 RES1    0.0000
     29 C13        8.5784    4.6988    0.1810 C.2       1 RES1    0.0000
     30 C14        7.2161    5.5655   -2.3673 C.3       1 RES1    0.0000
     31 H11        7.8430    5.4363   -3.1101 H         1 RES1    0.0000
     32 H12        6.4360    6.0681   -2.6824 H         1 RES1    0.0000
     33 H13        6.9268    4.6930   -2.0278 H         1 RES1    0.0000
     34 C15        9.5226    3.6291    0.5970 C.3       1 RES1    0.0000
     35 H14        9.6106    3.6327    1.5725 H         1 RES1    0.0000
     36 H15       10.3991    3.7900    0.1891 H         1 RES1    0.0000
     37 H16        9.1808    2.7587    0.3026 H         1 RES1    0.0000
     38 C16        3.4146    5.7829    2.0757 C.2       1 RES1    0.0000
     39 H17        2.7068    6.3804    1.8649 H         1 RES1    0.0000
     40 C17        3.3489    4.7947    3.0255 C.2       1 RES1    0.0000
     41 H18        2.6049    4.5877    3.5785 H         1 RES1    0.0000
     42 H19        6.0674    6.3732   -0.3768 H         1 RES1    0.0000
@<TRIPOS>BOND
     1    1   20 1
     2    2    5 1
     3    3   12 2
     4    4    7 1
     5    5   14 1
     6    6   11 2
     7    7    8 1
     8    9    7 1
     9   10    7 1
    10   11    4 1
    11   12   11 1
    12   13   12 1
    13   14   13 1
    14   15   14 1
    15   16   15 ar
    16   17   16 1
    17   18   16 ar
    18   19   18 1
    19   20   18 ar
    20   21    1 1
    21   22   21 1
    22   23   21 1
    23   24   21 1
    24   25   15 ar
    25   26   25 1
    26   27   20 ar
    27   28   27 1
    28   29    2 1
    29   30    5 1
    30   31   30 1
    31   32   30 1
    32   33   30 1
    33   34   29 1
    34   35   34 1
    35   36   34 1
    36   37   34 1
    37   38    6 1
    38   39   38 1
    39   40    4 1
    40   41   40 1
    41   42   14 1
    42   13   29 2
    43   25   27 ar
    44   38   40 2
@<TRIPOS>SUBSTRUCTURE
     1 RES1 1

@<TRIPOS>CRYSIN
   8.8601   12.1048   14.5466  90.0000  90.0000  90.0000  19 1

