# MOL2 file generated by ConQuest
# Please check atom types

@<TRIPOS>MOLECULE
BOPBIR
    38    40     1
SMALL
NO_CHARGES
****
Generated from CSD

@<TRIPOS>ATOM
      1 O1        -2.9140    2.1196    6.7017 O.3       1 RES1    0.0000
      2 O2        -0.8754    2.5322    5.6151 O.3       1 RES1    0.0000
      3 O3         0.0352    2.7090    7.6618 O.2       1 RES1    0.0000
      4 N1        -3.6522    1.4980    5.5783 N.3       1 RES1    0.0000
      5 C1        -4.0409    2.6390    4.7210 C.3       1 RES1    0.0000
      6 H1        -4.8877    3.0491    5.0580 H         1 RES1    0.0000
      7 C2        -2.8675    3.6176    4.9068 C.3       1 RES1    0.0000
      8 H2        -2.2904    3.6299    4.1021 H         1 RES1    0.0000
      9 H3        -3.1993    4.5345    5.0767 H         1 RES1    0.0000
     10 C3        -2.1071    3.0910    6.1037 C.3       1 RES1    0.0000
     11 H4        -1.9192    3.8323    6.7484 H         1 RES1    0.0000
     12 C4         0.1415    2.4317    6.4977 C.2       1 RES1    0.0000
     13 C5         1.3801    1.9376    5.8290 C.3       1 RES1    0.0000
     14 H5         2.1224    1.9504    6.4674 H         1 RES1    0.0000
     15 H6         1.5939    2.5172    5.0669 H         1 RES1    0.0000
     16 H7         1.2360    1.0219    5.5124 H         1 RES1    0.0000
     17 C6        -4.2208    2.1715    3.2920 C.ar      1 RES1    0.0000
     18 C7        -5.2367    2.6911    2.5103 C.ar      1 RES1    0.0000
     19 H8        -5.8329    3.3325    2.8785 H         1 RES1    0.0000
     20 C8        -5.3922    2.2823    1.1907 C.ar      1 RES1    0.0000
     21 H9        -6.0839    2.6540    0.6571 H         1 RES1    0.0000
     22 C9        -4.5428    1.3368    0.6571 C.ar      1 RES1    0.0000
     23 H10       -4.6593    1.0415   -0.2383 H         1 RES1    0.0000
     24 C10       -3.5252    0.8231    1.4281 C.ar      1 RES1    0.0000
     25 H11       -2.9340    0.1787    1.0591 H         1 RES1    0.0000
     26 C11       -3.3591    1.2386    2.7371 C.ar      1 RES1    0.0000
     27 H12       -2.6489    0.8823    3.2582 H         1 RES1    0.0000
     28 C12       -4.6926    0.7063    6.1429 C.ar      1 RES1    0.0000
     29 C13       -5.9788    0.7067    5.6209 C.ar      1 RES1    0.0000
     30 H13       -6.2055    1.2942    4.9095 H         1 RES1    0.0000
     31 C14       -6.9335   -0.1565    6.1446 C.ar      1 RES1    0.0000
     32 H14       -7.8082   -0.1689    5.7729 H         1 RES1    0.0000
     33 C15       -6.6318   -0.9947    7.1948 C.ar      1 RES1    0.0000
     34 H15       -7.2934   -1.5762    7.5514 H         1 RES1    0.0000
     35 C16       -5.3572   -0.9798    7.7248 C.ar      1 RES1    0.0000
     36 H16       -5.1436   -1.5469    8.4567 H         1 RES1    0.0000
     37 C17       -4.3901   -0.1467    7.1966 C.ar      1 RES1    0.0000
     38 H17       -3.5113   -0.1578    7.5567 H         1 RES1    0.0000
@<TRIPOS>BOND
     1    1    4 1
     2    2   10 1
     3    3   12 2
     4    4    5 1
     5    5    6 1
     6    7    5 1
     7    8    7 1
     8    9    7 1
     9   10    1 1
    10   11   10 1
    11   12    2 1
    12   13   12 1
    13   14   13 1
    14   15   13 1
    15   16   13 1
    16   17    5 1
    17   18   17 ar
    18   19   18 1
    19   20   18 ar
    20   21   20 1
    21   22   20 ar
    22   23   22 1
    23   24   22 ar
    24   25   24 1
    25   26   17 ar
    26   27   26 1
    27   28    4 1
    28   29   28 ar
    29   30   29 1
    30   31   29 ar
    31   32   31 1
    32   33   31 ar
    33   34   33 1
    34   35   33 ar
    35   36   35 1
    36   37   28 ar
    37   38   37 1
    38    7   10 1
    39   24   26 ar
    40   35   37 ar
@<TRIPOS>SUBSTRUCTURE
     1 RES1 1

@<TRIPOS>CRYSIN
  11.7637   13.9610    9.6642  90.0000 113.0540  90.0000  14 1

