# MOL2 file generated by ConQuest
# Please check atom types

@<TRIPOS>MOLECULE
BOPGAO
    40    42     1
SMALL
NO_CHARGES
****
Generated from CSD

@<TRIPOS>ATOM
      1 O1        10.4384    8.5681    4.1668 O.3       1 RES1    0.0000
      2 O2         9.9189    6.5729    5.3160 O.3       1 RES1    0.0000
      3 O3         7.9663    6.7448    4.2082 O.2       1 RES1    0.0000
      4 O4        17.4928    5.6849    7.8648 O.2       1 RES1    0.0000
      5 O5        16.5710    4.0326    6.7991 O.2       1 RES1    0.0000
      6 N1        11.8787    8.3792    4.1684 N.3       1 RES1    0.0000
      7 N2        16.6244    5.2163    7.1385 N.pl3     1 RES1    0.0000
      8 C1        12.3190    8.6500    5.5665 C.3       1 RES1    0.0000
      9 H1        12.5823    9.6105    5.6592 H         1 RES1    0.0000
     10 C2        11.0502    8.3744    6.3962 C.3       1 RES1    0.0000
     11 H2        11.1977    7.6244    7.0259 H         1 RES1    0.0000
     12 H3        10.7832    9.1779    6.9102 H         1 RES1    0.0000
     13 C3        10.0022    8.0198    5.3742 C.3       1 RES1    0.0000
     14 H4         9.1173    8.4093    5.6339 H         1 RES1    0.0000
     15 C4         8.8141    6.0581    4.7330 C.2       1 RES1    0.0000
     16 C5         8.7573    4.5686    4.8456 C.3       1 RES1    0.0000
     17 H5         8.2487    4.2035    4.0917 H         1 RES1    0.0000
     18 H6         8.3185    4.3209    5.6860 H         1 RES1    0.0000
     19 H7         9.6667    4.2046    4.8326 H         1 RES1    0.0000
     20 C6        12.4580    9.2430    3.1793 C.ar      1 RES1    0.0000
     21 C7        13.8380    9.2930    3.0851 C.ar      1 RES1    0.0000
     22 H8        14.3677    8.7814    3.6849 H         1 RES1    0.0000
     23 C8        14.4545   10.0767    2.1313 C.ar      1 RES1    0.0000
     24 H9        15.4029   10.1012    2.0754 H         1 RES1    0.0000
     25 C9        13.6839   10.8291    1.2510 C.ar      1 RES1    0.0000
     26 H10       14.1009   11.3639    0.5861 H         1 RES1    0.0000
     27 C10       12.3233   10.7907    1.3514 C.ar      1 RES1    0.0000
     28 H11       11.8009   11.3209    0.7623 H         1 RES1    0.0000
     29 C11       11.6819    9.9930    2.2968 C.ar      1 RES1    0.0000
     30 H12       10.7333    9.9605    2.3389 H         1 RES1    0.0000
     31 C12       13.4876    7.7570    5.9388 C.ar      1 RES1    0.0000
     32 C13       13.4436    6.3895    5.6408 C.ar      1 RES1    0.0000
     33 H13       12.6920    6.0302    5.1827 H         1 RES1    0.0000
     34 C14       14.4826    5.5628    6.0070 C.ar      1 RES1    0.0000
     35 H14       14.4612    4.6360    5.8001 H         1 RES1    0.0000
     36 C15       15.5566    6.1116    6.6827 C.ar      1 RES1    0.0000
     37 C16       15.6369    7.4558    6.9784 C.ar      1 RES1    0.0000
     38 H15       16.3894    7.8093    7.4365 H         1 RES1    0.0000
     39 C17       14.5897    8.2791    6.5900 C.ar      1 RES1    0.0000
     40 H16       14.6303    9.2105    6.7731 H         1 RES1    0.0000
@<TRIPOS>BOND
     1    1    6 1
     2    2   13 1
     3    3   15 2
     4    4    7 2
     5    5    7 2
     6    6    8 1
     7    7   36 1
     8    8    9 1
     9   10    8 1
    10   11   10 1
    11   12   10 1
    12   13    1 1
    13   14   13 1
    14   15    2 1
    15   16   15 1
    16   17   16 1
    17   18   16 1
    18   19   16 1
    19   20    6 1
    20   21   20 ar
    21   22   21 1
    22   23   21 ar
    23   24   23 1
    24   25   23 ar
    25   26   25 1
    26   27   25 ar
    27   28   27 1
    28   29   20 ar
    29   30   29 1
    30   31    8 1
    31   32   31 ar
    32   33   32 1
    33   34   32 ar
    34   35   34 1
    35   36   34 ar
    36   37   36 ar
    37   38   37 1
    38   39   31 ar
    39   40   39 1
    40   10   13 1
    41   27   29 ar
    42   37   39 ar
@<TRIPOS>SUBSTRUCTURE
     1 RES1 1

@<TRIPOS>CRYSIN
  17.9115   11.6279    7.7010  90.0000  95.8420  90.0000   9 1

