# MOL2 file generated by ConQuest
# Please check atom types

@<TRIPOS>MOLECULE
BOPJIA
    80    85     1
SMALL
NO_CHARGES
****
Generated from CSD

@<TRIPOS>ATOM
      1 N1        12.2981   -2.2843    7.4229 N.pl3     1 RES1    0.0000
      2 O1        10.0241    5.6780    8.9108 O.3       1 RES1    0.0000
      3 O2         7.8736    8.0385   12.3972 O.3       1 RES1    0.0000
      4 O3        11.2699    5.4751    1.8444 O.2       1 RES1    0.0000
      5 O4         5.2923   14.2334   13.5989 O.2       1 RES1    0.0000
      6 O5        12.4632   -2.3012    6.2798 O.2       1 RES1    0.0000
      7 O6        12.4298   -3.1588    8.3217 O.2       1 RES1    0.0000
      8 C1         9.4914    5.7122   10.1511 C.ar      1 RES1    0.0000
      9 C2         8.9269    6.8781   10.6933 C.ar      1 RES1    0.0000
     10 H1         8.9207    7.6720   10.2080 H         1 RES1    0.0000
     11 C3         8.3837    6.8241   11.9570 C.ar      1 RES1    0.0000
     12 C4         8.3886    5.6934   12.7068 C.ar      1 RES1    0.0000
     13 H2         8.0172    5.6863   13.5587 H         1 RES1    0.0000
     14 C5         8.9592    4.5524   12.1746 C.ar      1 RES1    0.0000
     15 H3         8.9540    3.7723   12.6800 H         1 RES1    0.0000
     16 C6         9.5289    4.5252   10.9327 C.ar      1 RES1    0.0000
     17 C7        10.0736    3.2275   10.4657 C.2       1 RES1    0.0000
     18 H4        10.0032    2.5563   11.1051 H         1 RES1    0.0000
     19 C8        10.5733    2.8540    9.4699 C.2       1 RES1    0.0000
     20 H5        10.7220    3.5183    8.8372 H         1 RES1    0.0000
     21 C9        11.0120    1.4733    9.0514 C.ar      1 RES1    0.0000
     22 C10       11.1994    0.4130    9.8766 C.ar      1 RES1    0.0000
     23 H6        11.0698    0.5160   10.7921 H         1 RES1    0.0000
     24 C11       11.5785   -0.8070    9.3811 C.ar      1 RES1    0.0000
     25 H7        11.6634   -1.5199    9.9720 H         1 RES1    0.0000
     26 C12       11.8318   -1.0193    8.0757 C.ar      1 RES1    0.0000
     27 C13       11.6648    0.0580    7.2070 C.ar      1 RES1    0.0000
     28 H8        11.8321   -0.0428    6.2982 H         1 RES1    0.0000
     29 C14       11.2488    1.2740    7.7058 C.ar      1 RES1    0.0000
     30 H9        11.1244    1.9823    7.1166 H         1 RES1    0.0000
     31 C15        9.7243    6.7085    7.9936 C.3       1 RES1    0.0000
     32 H10       10.2054    7.5182    8.2246 H         1 RES1    0.0000
     33 H11        8.7737    6.8996    7.9987 H         1 RES1    0.0000
     34 C16       10.1536    6.2105    6.6329 C.ar      1 RES1    0.0000
     35 C17        9.9394    4.8778    6.2915 C.ar      1 RES1    0.0000
     36 H12        9.5045    4.3182    6.8923 H         1 RES1    0.0000
     37 C18       10.3589    4.3725    5.0797 C.ar      1 RES1    0.0000
     38 H13       10.2233    3.4769    4.8671 H         1 RES1    0.0000
     39 C19       10.9991    5.2374    4.1659 C.ar      1 RES1    0.0000
     40 C20       11.1574    6.5596    4.4738 C.ar      1 RES1    0.0000
     41 H14       11.5374    7.1295    3.8445 H         1 RES1    0.0000
     42 C21       10.7690    7.0660    5.6889 C.ar      1 RES1    0.0000
     43 H15       10.9090    7.9631    5.8898 H         1 RES1    0.0000
     44 C22       11.2973    4.7325    2.7951 C.2       1 RES1    0.0000
     45 C23       11.6833    3.2886    2.5507 C.ar      1 RES1    0.0000
     46 C24       12.3874    2.5409    3.5181 C.ar      1 RES1    0.0000
     47 H16       12.6226    2.9279    4.3316 H         1 RES1    0.0000
     48 C25       12.7252    1.2288    3.2470 C.ar      1 RES1    0.0000
     49 H17       13.2008    0.7383    3.8780 H         1 RES1    0.0000
     50 C26       12.3725    0.6440    2.0704 C.ar      1 RES1    0.0000
     51 H18       12.5786   -0.2470    1.9013 H         1 RES1    0.0000
     52 C27       11.7087    1.3932    1.1448 C.ar      1 RES1    0.0000
     53 H19       11.4843    1.0103    0.3280 H         1 RES1    0.0000
     54 C28       11.3663    2.6910    1.3858 C.ar      1 RES1    0.0000
     55 H20       10.9054    3.1706    0.7364 H         1 RES1    0.0000
     56 C29        7.0600    8.0398   13.5637 C.3       1 RES1    0.0000
     57 H21        7.5612    7.6946   14.3186 H         1 RES1    0.0000
     58 H22        6.2839    7.4734   13.4282 H         1 RES1    0.0000
     59 C30        6.6292    9.4347   13.8349 C.ar      1 RES1    0.0000
     60 C31        5.9382   10.1719   12.8625 C.ar      1 RES1    0.0000
     61 H23        5.7300    9.7808   12.0440 H         1 RES1    0.0000
     62 C32        5.5677   11.4681   13.1152 C.ar      1 RES1    0.0000
     63 H24        5.1213   11.9521   12.4591 H         1 RES1    0.0000
     64 C33        5.8502   12.0735   14.3420 C.ar      1 RES1    0.0000
     65 C34        6.5257   11.3259   15.3178 C.ar      1 RES1    0.0000
     66 H25        6.6947   11.6921   16.1547 H         1 RES1    0.0000
     67 C35        6.9375   10.0383   15.0232 C.ar      1 RES1    0.0000
     68 H26        7.4392    9.5697   15.6509 H         1 RES1    0.0000
     69 C36        5.4616   13.4914   14.5763 C.2       1 RES1    0.0000
     70 C37        5.3093   14.0870   15.9320 C.ar      1 RES1    0.0000
     71 C38        5.5279   15.4196   16.1295 C.ar      1 RES1    0.0000
     72 H27        5.7935   15.9432   15.4082 H         1 RES1    0.0000
     73 C39        5.3679   16.0121   17.3597 C.ar      1 RES1    0.0000
     74 H28        5.5919   16.9062   17.4853 H         1 RES1    0.0000
     75 C40        4.8643   15.2509   18.4192 C.ar      1 RES1    0.0000
     76 H29        4.7210   15.6344   19.2544 H         1 RES1    0.0000
     77 C41        4.5883   13.9294   18.1999 C.ar      1 RES1    0.0000
     78 H30        4.2555   13.4174   18.9012 H         1 RES1    0.0000
     79 C42        4.7853   13.3301   16.9764 C.ar      1 RES1    0.0000
     80 H31        4.5722   12.4342   16.8492 H         1 RES1    0.0000
@<TRIPOS>BOND
     1    1    6 2
     2    2    8 1
     3    3   11 1
     4    4   44 2
     5    5   69 2
     6    7    1 2
     7    8    9 ar
     8    9   10 1
     9   11    9 ar
    10   12   11 ar
    11   13   12 1
    12   14   12 ar
    13   15   14 1
    14   16    8 ar
    15   17   16 1
    16   18   17 1
    17   19   17 2
    18   20   19 1
    19   21   19 1
    20   22   21 ar
    21   23   22 1
    22   24   22 ar
    23   25   24 1
    24   26    1 1
    25   27   26 ar
    26   28   27 1
    27   29   21 ar
    28   30   29 1
    29   31    2 1
    30   32   31 1
    31   33   31 1
    32   34   31 1
    33   35   34 ar
    34   36   35 1
    35   37   35 ar
    36   38   37 1
    37   39   37 ar
    38   40   39 ar
    39   41   40 1
    40   42   34 ar
    41   43   42 1
    42   44   39 1
    43   45   44 1
    44   46   45 ar
    45   47   46 1
    46   48   46 ar
    47   49   48 1
    48   50   48 ar
    49   51   50 1
    50   52   50 ar
    51   53   52 1
    52   54   45 ar
    53   55   54 1
    54   56    3 1
    55   57   56 1
    56   58   56 1
    57   59   56 1
    58   60   59 ar
    59   61   60 1
    60   62   60 ar
    61   63   62 1
    62   64   62 ar
    63   65   64 ar
    64   66   65 1
    65   67   59 ar
    66   68   67 1
    67   69   64 1
    68   70   69 1
    69   71   70 ar
    70   72   71 1
    71   73   71 ar
    72   74   73 1
    73   75   73 ar
    74   76   75 1
    75   77   75 ar
    76   78   77 1
    77   79   70 ar
    78   80   79 1
    79   14   16 ar
    80   24   26 ar
    81   27   29 ar
    82   40   42 ar
    83   52   54 ar
    84   65   67 ar
    85   77   79 ar
@<TRIPOS>SUBSTRUCTURE
     1 RES1 1

@<TRIPOS>CRYSIN
   7.6682   13.1390   17.6660  71.5790  82.6820  75.6110   2 1

