# MOL2 file generated by ConQuest
# Please check atom types

@<TRIPOS>MOLECULE
BOPWIM
    42    44     2
SMALL
NO_CHARGES
****
Generated from CSD

@<TRIPOS>ATOM
      1 C1        10.5037   12.2402    7.2362 C.3       1 RES1    0.0000
      2 C2        11.7101   11.4462    7.7973 C.3       1 RES1    0.0000
      3 C3        12.5402   12.7198    7.4547 C.3       1 RES1    0.0000
      4 C4         8.5146   12.2876    5.9084 C.3       1 RES1    0.0000
      5 C5        12.7040   13.6631    8.6570 C.3       1 RES1    0.0000
      6 C6        13.8452   12.6207    6.6789 C.2       1 RES1    0.0000
      7 C7        16.1892   12.0837    6.5160 C.3       1 RES1    0.0000
      8 C8        16.3323   11.0916    5.3925 C.3       1 RES1    0.0000
      9 C9        14.8896   11.2639    8.4889 C.3       1 RES1    0.0000
     10 C10       15.5097    9.8582    8.4346 C.3       1 RES1    0.0000
     11 C11       12.0555   10.1482    7.0991 C.ar      1 RES1    0.0000
     12 C12       12.0329    8.9580    7.8761 C.ar      1 RES1    0.0000
     13 C13       12.3998    7.7447    7.1948 C.ar      1 RES1    0.0000
     14 C14       12.6717    7.7232    5.9097 C.ar      1 RES1    0.0000
     15 C15       12.6535    8.8776    5.1159 C.ar      1 RES1    0.0000
     16 C16       12.3504   10.0922    5.7571 C.ar      1 RES1    0.0000
     17 N1        11.4624   13.0801    6.5096 N.3       1 RES1    0.0000
     18 N2        14.8894   11.9272    7.1870 N.am      1 RES1    0.0000
     19 O1         9.6431   11.4979    6.4307 O.3       1 RES1    0.0000
     20 O2        13.9622   13.2036    5.5852 O.2       1 RES1    0.0000
     21 O3        11.0556   14.4829    6.5380 O.3       1 RES1    0.0000
     22 C17       10.8158   -0.3920    2.1720 C.3       2 RES2    0.0000
     23 C18       10.1058    0.9577    1.7932 C.3       2 RES2    0.0000
     24 C19       11.2164    1.6239    2.6659 C.3       2 RES2    0.0000
     25 C20       10.6846   -2.6491    2.7809 C.3       2 RES2    0.0000
     26 C21       12.4104    2.0991    1.8023 C.3       2 RES2    0.0000
     27 C22       10.8179    2.7122    3.6743 C.2       2 RES2    0.0000
     28 C23        9.8768    4.8587    4.2833 C.3       2 RES2    0.0000
     29 C24        8.4352    4.6620    4.5625 C.3       2 RES2    0.0000
     30 C25       10.0522    4.2729    1.8824 C.3       2 RES2    0.0000
     31 C26       11.0330    5.4144    1.3808 C.3       2 RES2    0.0000
     32 C27        8.6715    1.0812    2.2379 C.ar      2 RES2    0.0000
     33 C28        8.2328    0.8744    3.5515 C.ar      2 RES2    0.0000
     34 C29        6.8979    0.9893    3.9032 C.ar      2 RES2    0.0000
     35 C30        5.9497    1.2822    2.9387 C.ar      2 RES2    0.0000
     36 C31        6.3413    1.5076    1.6587 C.ar      2 RES2    0.0000
     37 C32        7.7091    1.4229    1.2825 C.ar      2 RES2    0.0000
     38 N3        11.4022    0.3116    3.3330 N.3       2 RES2    0.0000
     39 N4        10.3414    3.9068    3.2813 N.am      2 RES2    0.0000
     40 O4         9.9583   -1.4100    2.4732 O.3       2 RES2    0.0000
     41 O5        10.9275    2.4409    4.9064 O.2       2 RES2    0.0000
     42 O6        12.8173   -0.0172    3.5127 O.3       2 RES2    0.0000
@<TRIPOS>BOND
     1    1    2 1
     2    2    3 1
     3    3    5 1
     4    4   19 1
     5    6    3 1
     6    7    8 1
     7    9   10 1
     8   11    2 1
     9   12   11 ar
    10   13   12 ar
    11   14   13 ar
    12   15   14 ar
    13   16   11 ar
    14   17    1 1
    15   18    6 1
    16   19    1 1
    17   20    6 2
    18   21   17 1
    19   22   23 1
    20   23   24 1
    21   24   26 1
    22   25   40 1
    23   27   24 1
    24   28   29 1
    25   30   31 1
    26   32   23 1
    27   33   32 ar
    28   34   33 ar
    29   35   34 ar
    30   36   35 ar
    31   37   32 ar
    32   38   22 1
    33   39   27 1
    34   40   22 1
    35   41   27 2
    36   42   38 1
    37    3   17 1
    38    7   18 1
    39    9   18 1
    40   15   16 ar
    41   24   38 1
    42   28   39 1
    43   30   39 1
    44   36   37 ar
@<TRIPOS>SUBSTRUCTURE
     1 RES1 1
     2 RES2 22

@<TRIPOS>CRYSIN
  17.6470   14.3580   13.9430  90.0000 111.9900  90.0000  14 1

