# MOL2 file generated by ConQuest
# Please check atom types

@<TRIPOS>MOLECULE
BOQHAQ
    49    50     1
SMALL
USER_CHARGES
****
Generated from CSD

@<TRIPOS>ATOM
      1 N1         5.9876   19.3693    7.9207 N.pl3     1 RES1    0.0000
      2 N2         4.8512   16.2491   11.4281 N.pl3     1 RES1    0.0000
      3 N3         7.2491   14.5234    7.6134 N.pl3     1 RES1    0.0000
      4 N4         5.3471   16.4730    3.2159 N.4       1 RES1    1.0000
      5 O1         6.4772   19.6447    6.8144 O.2       1 RES1    0.0000
      6 O2         5.4394   20.2459    8.6246 O.2       1 RES1    0.0000
      7 O3         4.5193   17.2300   12.1180 O.2       1 RES1    0.0000
      8 O4         4.6549   15.0807   11.7731 O.2       1 RES1    0.0000
      9 O5         7.3019   13.4515    8.2181 O.2       1 RES1    0.0000
     10 O6         7.7034   14.6551    6.4635 O.2       1 RES1    0.0000
     11 O7         5.9330   16.8679    6.2771 O.3       1 RES1    0.0000
     12 O8         7.9990   17.3320    7.1733 O.3       1 RES1    0.0000
     13 C1         6.6717   16.9667    7.4965 C.3       1 RES1    0.0000
     14 C2         6.0434   18.0319    8.4164 C.2       1 RES1    0.0000
     15 C3         5.5042   17.7873    9.6338 C.2       1 RES1    0.0000
     16 H1         5.1421   18.5026   10.1433 H         1 RES1    0.0000
     17 C4         5.4776   16.4828   10.1493 C.2       1 RES1   -1.0000
     18 C5         6.0655   15.4417    9.4672 C.2       1 RES1    0.0000
     19 H2         6.0725   14.5717    9.8479 H         1 RES1    0.0000
     20 C6         6.6411   15.6545    8.2439 C.2       1 RES1    0.0000
     21 C7         6.7500   17.3792    5.1867 C.3       1 RES1    0.0000
     22 H3         6.4529   18.3095    4.9666 H         1 RES1    0.0000
     23 C8         8.1464   17.4329    5.7418 C.3       1 RES1    0.0000
     24 H4         8.6887   16.6814    5.3928 H         1 RES1    0.0000
     25 H5         8.5873   18.2843    5.4940 H         1 RES1    0.0000
     26 C9         6.6711   16.5695    3.9891 C.3       1 RES1    0.0000
     27 H6         6.9353   15.6479    4.2389 H         1 RES1    0.0000
     28 H7         7.3571   16.9052    3.3606 H         1 RES1    0.0000
     29 C10        4.2059   15.9979    4.0962 C.3       1 RES1    0.0000
     30 H8         3.3765   16.0078    3.5569 H         1 RES1    0.0000
     31 H9         4.0881   16.6562    4.8278 H         1 RES1    0.0000
     32 C11        4.3455   14.6046    4.7306 C.3       1 RES1    0.0000
     33 H10        3.5555   14.4137    5.2779 H         1 RES1    0.0000
     34 H11        5.1468   14.5805    5.2937 H         1 RES1    0.0000
     35 H12        4.4225   13.9299    4.0228 H         1 RES1    0.0000
     36 C12        5.6110   15.4538    2.1254 C.3       1 RES1    0.0000
     37 H13        5.9109   14.6134    2.5557 H         1 RES1    0.0000
     38 H14        4.7531   15.2618    1.6694 H         1 RES1    0.0000
     39 C13        6.6257   15.8323    1.0786 C.3       1 RES1    0.0000
     40 H15        6.6591   15.1367    0.3886 H         1 RES1    0.0000
     41 H16        7.5081   15.9222    1.4949 H         1 RES1    0.0000
     42 H17        6.3696   16.6858    0.6682 H         1 RES1    0.0000
     43 C14        4.9854   17.8367    2.5794 C.3       1 RES1    0.0000
     44 H18        4.8235   18.4872    3.3091 H         1 RES1    0.0000
     45 H19        5.7675   18.1581    2.0659 H         1 RES1    0.0000
     46 C15        3.8104   17.8388    1.6872 C.3       1 RES1    0.0000
     47 H20        3.6778   18.7396    1.3244 H         1 RES1    0.0000
     48 H21        3.0158   17.5701    2.1948 H         1 RES1    0.0000
     49 H22        3.9582   17.2080    0.9517 H         1 RES1    0.0000
@<TRIPOS>BOND
     1    1    5 2
     2    2    7 2
     3    3    9 2
     4    4   26 1
     5    6    1 2
     6    8    2 2
     7   10    3 2
     8   11   13 1
     9   12   13 1
    10   13   14 1
    11   14    1 1
    12   15   14 2
    13   16   15 1
    14   17    2 1
    15   18   17 1
    16   19   18 1
    17   20    3 1
    18   21   11 1
    19   22   21 1
    20   23   12 1
    21   24   23 1
    22   25   23 1
    23   26   21 1
    24   27   26 1
    25   28   26 1
    26   29    4 1
    27   30   29 1
    28   31   29 1
    29   32   29 1
    30   33   32 1
    31   34   32 1
    32   35   32 1
    33   36    4 1
    34   37   36 1
    35   38   36 1
    36   39   36 1
    37   40   39 1
    38   41   39 1
    39   42   39 1
    40   43    4 1
    41   44   43 1
    42   45   43 1
    43   46   43 1
    44   47   46 1
    45   48   46 1
    46   49   46 1
    47   13   20 1
    48   15   17 1
    49   18   20 2
    50   21   23 1
@<TRIPOS>SUBSTRUCTURE
     1 RES1 1

@<TRIPOS>CRYSIN
   7.8790   10.9710   19.8310  90.0000  91.2000  90.0000  14 1

