# MOL2 file generated by ConQuest
# Please check atom types

@<TRIPOS>MOLECULE
BOQHEU
    37    38     1
SMALL
NO_CHARGES
****
Generated from CSD

@<TRIPOS>ATOM
      1 N1         8.3592    2.1687    0.8440 N.ar      1 RES1    0.0000
      2 N2         8.0658    0.2153    3.9967 N.pl3     1 RES1    0.0000
      3 N3         6.0886    4.4375    2.6315 N.pl3     1 RES1    0.0000
      4 O1         8.4999   -0.8439    3.6461 O.2       1 RES1    0.0000
      5 O2         7.6723    0.4032    5.1032 O.2       1 RES1    0.0000
      6 O3         5.3673    4.4002    3.6020 O.2       1 RES1    0.0000
      7 O4         6.1450    5.3986    1.8731 O.2       1 RES1    0.0000
      8 O5         9.3750    0.2197    1.4784 O.3       1 RES1    0.0000
      9 O6        11.1587    2.0606    1.6337 O.2       1 RES1    0.0000
     10 C1         8.5674    1.2370    1.7646 C.ar      1 RES1    0.0000
     11 C2         7.9260    1.2754    3.0071 C.ar      1 RES1    0.0000
     12 C3         7.1101    2.3274    3.3218 C.ar      1 RES1    0.0000
     13 H1         6.6958    2.4052    4.1374 H         1 RES1    0.0000
     14 C4         6.9480    3.3047    2.3608 C.ar      1 RES1    0.0000
     15 C5         7.5789    3.1915    1.1399 C.ar      1 RES1    0.0000
     16 H2         7.4128    3.9110    0.4769 H         1 RES1    0.0000
     17 C6        10.2445    0.3557    0.3756 C.2       1 RES1    0.0000
     18 C7        11.2008    1.4330    0.5723 C.2       1 RES1    0.0000
     19 C8        12.1767    1.8241   -0.4435 C.2       1 RES1    0.0000
     20 C9        12.4433    1.1885   -1.6108 C.2       1 RES1    0.0000
     21 H3        13.1290    1.6069   -2.1104 H         1 RES1    0.0000
     22 C10       11.9258    0.0162   -2.2022 C.2       1 RES1    0.0000
     23 C11       10.9219   -0.7489   -1.7277 C.2       1 RES1    0.0000
     24 H4        10.6603   -1.5361   -2.1820 H         1 RES1    0.0000
     25 C12       10.0961   -0.6155   -0.5628 C.2       1 RES1    0.0000
     26 C13       12.9464    3.0621   -0.0906 C.3       1 RES1    0.0000
     27 H5        13.4594    2.9045    0.7059 H         1 RES1    0.0000
     28 H6        12.3349    3.7867    0.0620 H         1 RES1    0.0000
     29 H7        13.5376    3.2885   -0.8120 H         1 RES1    0.0000
     30 C14       12.5794   -0.3921   -3.5090 C.3       1 RES1    0.0000
     31 H8        12.4475    0.2991   -4.1624 H         1 RES1    0.0000
     32 H9        12.1854   -1.2087   -3.8238 H         1 RES1    0.0000
     33 H10       13.5201   -0.5255   -3.3683 H         1 RES1    0.0000
     34 C15        9.0028   -1.6341   -0.4006 C.3       1 RES1    0.0000
     35 H11        8.9205   -2.1465   -1.2090 H         1 RES1    0.0000
     36 H12        8.1709   -1.1875   -0.2146 H         1 RES1    0.0000
     37 H13        9.2169   -2.2203    0.3291 H         1 RES1    0.0000
@<TRIPOS>BOND
     1    1   10 ar
     2    2    4 2
     3    3    6 2
     4    5    2 2
     5    7    3 2
     6    8   10 1
     7    9   18 2
     8   10   11 ar
     9   11    2 1
    10   12   11 ar
    11   13   12 1
    12   14    3 1
    13   15    1 ar
    14   16   15 1
    15   17    8 1
    16   18   17 1
    17   19   18 1
    18   20   19 2
    19   21   20 1
    20   22   20 1
    21   23   22 2
    22   24   23 1
    23   25   17 2
    24   26   19 1
    25   27   26 1
    26   28   26 1
    27   29   26 1
    28   30   22 1
    29   31   30 1
    30   32   30 1
    31   33   30 1
    32   34   25 1
    33   35   34 1
    34   36   34 1
    35   37   34 1
    36   12   14 ar
    37   14   15 ar
    38   23   25 1
@<TRIPOS>SUBSTRUCTURE
     1 RES1 1

@<TRIPOS>CRYSIN
  12.9960   10.1060   12.7170  90.0000 110.3500  90.0000  14 1

