# MOL2 file generated by ConQuest
# Please check atom types

@<TRIPOS>MOLECULE
BOQJAS
    37    39     1
SMALL
NO_CHARGES
****
Generated from CSD

@<TRIPOS>ATOM
      1 N1         2.9752   11.4104    0.9324 N.2       1 RES1    0.0000
      2 N2         2.3499   11.9447   -0.1452 N.pl3     1 RES1    0.0000
      3 N3         0.3339    8.6717   -4.2636 N.pl3     1 RES1    0.0000
      4 N4         1.5059    9.2116    0.4122 N.pl3     1 RES1    0.0000
      5 O1         4.5193    9.8766    2.4365 O.3       1 RES1    0.0000
      6 H1         4.0020   10.0331    1.8196 H         1 RES1    0.0000
      7 O2         0.0895    9.1927   -5.3403 O.2       1 RES1    0.0000
      8 O3         0.1334    7.4975   -4.0195 O.2       1 RES1    0.0000
      9 O4         2.2769    8.2973    0.6297 O.2       1 RES1    0.0000
     10 O5         0.6771    9.6732    1.1858 O.2       1 RES1    0.0000
     11 C1         1.8560   11.1167   -1.1631 C.ar      1 RES1    0.0000
     12 C2         1.6856   11.6345   -2.4506 C.ar      1 RES1    0.0000
     13 H2         1.9209   12.5158   -2.6323 H         1 RES1    0.0000
     14 C3         1.1707   10.8406   -3.4494 C.ar      1 RES1    0.0000
     15 H3         1.0146   11.2007   -4.2927 H         1 RES1    0.0000
     16 C4         0.8854    9.5240   -3.2095 C.ar      1 RES1    0.0000
     17 C5         1.0828    8.9635   -1.9627 C.ar      1 RES1    0.0000
     18 H4         0.9217    8.0597   -1.8144 H         1 RES1    0.0000
     19 C6         1.5240    9.7769   -0.9455 C.ar      1 RES1    0.0000
     20 C7         2.2857   13.3029   -0.0502 C.2       1 RES1    0.0000
     21 H5         1.9000   13.8759   -0.6730 H         1 RES1    0.0000
     22 C8         2.8813   13.6754    1.1084 C.2       1 RES1    0.0000
     23 C9         3.3031   12.4383    1.7056 C.2       1 RES1    0.0000
     24 C10        3.0220   15.0905    1.5783 C.3       1 RES1    0.0000
     25 H6         2.7501   15.6878    0.8787 H         1 RES1    0.0000
     26 H7         3.9379   15.2624    1.8079 H         1 RES1    0.0000
     27 H8         2.4670   15.2282    2.3502 H         1 RES1    0.0000
     28 C11        3.9563   12.1843    3.0055 C.ar      1 RES1    0.0000
     29 C12        4.5008   10.9172    3.3213 C.ar      1 RES1    0.0000
     30 C13        5.0380   10.6886    4.5712 C.ar      1 RES1    0.0000
     31 H9         5.4017    9.8545    4.7664 H         1 RES1    0.0000
     32 C14        5.0460   11.6629    5.5249 C.ar      1 RES1    0.0000
     33 H10        5.3916   11.4879    6.3698 H         1 RES1    0.0000
     34 C15        4.5396   12.9055    5.2282 C.ar      1 RES1    0.0000
     35 H11        4.5574   13.5777    5.8703 H         1 RES1    0.0000
     36 C16        4.0096   13.1581    3.9967 C.ar      1 RES1    0.0000
     37 H12        3.6742   14.0063    3.8152 H         1 RES1    0.0000
@<TRIPOS>BOND
     1    1    2 1
     2    2   11 1
     3    3    7 2
     4    4    9 2
     5    5    6 1
     6    8    3 2
     7   10    4 2
     8   11   12 ar
     9   12   13 1
    10   14   12 ar
    11   15   14 1
    12   16    3 1
    13   17   16 ar
    14   18   17 1
    15   19    4 1
    16   20    2 1
    17   21   20 1
    18   22   20 2
    19   23    1 2
    20   24   22 1
    21   25   24 1
    22   26   24 1
    23   27   24 1
    24   28   23 1
    25   29    5 1
    26   30   29 ar
    27   31   30 1
    28   32   30 ar
    29   33   32 1
    30   34   32 ar
    31   35   34 1
    32   36   28 ar
    33   37   36 1
    34   11   19 ar
    35   14   16 ar
    36   17   19 ar
    37   22   23 1
    38   28   29 ar
    39   34   36 ar
@<TRIPOS>SUBSTRUCTURE
     1 RES1 1

@<TRIPOS>CRYSIN
   7.5598   15.5263   13.0732  90.0000  98.1394  90.0000  14 1

