# MOL2 file generated by ConQuest
# Please check atom types

@<TRIPOS>MOLECULE
BOQKUN
    35    37     1
SMALL
NO_CHARGES
****
Generated from CSD

@<TRIPOS>ATOM
      1 O1         3.4111    2.9441   10.4108 O.3       1 RES1    0.0000
      2 O2         5.0343    5.2958   11.3394 O.2       1 RES1    0.0000
      3 O3         1.5956    6.6800    8.7006 O.2       1 RES1    0.0000
      4 N1         2.3145    2.3099    9.6899 N.3       1 RES1    0.0000
      5 N2         3.5123    6.1961    9.8758 N.am      1 RES1    0.0000
      6 C1         1.7174    3.4458    8.9472 C.3       1 RES1    0.0000
      7 C2         1.7730    4.6097    9.9939 C.3       1 RES1    0.0000
      8 H1         0.9243    4.6923   10.4767 H         1 RES1    0.0000
      9 C3         2.2133    5.9395    9.4329 C.2       1 RES1    0.0000
     10 C4         3.9632    5.2604   10.7776 C.2       1 RES1    0.0000
     11 C5         2.8934    4.1973   10.9259 C.3       1 RES1    0.0000
     12 H2         2.5861    4.1139   11.8533 H         1 RES1    0.0000
     13 C6         0.2879    3.1712    8.4842 C.3       1 RES1    0.0000
     14 H3        -0.0799    3.9801    8.0954 H         1 RES1    0.0000
     15 H4        -0.2554    2.9391    9.2547 H         1 RES1    0.0000
     16 C7         0.2086    2.0373    7.4542 C.3       1 RES1    0.0000
     17 H5         0.4878    1.2047    7.8660 H         1 RES1    0.0000
     18 H6        -0.7088    1.9326    7.1559 H         1 RES1    0.0000
     19 C8         1.0979    2.3363    6.2616 C.3       1 RES1    0.0000
     20 H7         0.7682    3.1240    5.8011 H         1 RES1    0.0000
     21 H8         1.0692    1.5919    5.6417 H         1 RES1    0.0000
     22 C9         2.5374    2.5732    6.7084 C.3       1 RES1    0.0000
     23 H9         2.8909    1.7619    7.1052 H         1 RES1    0.0000
     24 H10        3.0833    2.7935    5.9363 H         1 RES1    0.0000
     25 C10        2.6092    3.7079    7.7223 C.3       1 RES1    0.0000
     26 H11        2.3313    4.5341    7.2960 H         1 RES1    0.0000
     27 H12        3.5279    3.8165    8.0133 H         1 RES1    0.0000
     28 C11        4.2855    7.3599    9.4725 C.3       1 RES1    0.0000
     29 H13        4.3348    7.9800   10.2038 H         1 RES1    0.0000
     30 H14        3.8602    7.7824    8.7233 H         1 RES1    0.0000
     31 H15        5.1710    7.0852    9.2257 H         1 RES1    0.0000
     32 C12        1.4483    1.6958   10.6965 C.3       1 RES1    0.0000
     33 H16        1.9616    1.0859   11.2326 H         1 RES1    0.0000
     34 H17        0.7382    1.2189   10.2593 H         1 RES1    0.0000
     35 H18        1.0760    2.3788   11.2592 H         1 RES1    0.0000
@<TRIPOS>BOND
     1    1    4 1
     2    2   10 2
     3    3    9 2
     4    4    6 1
     5    5    9 1
     6    6    7 1
     7    7    8 1
     8    9    7 1
     9   10    5 1
    10   11    1 1
    11   12   11 1
    12   13    6 1
    13   14   13 1
    14   15   13 1
    15   16   13 1
    16   17   16 1
    17   18   16 1
    18   19   16 1
    19   20   19 1
    20   21   19 1
    21   22   19 1
    22   23   22 1
    23   24   22 1
    24   25    6 1
    25   26   25 1
    26   27   25 1
    27   28    5 1
    28   29   28 1
    29   30   28 1
    30   31   28 1
    31   32    4 1
    32   33   32 1
    33   34   32 1
    34   35   32 1
    35    7   11 1
    36   10   11 1
    37   22   25 1
@<TRIPOS>SUBSTRUCTURE
     1 RES1 1

@<TRIPOS>CRYSIN
   6.2452    7.8690   24.1510  90.0000  90.0000  90.0000  19 1

