# MOL2 file generated by ConQuest
# Please check atom types

@<TRIPOS>MOLECULE
BOQQUV
    35    36     1
SMALL
NO_CHARGES
****
Generated from CSD

@<TRIPOS>ATOM
      1 O1         0.3015   11.7703    0.7967 O.2       1 RES1    0.0000
      2 O2        -2.8542    6.0638    5.9296 O.2       1 RES1    0.0000
      3 O3        -3.6562    7.6032    7.2189 O.2       1 RES1    0.0000
      4 N1        -1.4457   13.5161    1.8718 N.pl3     1 RES1    0.0000
      5 H1        -0.8024   13.3552    1.1893 H         1 RES1    0.0000
      6 N2        -3.0373    7.2476    6.2130 N.pl3     1 RES1    0.0000
      7 C1        -1.5605   16.8559    0.8014 C.ar      1 RES1    0.0000
      8 H2        -1.9937   16.6020   -0.0050 H         1 RES1    0.0000
      9 C2        -0.9195   18.0849    0.8785 C.ar      1 RES1    0.0000
     10 H3        -0.9263   18.6724    0.1319 H         1 RES1    0.0000
     11 C3        -0.2701   18.4531    2.0440 C.ar      1 RES1    0.0000
     12 H4         0.1838   19.2866    2.0925 H         1 RES1    0.0000
     13 C4        -0.2836   17.6063    3.1340 C.ar      1 RES1    0.0000
     14 H5         0.1540   17.8616    3.9386 H         1 RES1    0.0000
     15 C5        -0.9322   16.3884    3.0576 C.ar      1 RES1    0.0000
     16 H6        -0.9392   15.8121    3.8118 H         1 RES1    0.0000
     17 C6        -1.5754   15.9973    1.8862 C.ar      1 RES1    0.0000
     18 C7        -2.3161   14.6862    1.8118 C.3       1 RES1    0.0000
     19 H7        -2.9627   14.6422    2.5602 H         1 RES1    0.0000
     20 H8        -2.8318   14.6578    0.9679 H         1 RES1    0.0000
     21 C8        -1.6755   12.5111    2.6814 C.2       1 RES1    0.0000
     22 H9        -2.3359   12.6486    3.3490 H         1 RES1    0.0000
     23 C9        -1.0533   11.2578    2.6677 C.2       1 RES1    0.0000
     24 C10       -0.0849   10.9761    1.6688 C.2       1 RES1    0.0000
     25 H10        0.2994   10.1072    1.6670 H         1 RES1    0.0000
     26 C11       -1.5108   10.2233    3.6077 C.ar      1 RES1    0.0000
     27 C12       -2.1199   10.5597    4.8289 C.ar      1 RES1    0.0000
     28 H11       -2.1761   11.4736    5.0807 H         1 RES1    0.0000
     29 C13       -2.6358    9.6026    5.6656 C.ar      1 RES1    0.0000
     30 H12       -3.0818    9.8547    6.4665 H         1 RES1    0.0000
     31 C14       -2.4984    8.2653    5.3315 C.ar      1 RES1    0.0000
     32 C15       -1.8779    7.8804    4.1613 C.ar      1 RES1    0.0000
     33 H13       -1.7778    6.9594    3.9486 H         1 RES1    0.0000
     34 C16       -1.4045    8.8520    3.3042 C.ar      1 RES1    0.0000
     35 H14       -0.9960    8.5899    2.4881 H         1 RES1    0.0000
@<TRIPOS>BOND
     1    1   24 2
     2    2    6 2
     3    3    6 2
     4    4    5 1
     5    6   31 1
     6    7    8 1
     7    9    7 ar
     8   10    9 1
     9   11    9 ar
    10   12   11 1
    11   13   11 ar
    12   14   13 1
    13   15   13 ar
    14   16   15 1
    15   17    7 ar
    16   18    4 1
    17   19   18 1
    18   20   18 1
    19   21    4 1
    20   22   21 1
    21   23   21 2
    22   24   23 1
    23   25   24 1
    24   26   23 1
    25   27   26 ar
    26   28   27 1
    27   29   27 ar
    28   30   29 1
    29   31   29 ar
    30   32   31 ar
    31   33   32 1
    32   34   26 ar
    33   35   34 1
    34   15   17 ar
    35   17   18 1
    36   32   34 ar
@<TRIPOS>SUBSTRUCTURE
     1 RES1 1

@<TRIPOS>CRYSIN
   4.1847   13.0130   24.9190  90.0000  93.1690  90.0000 231 1

