# MOL2 file generated by ConQuest
# Please check atom types

@<TRIPOS>MOLECULE
BOQWUZ
    19    20     1
SMALL
NO_CHARGES
****
Generated from CSD

@<TRIPOS>ATOM
      1 O1         1.4896    1.2554    5.8013 O.3       1 RES1    0.0000
      2 O2        -0.6099    0.6872    5.2821 O.2       1 RES1    0.0000
      3 O3         1.1216   -0.1965    4.1572 O.3       1 RES1    0.0000
      4 O4         3.9670    1.8117    7.5936 O.2       1 RES1    0.0000
      5 O5         4.9045   -0.1082    8.0246 O.2       1 RES1    0.0000
      6 O6         3.0242   -2.2077    2.6821 O.2       1 RES1    0.0000
      7 O7         4.2078   -3.2048    4.2140 O.2       1 RES1    0.0000
      8 N1         3.4001    0.0221    6.4255 N.3       1 RES1    0.0000
      9 N2         4.1567    0.6234    7.4022 N.pl3     1 RES1    0.0000
     10 N3         3.1009   -1.3646    4.7144 N.3       1 RES1    0.0000
     11 N4         3.4808   -2.3123    3.7994 N.pl3     1 RES1    0.0000
     12 C1         2.7969    0.8478    5.4063 C.3       1 RES1    0.0000
     13 H1         3.2616    1.6266    5.2016 H         1 RES1    0.0000
     14 C2         2.5501   -0.1204    4.2478 C.3       1 RES1    0.0000
     15 H2         2.8379    0.1098    3.3974 H         1 RES1    0.0000
     16 C3         0.5555    0.5854    5.1048 C.2       1 RES1    0.0000
     17 C4         3.8184   -1.3000    5.9839 C.3       1 RES1    0.0000
     18 H3         3.5104   -1.9758    6.5271 H         1 RES1    0.0000
     19 H4         4.7612   -1.3372    5.8018 H         1 RES1    0.0000
@<TRIPOS>BOND
     1    1   12 1
     2    2   16 2
     3    3   14 1
     4    4    9 2
     5    5    9 2
     6    6   11 2
     7    7   11 2
     8    8    9 1
     9   10   11 1
    10   12    8 1
    11   13   12 1
    12   14   10 1
    13   15   14 1
    14   16    1 1
    15   17    8 1
    16   18   17 1
    17   19   17 1
    18    3   16 1
    19   10   17 1
    20   12   14 1
@<TRIPOS>SUBSTRUCTURE
     1 RES1 1

@<TRIPOS>CRYSIN
   6.7249    9.9790   11.1574  90.0000  90.0000  90.0000  19 1

