# MOL2 file generated by ConQuest
# Please check atom types

@<TRIPOS>MOLECULE
BORHAS
    30    30     1
SMALL
NO_CHARGES
****
Generated from CSD

@<TRIPOS>ATOM
      1 O1        -0.6964    2.9498   17.8610 O.3       1 RES1    0.0000
      2 O2         3.7224    7.2304   17.3221 O.2       1 RES1    0.0000
      3 O3         3.3096    3.9162   13.7215 O.3       1 RES1    0.0000
      4 O4        -2.1870    1.9984   15.9675 O.2       1 RES1    0.0000
      5 O5        -3.0606    0.5201   17.2729 O.2       1 RES1    0.0000
      6 N1        -2.2950    1.4483   17.0648 N.pl3     1 RES1    0.0000
      7 N2         1.3158    4.8185   18.0276 N.2       1 RES1    0.0000
      8 N3         2.2031    5.8326   18.1906 N.am      1 RES1    0.0000
      9 H1         2.4519    6.0961   19.0763 H         1 RES1    0.0000
     10 N4         2.7209    5.6852   15.9635 N.am      1 RES1    0.0000
     11 H2         2.3629    4.7284   16.0305 H         1 RES1    0.0000
     12 C1        -1.5734    1.9506   18.1488 C.2       1 RES1    0.0000
     13 C2        -1.6306    1.6639   19.4522 C.2       1 RES1    0.0000
     14 H3        -2.1398    1.0060   19.8664 H         1 RES1    0.0000
     15 C3        -0.7531    2.5758   20.0610 C.2       1 RES1    0.0000
     16 H4        -0.5783    2.6522   20.9713 H         1 RES1    0.0000
     17 C4        -0.2107    3.3210   19.0744 C.2       1 RES1    0.0000
     18 C5         0.7571    4.3762   19.1106 C.2       1 RES1    0.0000
     19 H5         0.9905    4.7502   19.9293 H         1 RES1    0.0000
     20 C6         2.9460    6.2927   17.1431 C.2       1 RES1    0.0000
     21 C7         3.5223    6.0142   14.7824 C.3       1 RES1    0.0000
     22 H6         4.1724    6.6953   15.0190 H         1 RES1    0.0000
     23 H7         2.9437    6.3800   14.0954 H         1 RES1    0.0000
     24 C8         4.2359    4.8212   14.2404 C.3       1 RES1    0.0000
     25 H8         4.8513    5.0955   13.5439 H         1 RES1    0.0000
     26 H9         4.7479    4.3967   14.9465 H         1 RES1    0.0000
     27 C9         3.9217    2.6781   13.4294 C.3       1 RES1    0.0000
     28 H10        3.2533    2.0489   13.1450 H         1 RES1    0.0000
     29 H11        4.3612    2.3437   14.2156 H         1 RES1    0.0000
     30 H12        4.5669    2.7969   12.7290 H         1 RES1    0.0000
@<TRIPOS>BOND
     1    1   12 1
     2    2   20 2
     3    3   24 1
     4    4    6 2
     5    5    6 2
     6    6   12 1
     7    7    8 1
     8    8    9 1
     9   10   11 1
    10   12   13 2
    11   13   14 1
    12   15   13 1
    13   16   15 1
    14   17    1 1
    15   18    7 2
    16   19   18 1
    17   20    8 1
    18   21   10 1
    19   22   21 1
    20   23   21 1
    21   24   21 1
    22   25   24 1
    23   26   24 1
    24   27    3 1
    25   28   27 1
    26   29   27 1
    27   30   27 1
    28   10   20 1
    29   15   17 2
    30   17   18 1
@<TRIPOS>SUBSTRUCTURE
     1 RES1 1

@<TRIPOS>CRYSIN
   4.4880   13.6500   19.1160  90.0000  93.3200  90.0000 231 1

