# MOL2 file generated by ConQuest
# Please check atom types

@<TRIPOS>MOLECULE
BORHIA
    72    74     2
SMALL
NO_CHARGES
****
Generated from CSD

@<TRIPOS>ATOM
      1 O1        -2.9109   12.2053    6.6646 O.3       1 RES1    0.0000
      2 O2         1.9648    8.4522    3.6181 O.2       1 RES1    0.0000
      3 O3        -5.2935   13.1607    7.1195 O.2       1 RES1    0.0000
      4 O4        -4.5053   14.6932    8.4571 O.2       1 RES1    0.0000
      5 N1        -4.3679   13.7335    7.6911 N.pl3     1 RES1    0.0000
      6 N2         0.0766   10.6427    5.5696 N.2       1 RES1    0.0000
      7 N3         0.4020    9.5663    4.8052 N.am      1 RES1    0.0000
      8 H1        -0.2966    9.0194    4.3283 H         1 RES1    0.0000
      9 N4         2.6072   10.2643    4.8610 N.am      1 RES1    0.0000
     10 H2         2.2934   10.9114    5.3988 H         1 RES1    0.0000
     11 C1        -3.0441   13.2934    7.4602 C.2       1 RES1    0.0000
     12 C2        -1.8608   13.7719    7.8729 C.2       1 RES1    0.0000
     13 H3        -1.7139   14.5090    8.4208 H         1 RES1    0.0000
     14 C3        -0.8884   12.9280    7.3047 C.2       1 RES1    0.0000
     15 H4         0.0325   12.9953    7.4053 H         1 RES1    0.0000
     16 C4        -1.5687   11.9812    6.5699 C.2       1 RES1    0.0000
     17 C5        -1.1659   10.8601    5.7759 C.2       1 RES1    0.0000
     18 H5        -1.8061   10.2925    5.4106 H         1 RES1    0.0000
     19 C6         1.7050    9.3862    4.3918 C.2       1 RES1    0.0000
     20 C7         4.0001   10.2448    4.4509 C.3       1 RES1    0.0000
     21 H6         4.2815   11.1491    4.2413 H         1 RES1    0.0000
     22 H7         4.0863    9.7130    3.6443 H         1 RES1    0.0000
     23 C8         4.9165    9.6727    5.5273 C.3       1 RES1    0.0000
     24 H8         4.8376   10.2079    6.3323 H         1 RES1    0.0000
     25 H9         4.6346    8.7697    5.7404 H         1 RES1    0.0000
     26 C9         6.3656    9.6519    5.0826 C.ar      1 RES1    0.0000
     27 C10        6.7745    8.8104    4.0628 C.ar      1 RES1    0.0000
     28 H10        6.1408    8.2806    3.6358 H         1 RES1    0.0000
     29 C11        8.0930    8.7333    3.6595 C.ar      1 RES1    0.0000
     30 H11        8.3445    8.1450    2.9839 H         1 RES1    0.0000
     31 C12        9.0337    9.5387    4.2700 C.ar      1 RES1    0.0000
     32 H12        9.9275    9.4860    4.0189 H         1 RES1    0.0000
     33 C13        8.6459   10.4224    5.2517 C.ar      1 RES1    0.0000
     34 H13        9.2758   10.9817    5.6457 H         1 RES1    0.0000
     35 C14        7.3144   10.4868    5.6618 C.ar      1 RES1    0.0000
     36 H14        7.0602   11.0888    6.3238 H         1 RES1    0.0000
     37 O5         0.5538    3.3396    0.2613 O.3       2 RES2    0.0000
     38 O6        -1.5628    8.0306    3.5403 O.2       2 RES2    0.0000
     39 O7         0.6160    0.5800   -1.8357 O.2       2 RES2    0.0000
     40 O8        -1.0228    1.5346   -0.7525 O.2       2 RES2    0.0000
     41 N5         0.1515    1.4243   -1.0620 N.pl3     2 RES2    0.0000
     42 N6         0.1725    5.5431    1.8221 N.2       2 RES2    0.0000
     43 N7        -0.0277    6.6332    2.6085 N.am      2 RES2    0.0000
     44 H15        0.6431    7.1636    2.9222 H         2 RES2    0.0000
     45 N8        -2.2737    6.1966    2.4073 N.am      2 RES2    0.0000
     46 H16       -2.0644    5.6524    1.9414 H         2 RES2    0.0000
     47 C15        1.0918    2.3438   -0.4930 C.2       2 RES2    0.0000
     48 C16        2.4338    2.3841   -0.5209 C.2       2 RES2    0.0000
     49 H17        3.0053    1.8029   -0.9673 H         2 RES2    0.0000
     50 C17        2.7927    3.4956    0.2697 C.2       2 RES2    0.0000
     51 H18        3.6560    3.7922    0.4456 H         2 RES2    0.0000
     52 C18        1.6365    4.0501    0.7272 C.2       2 RES2    0.0000
     53 C19        1.3817    5.1905    1.5651 C.2       2 RES2    0.0000
     54 H19        2.0918    5.6729    1.9219 H         2 RES2    0.0000
     55 C20       -1.3263    7.0085    2.8740 C.2       2 RES2    0.0000
     56 C21       -3.6845    6.5212    2.4783 C.3       2 RES2    0.0000
     57 H20       -3.8378    7.3914    2.0775 H         2 RES2    0.0000
     58 H21       -3.9601    6.5642    3.4067 H         2 RES2    0.0000
     59 C22       -4.5110    5.4720    1.7486 C.3       2 RES2    0.0000
     60 H22       -4.4028    4.6164    2.1942 H         2 RES2    0.0000
     61 H23       -5.4477    5.7168    1.7968 H         2 RES2    0.0000
     62 C23       -4.1108    5.3274    0.2968 C.ar      2 RES2    0.0000
     63 C24       -3.1535    4.4046   -0.1048 C.ar      2 RES2    0.0000
     64 H24       -2.8182    3.7970    0.5141 H         2 RES2    0.0000
     65 C25       -2.6863    4.3702   -1.4129 C.ar      2 RES2    0.0000
     66 H25       -2.0528    3.7371   -1.6640 H         2 RES2    0.0000
     67 C26       -3.1606    5.2779   -2.3422 C.ar      2 RES2    0.0000
     68 H26       -2.8211    5.2773   -3.2080 H         2 RES2    0.0000
     69 C27       -4.1391    6.1898   -1.9836 C.ar      2 RES2    0.0000
     70 H27       -4.4818    6.7816   -2.6136 H         2 RES2    0.0000
     71 C28       -4.6059    6.2150   -0.6688 C.ar      2 RES2    0.0000
     72 H28       -5.2598    6.8312   -0.4287 H         2 RES2    0.0000
@<TRIPOS>BOND
     1    1   11 1
     2    2   19 2
     3    3    5 2
     4    4    5 2
     5    5   11 1
     6    6    7 1
     7    7    8 1
     8    9   10 1
     9   11   12 2
    10   12   13 1
    11   14   12 1
    12   15   14 1
    13   16    1 1
    14   17    6 2
    15   18   17 1
    16   19    7 1
    17   20    9 1
    18   21   20 1
    19   22   20 1
    20   23   20 1
    21   24   23 1
    22   25   23 1
    23   26   23 1
    24   27   26 ar
    25   28   27 1
    26   29   27 ar
    27   30   29 1
    28   31   29 ar
    29   32   31 1
    30   33   31 ar
    31   34   33 1
    32   35   26 ar
    33   36   35 1
    34   37   47 1
    35   38   55 2
    36   39   41 2
    37   40   41 2
    38   41   47 1
    39   42   43 1
    40   43   44 1
    41   45   46 1
    42   47   48 2
    43   48   49 1
    44   50   48 1
    45   51   50 1
    46   52   37 1
    47   53   42 2
    48   54   53 1
    49   55   43 1
    50   56   45 1
    51   57   56 1
    52   58   56 1
    53   59   56 1
    54   60   59 1
    55   61   59 1
    56   62   59 1
    57   63   62 ar
    58   64   63 1
    59   65   63 ar
    60   66   65 1
    61   67   65 ar
    62   68   67 1
    63   69   67 ar
    64   70   69 1
    65   71   62 ar
    66   72   71 1
    67    9   19 1
    68   14   16 2
    69   16   17 1
    70   33   35 ar
    71   45   55 1
    72   50   52 2
    73   52   53 1
    74   69   71 ar
@<TRIPOS>SUBSTRUCTURE
     1 RES1 1
     2 RES2 37

@<TRIPOS>CRYSIN
  14.2740   11.8940    8.6860  86.3400  76.9300  82.6600   2 1

