# MOL2 file generated by ConQuest
# Please check atom types

@<TRIPOS>MOLECULE
BORQAB
    46    49     1
SMALL
NO_CHARGES
****
Generated from CSD

@<TRIPOS>ATOM
      1 N1         3.1789   12.5159    6.3954 N.pl3     1 RES1    0.0000
      2 C1         2.6193   11.2795    6.0303 C.ar      1 RES1    0.0000
      3 C2         2.7072   10.1791    6.8977 C.ar      1 RES1    0.0000
      4 H1         3.1653   10.2690    7.7251 H         1 RES1    0.0000
      5 C3         2.1335    8.9643    6.5605 C.ar      1 RES1    0.0000
      6 H2         2.2033    8.2350    7.1645 H         1 RES1    0.0000
      7 C4         1.4516    8.7867    5.3476 C.ar      1 RES1    0.0000
      8 C5         1.4114    9.8766    4.4734 C.ar      1 RES1    0.0000
      9 H3         0.9829    9.7774    3.6319 H         1 RES1    0.0000
     10 C6         1.9784   11.0968    4.7986 C.ar      1 RES1    0.0000
     11 H4         1.9321   11.8174    4.1804 H         1 RES1    0.0000
     12 C7         0.7889    7.5097    5.0089 C.ar      1 RES1    0.0000
     13 C8         0.3773    6.6277    6.0123 C.ar      1 RES1    0.0000
     14 H5         0.5048    6.8670    6.9226 H         1 RES1    0.0000
     15 C9        -0.2133    5.4115    5.7096 C.ar      1 RES1    0.0000
     16 H6        -0.4713    4.8120    6.4004 H         1 RES1    0.0000
     17 C10       -0.4193    5.0900    4.3838 C.ar      1 RES1    0.0000
     18 C11       -0.0675    5.9436    3.3582 C.ar      1 RES1    0.0000
     19 H7        -0.2385    5.7140    2.4525 H         1 RES1    0.0000
     20 C12        0.5426    7.1451    3.6819 C.ar      1 RES1    0.0000
     21 H8         0.7993    7.7359    2.9841 H         1 RES1    0.0000
     22 C13        2.7500   13.7557    5.8566 C.ar      1 RES1    0.0000
     23 C14        1.4122   14.0078    5.5626 C.ar      1 RES1    0.0000
     24 H9         0.7625   13.3252    5.6860 H         1 RES1    0.0000
     25 C15        1.0261   15.2534    5.0891 C.ar      1 RES1    0.0000
     26 H10        0.1127   15.4162    4.8844 H         1 RES1    0.0000
     27 C16        1.9566   16.2627    4.9114 C.ar      1 RES1    0.0000
     28 H11        1.6836   17.1165    4.5957 H         1 RES1    0.0000
     29 C17        3.2867   16.0165    5.1969 C.ar      1 RES1    0.0000
     30 H12        3.9303   16.7046    5.0757 H         1 RES1    0.0000
     31 C18        3.6907   14.7700    5.6601 C.ar      1 RES1    0.0000
     32 H13        4.6091   14.6075    5.8435 H         1 RES1    0.0000
     33 C19        4.1805   12.5663    7.4145 C.ar      1 RES1    0.0000
     34 C20        3.9250   13.2165    8.6038 C.ar      1 RES1    0.0000
     35 H14        3.0762   13.6108    8.7686 H         1 RES1    0.0000
     36 C21        4.9429   13.2825    9.5614 C.ar      1 RES1    0.0000
     37 H15        4.7910   13.7326   10.3839 H         1 RES1    0.0000
     38 C22        6.1736   12.6938    9.3133 C.ar      1 RES1    0.0000
     39 H16        6.8611   12.7419    9.9667 H         1 RES1    0.0000
     40 C23        6.3989   12.0481    8.1376 C.ar      1 RES1    0.0000
     41 H17        7.2422   11.6400    7.9773 H         1 RES1    0.0000
     42 C24        5.4174   11.9829    7.1791 C.ar      1 RES1    0.0000
     43 H18        5.5850   11.5393    6.3563 H         1 RES1    0.0000
     44 N2        -1.0174    3.7957    4.0578 N.pl3     1 RES1    0.0000
     45 O1        -1.0923    2.9428    4.9346 O.2       1 RES1    0.0000
     46 O2        -1.4182    3.6168    2.9122 O.2       1 RES1    0.0000
@<TRIPOS>BOND
     1    1    2 1
     2    2    3 ar
     3    3    4 1
     4    5    3 ar
     5    6    5 1
     6    7    5 ar
     7    8    7 ar
     8    9    8 1
     9   10    2 ar
    10   11   10 1
    11   12    7 1
    12   13   12 ar
    13   14   13 1
    14   15   13 ar
    15   16   15 1
    16   17   15 ar
    17   18   17 ar
    18   19   18 1
    19   20   12 ar
    20   21   20 1
    21   22    1 1
    22   23   22 ar
    23   24   23 1
    24   25   23 ar
    25   26   25 1
    26   27   25 ar
    27   28   27 1
    28   29   27 ar
    29   30   29 1
    30   31   22 ar
    31   32   31 1
    32   33    1 1
    33   34   33 ar
    34   35   34 1
    35   36   34 ar
    36   37   36 1
    37   38   36 ar
    38   39   38 1
    39   40   38 ar
    40   41   40 1
    41   42   33 ar
    42   43   42 1
    43   44   17 1
    44   45   44 2
    45   46   44 2
    46    8   10 ar
    47   18   20 ar
    48   29   31 ar
    49   40   42 ar
@<TRIPOS>SUBSTRUCTURE
     1 RES1 1

@<TRIPOS>CRYSIN
  13.3702   15.0329    9.6952  90.0000 104.7630  90.0000  14 1

