# MOL2 file generated by ConQuest
# Please check atom types

@<TRIPOS>MOLECULE
BORZUE
    48    51     1
SMALL
NO_CHARGES
****
Generated from CSD

@<TRIPOS>ATOM
      1 C1         1.2773    1.7279    3.6588 C.3       1 RES1    0.0000
      2 C2         1.4584    0.2471    3.4409 C.ar      1 RES1    0.0000
      3 C3         0.7195   -0.6499    2.6408 C.ar      1 RES1    0.0000
      4 C4         1.0721   -1.9812    2.6555 C.ar      1 RES1    0.0000
      5 C5         2.1583   -2.4367    3.4412 C.ar      1 RES1    0.0000
      6 C6         2.5379   -3.8029    3.4742 C.ar      1 RES1    0.0000
      7 C7         3.6011   -4.2308    4.2272 C.ar      1 RES1    0.0000
      8 C8         4.3503   -3.3229    4.9930 C.ar      1 RES1    0.0000
      9 C9         4.0168   -1.9937    5.0028 C.ar      1 RES1    0.0000
     10 C10        2.9249   -1.5326    4.2408 C.ar      1 RES1    0.0000
     11 C11        2.4942   -0.1818    4.1964 C.ar      1 RES1    0.0000
     12 C12        1.5564    2.5894    2.4484 C.ar      1 RES1    0.0000
     13 C13        0.6439    3.5491    2.0541 C.ar      1 RES1    0.0000
     14 C14        0.8791    4.3378    0.9385 C.ar      1 RES1    0.0000
     15 C15        2.0297    4.1698    0.2027 C.ar      1 RES1    0.0000
     16 C16        2.9638    3.2157    0.5966 C.ar      1 RES1    0.0000
     17 C17        2.7310    2.4305    1.7114 C.ar      1 RES1    0.0000
     18 C18        1.6075    2.2568    6.0935 C.3       1 RES1    0.0000
     19 C19        0.8369    3.5734    5.9687 C.3       1 RES1    0.0000
     20 C20        2.7207    2.4462    7.1261 C.3       1 RES1    0.0000
     21 C21        0.6842    1.1222    6.5200 C.3       1 RES1    0.0000
     22 C22       -1.0423   -0.9587    1.0755 C.3       1 RES1    0.0000
     23 N1         2.2585    2.0350    4.7657 N.3       1 RES1    0.0000
     24 O1         3.0906    0.8037    4.9246 O.3       1 RES1    0.0000
     25 O2        -0.3024   -0.0938    1.9420 O.3       1 RES1    0.0000
     26 H1         0.3429    1.9069    3.9625 H         1 RES1    0.0000
     27 H2         0.5283   -2.6498    2.1334 H         1 RES1    0.0000
     28 H3         2.0212   -4.4094    2.8814 H         1 RES1    0.0000
     29 H4         3.8625   -5.1398    4.2456 H         1 RES1    0.0000
     30 H5         5.0983   -3.6583    5.5448 H         1 RES1    0.0000
     31 H6         4.5652   -1.3301    5.5190 H         1 RES1    0.0000
     32 H7        -0.1581    3.6956    2.5801 H         1 RES1    0.0000
     33 H8         0.2186    4.9863    0.7253 H         1 RES1    0.0000
     34 H9         2.1761    4.6812   -0.5981 H         1 RES1    0.0000
     35 H10        3.7681    3.1125    0.0651 H         1 RES1    0.0000
     36 H11        3.3997    1.7824    1.9865 H         1 RES1    0.0000
     37 H12        0.1061    3.5006    5.3646 H         1 RES1    0.0000
     38 H13        1.4583    4.3181    5.6477 H         1 RES1    0.0000
     39 H14        0.4674    3.8595    6.8908 H         1 RES1    0.0000
     40 H15        3.3007    3.1644    6.8272 H         1 RES1    0.0000
     41 H16        3.3239    1.6040    7.2148 H         1 RES1    0.0000
     42 H17        2.2843    2.6851    8.0083 H         1 RES1    0.0000
     43 H18       -0.1307    1.0583    5.9733 H         1 RES1    0.0000
     44 H19        1.1978    0.2511    6.5335 H         1 RES1    0.0000
     45 H20        0.3503    1.3135    7.4707 H         1 RES1    0.0000
     46 H21       -1.4957   -1.6496    1.5641 H         1 RES1    0.0000
     47 H22       -0.4534   -1.3488    0.3528 H         1 RES1    0.0000
     48 H23       -1.7584   -0.3756    0.6617 H         1 RES1    0.0000
@<TRIPOS>BOND
     1    1    2 1
     2    2    3 ar
     3    3    4 ar
     4    4    5 ar
     5    5    6 ar
     6    6    7 ar
     7    7    8 ar
     8    8    9 ar
     9    9   10 ar
    10   10    5 ar
    11   11    2 ar
    12   12    1 1
    13   13   12 ar
    14   14   13 ar
    15   15   14 ar
    16   16   15 ar
    17   17   12 ar
    18   18   19 1
    19   19   37 1
    20   20   18 1
    21   21   18 1
    22   22   25 1
    23   23    1 1
    24   24   11 1
    25   25    3 1
    26   26    1 1
    27   27    4 1
    28   28    6 1
    29   29    7 1
    30   30    8 1
    31   31    9 1
    32   32   13 1
    33   33   14 1
    34   34   15 1
    35   35   16 1
    36   36   17 1
    37   38   19 1
    38   39   19 1
    39   40   20 1
    40   41   20 1
    41   42   20 1
    42   43   21 1
    43   44   21 1
    44   45   21 1
    45   46   22 1
    46   47   22 1
    47   48   22 1
    48   10   11 ar
    49   16   17 ar
    50   18   23 1
    51   23   24 1
@<TRIPOS>SUBSTRUCTURE
     1 RES1 1

@<TRIPOS>CRYSIN
   5.5290   20.7502   15.2602  90.0000  97.1560  90.0000 231 1

