# MOL2 file generated by ConQuest
# Please check atom types

@<TRIPOS>MOLECULE
BOSWOV
    58    59     1
SMALL
NO_CHARGES
****
Generated from CSD

@<TRIPOS>ATOM
      1 C1         3.3760   15.3239   23.2005 C.3       1 RES1    0.0000
      2 H1         4.1495   15.5260   22.6669 H         1 RES1    0.0000
      3 O1         3.6638   15.4842   24.5605 O.3       1 RES1    0.0000
      4 C2         2.9638   13.8844   22.9466 C.3       1 RES1    0.0000
      5 H2         2.2379   13.6356   23.5243 H         1 RES1    0.0000
      6 O2         4.1308   13.0878   23.1798 O.3       1 RES1    0.0000
      7 C3         4.0240   12.0891   24.0709 C.2       1 RES1    0.0000
      8 O3         3.0368   11.7885   24.6201 O.2       1 RES1    0.0000
      9 C4         5.3623   11.4295   24.2626 C.3       1 RES1    0.0000
     10 H3         5.3973   10.8801   25.0475 H         1 RES1    0.0000
     11 H4         6.0758   12.0708   24.2885 H         1 RES1    0.0000
     12 H5         5.4567   10.8784   23.4829 H         1 RES1    0.0000
     13 C5         2.5087   13.7040   21.5167 C.3       1 RES1    0.0000
     14 H6         3.2929   13.7274   20.9649 H         1 RES1    0.0000
     15 O4         1.8110   12.4615   21.3975 O.3       1 RES1    0.0000
     16 C6         2.4131   11.4445   20.7706 C.2       1 RES1    0.0000
     17 O5         3.5377   11.4929   20.3769 O.2       1 RES1    0.0000
     18 C7         1.4842   10.2789   20.6541 C.3       1 RES1    0.0000
     19 H7         1.9314    9.5307   20.2551 H         1 RES1    0.0000
     20 H8         0.7469   10.5444   20.0997 H         1 RES1    0.0000
     21 H9         1.1591   10.0334   21.5219 H         1 RES1    0.0000
     22 C8         1.5577   14.8079   21.0763 C.3       1 RES1    0.0000
     23 H10        0.7079   14.7294   21.5141 H         1 RES1    0.0000
     24 O6         1.4118   14.6910   19.6541 O.3       1 RES1    0.0000
     25 C9         0.1951   14.9732   19.1308 C.2       1 RES1    0.0000
     26 O7        -0.7407   15.2705   19.8044 O.2       1 RES1    0.0000
     27 C10        0.2092   14.8647   17.6620 C.3       1 RES1    0.0000
     28 H11       -0.6219   15.1402   17.2683 H         1 RES1    0.0000
     29 H12        0.3918   13.9545   17.4185 H         1 RES1    0.0000
     30 H13        0.9165   15.4291   17.3408 H         1 RES1    0.0000
     31 C11        2.1406   16.1740   21.4260 C.3       1 RES1    0.0000
     32 H14        2.9356   16.2524   20.8924 H         1 RES1    0.0000
     33 O8         2.3464   16.1957   22.8456 O.3       1 RES1    0.0000
     34 C12        1.2869   17.3713   21.1074 C.3       1 RES1    0.0000
     35 H15        0.4959   17.3747   21.6514 H         1 RES1    0.0000
     36 H16        1.0386   17.3730   20.1800 H         1 RES1    0.0000
     37 O9         2.1078   18.4953   21.4131 O.3       1 RES1    0.0000
     38 C13        1.5023   19.6826   21.5063 C.2       1 RES1    0.0000
     39 O10        0.3200   19.8045   21.3820 O.2       1 RES1    0.0000
     40 C14        2.4878   20.7698   21.7965 C.3       1 RES1    0.0000
     41 H17        2.2661   21.1956   22.6280 H         1 RES1    0.0000
     42 H18        2.5211   21.4278   21.0996 H         1 RES1    0.0000
     43 H19        3.3438   20.3423   21.8742 H         1 RES1    0.0000
     44 C15        4.4921   16.5213   24.9232 C.ar      1 RES1    0.0000
     45 C16        5.2294   16.3109   26.0630 C.ar      1 RES1    0.0000
     46 H20        5.1446   15.4943   26.5630 H         1 RES1    0.0000
     47 C17        6.0781   17.3012   26.4775 C.ar      1 RES1    0.0000
     48 N1         6.9318   16.9522   27.6484 N.pl3     1 RES1    0.0000
     49 O11        8.1146   17.1142   27.5292 O.2       1 RES1    0.0000
     50 O12        6.3732   16.5247   28.6276 O.2       1 RES1    0.0000
     51 C18        6.2217   18.4619   25.7729 C.ar      1 RES1    0.0000
     52 N2         7.1122   19.5423   26.2314 N.pl3     1 RES1    0.0000
     53 O13        7.2004   19.7177   27.4308 O.2       1 RES1    0.0000
     54 O14        7.6521   20.2120   25.3739 O.2       1 RES1    0.0000
     55 C19        5.4657   18.6823   24.6590 C.ar      1 RES1    0.0000
     56 H21        5.5449   19.5106   24.1797 H         1 RES1    0.0000
     57 C20        4.5837   17.7037   24.2108 C.ar      1 RES1    0.0000
     58 H22        4.0500   17.8456   23.4259 H         1 RES1    0.0000
@<TRIPOS>BOND
     1    1    2 1
     2    3    1 1
     3    4    1 1
     4    5    4 1
     5    6    4 1
     6    7    6 1
     7    8    7 2
     8    9    7 1
     9   10    9 1
    10   11    9 1
    11   12    9 1
    12   13    4 1
    13   14   13 1
    14   15   13 1
    15   16   15 1
    16   17   16 2
    17   18   16 1
    18   19   18 1
    19   20   18 1
    20   21   18 1
    21   22   13 1
    22   23   22 1
    23   24   22 1
    24   25   24 1
    25   26   25 2
    26   27   25 1
    27   28   27 1
    28   29   27 1
    29   30   27 1
    30   31   22 1
    31   32   31 1
    32   33    1 1
    33   34   31 1
    34   35   34 1
    35   36   34 1
    36   37   34 1
    37   38   37 1
    38   39   38 2
    39   40   38 1
    40   41   40 1
    41   42   40 1
    42   43   40 1
    43   44    3 1
    44   45   44 ar
    45   46   45 1
    46   47   45 ar
    47   48   47 1
    48   49   48 2
    49   50   48 2
    50   51   47 ar
    51   52   51 1
    52   53   52 2
    53   54   52 2
    54   55   51 ar
    55   56   55 1
    56   57   44 ar
    57   58   57 1
    58   31   33 1
    59   55   57 ar
@<TRIPOS>SUBSTRUCTURE
     1 RES1 1

@<TRIPOS>CRYSIN
   5.6540   16.7000   25.9050  90.0000  90.0000  90.0000  19 1

