# MOL2 file generated by ConQuest
# Please check atom types

@<TRIPOS>MOLECULE
BOTJAX
    72    74     1
SMALL
NO_CHARGES
****
Generated from CSD

@<TRIPOS>ATOM
      1 O1         8.6645   -1.5896    7.2241 O.2       1 RES1    0.0000
      2 O2         6.9547    0.3500    6.0965 O.3       1 RES1    0.0000
      3 O3         4.0055   -1.2721   -0.6508 O.2       1 RES1    0.0000
      4 N1         8.0934   -1.0099    8.1359 N.pl3     1 RES1    0.0000
      5 N2         5.5057    0.5363    2.8242 N.ar      1 RES1    0.0000
      6 N3         4.6152    0.4155    0.7356 N.am      1 RES1    0.0000
      7 C1         8.0934    3.1754    8.1359 C.ar      1 RES1    0.0000
      8 C2         7.5033    2.5131    7.0712 C.ar      1 RES1    0.0000
      9 C3         7.5140    1.1218    7.0596 C.ar      1 RES1    0.0000
     10 C4         8.0934    0.4466    8.1359 C.ar      1 RES1    0.0000
     11 C5         6.4185    1.0267    4.9548 C.3       1 RES1    0.0000
     12 C6         6.1211    0.0122    3.8916 C.ar      1 RES1    0.0000
     13 C7         6.4692   -1.3276    3.9843 C.ar      1 RES1    0.0000
     14 C8         6.1199   -2.1602    2.9263 C.ar      1 RES1    0.0000
     15 C9         5.4659   -1.6510    1.8154 C.ar      1 RES1    0.0000
     16 C10        5.2081   -0.2759    1.8076 C.ar      1 RES1    0.0000
     17 C11        4.0320   -0.0798   -0.3941 C.2       1 RES1    0.0000
     18 C12        3.3382    0.9556   -1.2887 C.3       1 RES1    0.0000
     19 C13        3.3245    0.4319   -2.7265 C.3       1 RES1    0.0000
     20 C14        1.8963    1.0838   -0.7622 C.3       1 RES1    0.0000
     21 C15        4.0258    2.3239   -1.2795 C.3       1 RES1    0.0000
     22 H1         8.0934    4.1456    8.1359 H         1 RES1    0.0000
     23 H2         7.0554    3.0264    6.3644 H         1 RES1    0.0000
     24 H3         7.0797    1.6376    4.6103 H         1 RES1    0.0000
     25 H4         5.6096    1.5011    5.1777 H         1 RES1    0.0000
     26 H5         6.9733   -1.6158    4.7470 H         1 RES1    0.0000
     27 H6         6.3290   -3.0871    2.9517 H         1 RES1    0.0000
     28 H7         5.1963   -2.2362    1.0815 H         1 RES1    0.0000
     29 H8         4.2382    0.4369   -3.0873 H         1 RES1    0.0000
     30 H9         2.8464    1.0355   -3.3064 H         1 RES1    0.0000
     31 H10        2.8452   -0.4851   -2.7651 H         1 RES1    0.0000
     32 H11        1.4233    1.7316   -1.2920 H         1 RES1    0.0000
     33 H12        1.8603    1.3704    0.1562 H         1 RES1    0.0000
     34 H13        1.4456    0.2328   -0.7637 H         1 RES1    0.0000
     35 H14        3.5754    2.9289   -1.9125 H         1 RES1    0.0000
     36 H15        4.9792    2.2431   -1.5512 H         1 RES1    0.0000
     37 H16        3.9673    2.8188   -0.4111 H         1 RES1    0.0000
     38 H17        4.6189    1.2855    0.8244 H         1 RES1    0.0000
     39 O1A        7.5223   -1.5896    9.0476 O.2       1 RES1    0.0000
     40 O2A        9.2321    0.3500   10.1753 O.3       1 RES1    0.0000
     41 O3A       12.1813   -1.2721   16.9225 O.2       1 RES1    0.0000
     42 N2A       10.6811    0.5363   13.4475 N.ar      1 RES1    0.0000
     43 N3A       11.5716    0.4155   15.5362 N.am      1 RES1    0.0000
     44 C2A        8.6835    2.5131    9.2006 C.ar      1 RES1    0.0000
     45 C3A        8.6729    1.1218    9.2122 C.ar      1 RES1    0.0000
     46 C5A        9.7683    1.0267   11.3170 C.3       1 RES1    0.0000
     47 C6A       10.0657    0.0122   12.3802 C.ar      1 RES1    0.0000
     48 C7A        9.7176   -1.3276   12.2875 C.ar      1 RES1    0.0000
     49 C8A       10.0669   -2.1602   13.3455 C.ar      1 RES1    0.0000
     50 C9A       10.7209   -1.6510   14.4564 C.ar      1 RES1    0.0000
     51 C10A      10.9788   -0.2759   14.4642 C.ar      1 RES1    0.0000
     52 C11A      12.1549   -0.0798   16.6659 C.2       1 RES1    0.0000
     53 C12A      12.8486    0.9556   17.5605 C.3       1 RES1    0.0000
     54 C13A      12.8624    0.4319   18.9983 C.3       1 RES1    0.0000
     55 C14A      14.2905    1.0838   17.0339 C.3       1 RES1    0.0000
     56 C15A      12.1610    2.3239   17.5513 C.3       1 RES1    0.0000
     57 H2A        9.1315    3.0264    9.9073 H         1 RES1    0.0000
     58 H3A        9.1071    1.6376   11.6614 H         1 RES1    0.0000
     59 H4A       10.5772    1.5011   11.0941 H         1 RES1    0.0000
     60 H5A        9.2135   -1.6158   11.5248 H         1 RES1    0.0000
     61 H6A        9.8578   -3.0871   13.3201 H         1 RES1    0.0000
     62 H7A       10.9905   -2.2362   15.1902 H         1 RES1    0.0000
     63 H8A       11.9486    0.4369   19.3591 H         1 RES1    0.0000
     64 H9A       13.3404    1.0355   19.5782 H         1 RES1    0.0000
     65 H10A      13.3416   -0.4851   19.0369 H         1 RES1    0.0000
     66 H11A      14.7635    1.7316   17.5638 H         1 RES1    0.0000
     67 H12A      14.3265    1.3704   16.1156 H         1 RES1    0.0000
     68 H13A      14.7412    0.2328   17.0355 H         1 RES1    0.0000
     69 H14A      12.6114    2.9289   18.1843 H         1 RES1    0.0000
     70 H15A      11.2076    2.2431   17.8230 H         1 RES1    0.0000
     71 H16A      12.2195    2.8188   16.6829 H         1 RES1    0.0000
     72 H17A      11.5680    1.2855   15.4473 H         1 RES1    0.0000
@<TRIPOS>BOND
     1    1    4 2
     2    2    9 1
     3    3   17 2
     4    4   10 1
     5    5   12 ar
     6    6   16 1
     7    7    8 ar
     8    8    9 ar
     9    9   10 ar
    10   10   45 ar
    11   11    2 1
    12   12   11 1
    13   13   12 ar
    14   14   13 ar
    15   15   14 ar
    16   16    5 ar
    17   17    6 1
    18   18   17 1
    19   19   18 1
    20   20   18 1
    21   21   18 1
    22   22    7 1
    23   23    8 1
    24   24   11 1
    25   25   11 1
    26   26   13 1
    27   27   14 1
    28   28   15 1
    29   29   19 1
    30   30   19 1
    31   31   19 1
    32   32   20 1
    33   33   20 1
    34   34   20 1
    35   35   21 1
    36   36   21 1
    37   37   21 1
    38   38    6 1
    39   39    4 2
    40   40   45 1
    41   41   52 2
    42   42   47 ar
    43   43   51 1
    44   44    7 ar
    45   45   44 ar
    46   46   40 1
    47   47   46 1
    48   48   47 ar
    49   49   48 ar
    50   50   49 ar
    51   51   42 ar
    52   52   43 1
    53   53   52 1
    54   54   53 1
    55   55   53 1
    56   56   53 1
    57   57   44 1
    58   58   46 1
    59   59   46 1
    60   60   48 1
    61   61   49 1
    62   62   50 1
    63   63   54 1
    64   64   54 1
    65   65   54 1
    66   66   55 1
    67   67   55 1
    68   68   55 1
    69   69   56 1
    70   70   56 1
    71   71   56 1
    72   72   43 1
    73   15   16 ar
    74   50   51 ar
@<TRIPOS>SUBSTRUCTURE
     1 RES1 1

@<TRIPOS>CRYSIN
  21.4456   11.4678   11.4003  90.0000 107.9100  90.0000  15 1

