# MOL2 file generated by ConQuest
# Please check atom types

@<TRIPOS>MOLECULE
BOTLHD
    29    30     1
SMALL
NO_CHARGES
****
Generated from CSD

@<TRIPOS>ATOM
      1 C1        -6.7596    1.8887    2.9975 C.ar      1 RES1    0.0000
      2 C2        -1.5001    4.2531    3.1714 C.ar      1 RES1    0.0000
      3 C3        -7.2323    0.7513    2.3196 C.ar      1 RES1    0.0000
      4 C4        -0.8081    5.1742    2.3497 C.ar      1 RES1    0.0000
      5 C5        -8.5912    0.4594    2.3681 C.ar      1 RES1    0.0000
      6 C6         0.5709    5.2928    2.5729 C.ar      1 RES1    0.0000
      7 C7        -9.4646    1.2886    2.9841 C.ar      1 RES1    0.0000
      8 C8         1.2145    4.5671    3.5442 C.ar      1 RES1    0.0000
      9 C9        -9.0191    2.4202    3.6612 C.ar      1 RES1    0.0000
     10 C10        0.5378    3.6681    4.3090 C.ar      1 RES1    0.0000
     11 C11       -7.6489    2.7272    3.6119 C.ar      1 RES1    0.0000
     12 C12       -0.8316    3.5181    4.1460 C.ar      1 RES1    0.0000
     13 C13       -5.2860    2.1585    2.9148 C.2       1 RES1    0.0000
     14 C14       -2.9687    4.1007    3.0376 C.2       1 RES1    0.0000
     15 C15       -1.4739    5.9871    1.2338 C.3       1 RES1    0.0000
     16 H1        -6.5872    0.1547    1.8130 H         1 RES1    0.0000
     17 H2        -8.9263   -0.4024    1.9476 H         1 RES1    0.0000
     18 H3         1.1336    5.9080    1.9978 H         1 RES1    0.0000
     19 H4       -10.4270    1.0979    2.9415 H         1 RES1    0.0000
     20 H5         2.1798    4.6613    3.7356 H         1 RES1    0.0000
     21 H6        -9.6598    2.9866    4.1711 H         1 RES1    0.0000
     22 H7         1.0142    3.1064    5.0003 H         1 RES1    0.0000
     23 H8        -7.3037    3.5751    3.9864 H         1 RES1    0.0000
     24 H9        -1.3369    2.8819    4.7261 H         1 RES1    0.0000
     25 H10       -5.4628    3.4925    4.4996 H         1 RES1    0.0000
     26 N1        -4.8376    3.0133    3.8819 N.am      1 RES1    0.0000
     27 O1        -4.5646    1.6584    2.0872 O.2       1 RES1    0.0000
     28 O2        -3.4392    3.1901    3.9596 O.3       1 RES1    0.0000
     29 O3        -3.6834    4.6427    2.2594 O.2       1 RES1    0.0000
@<TRIPOS>BOND
     1    1    3 ar
     2    2    4 ar
     3    3    5 ar
     4    4    6 ar
     5    5    7 ar
     6    6    8 ar
     7    7    9 ar
     8    8   10 ar
     9    9   11 ar
    10   10   12 ar
    11   11    1 ar
    12   12    2 ar
    13   13    1 1
    14   14    2 1
    15   15    4 1
    16   16    3 1
    17   17    5 1
    18   18    6 1
    19   19    7 1
    20   20    8 1
    21   21    9 1
    22   22   10 1
    23   23   11 1
    24   24   12 1
    25   25   26 1
    26   26   13 1
    27   27   13 2
    28   28   14 1
    29   29   14 2
    30   26   28 1
@<TRIPOS>SUBSTRUCTURE
     1 RES1 1

@<TRIPOS>CRYSIN
  13.7400   11.6300    8.8300  90.0000 108.8000  90.0000  14 1

