# MOL2 file generated by ConQuest
# Please check atom types

@<TRIPOS>MOLECULE
BOVCUL
    62    65     1
SMALL
NO_CHARGES
****
Generated from CSD

@<TRIPOS>ATOM
      1 N1         1.9785    1.8955    3.1114 N.2       1 RES1    0.0000
      2 O1         1.7624    2.6368    1.9468 O.3       1 RES1    0.0000
      3 O2         3.4019    1.1024    5.0816 O.3       1 RES1    0.0000
      4 H1         3.2383    1.5326    4.4030 H         1 RES1    0.0000
      5 C1         2.9944    3.2143    1.5219 C.3       1 RES1    0.0000
      6 H2         3.6548    2.5195    1.3738 H         1 RES1    0.0000
      7 H3         3.3320    3.8186    2.2010 H         1 RES1    0.0000
      8 C2         2.7380    3.9647    0.2455 C.3       1 RES1    0.0000
      9 H4         2.0247    4.6062    0.3897 H         1 RES1    0.0000
     10 H5         2.4439    3.3408   -0.4375 H         1 RES1    0.0000
     11 C3         0.9078    1.3874    3.6069 C.2       1 RES1    0.0000
     12 C4        -0.4463    1.6231    3.0116 C.3       1 RES1    0.0000
     13 H6        -0.3879    2.3130    2.3462 H         1 RES1    0.0000
     14 H7        -1.0567    1.8946    3.7005 H         1 RES1    0.0000
     15 H8        -0.7620    0.8128    2.6044 H         1 RES1    0.0000
     16 C5         2.2876    0.4580    5.4854 C.ar      1 RES1    0.0000
     17 C6         1.0700    0.5566    4.8150 C.ar      1 RES1    0.0000
     18 C7        -0.0239   -0.2060    5.3130 C.ar      1 RES1    0.0000
     19 H9        -0.8452   -0.1473    4.8804 H         1 RES1    0.0000
     20 C8         0.0883   -1.0142    6.3964 C.ar      1 RES1    0.0000
     21 H10       -0.6445   -1.5149    6.6751 H         1 RES1    0.0000
     22 C9         1.3087   -1.1016    7.1067 C.ar      1 RES1    0.0000
     23 C10        2.4118   -0.3399    6.6624 C.ar      1 RES1    0.0000
     24 C11        3.6106   -0.3748    7.4107 C.ar      1 RES1    0.0000
     25 H11        4.3430    0.1282    7.1330 H         1 RES1    0.0000
     26 C12        3.7031   -1.1422    8.5360 C.ar      1 RES1    0.0000
     27 H12        4.4899   -1.1415    9.0320 H         1 RES1    0.0000
     28 C13        2.6209   -1.9281    8.9462 C.ar      1 RES1    0.0000
     29 H13        2.7030   -2.4692    9.6994 H         1 RES1    0.0000
     30 C14        1.4551   -1.9096    8.2574 C.ar      1 RES1    0.0000
     31 H14        0.7433   -2.4338    8.5448 H         1 RES1    0.0000
     32 N1A        4.7253    6.7605   -3.1114 N.2       1 RES1    0.0000
     33 O1A        4.9414    6.0192   -1.9468 O.3       1 RES1    0.0000
     34 O2A        3.3018    7.5536   -5.0816 O.3       1 RES1    0.0000
     35 H1A        3.4655    7.1234   -4.4030 H         1 RES1    0.0000
     36 C1A        3.7094    5.4417   -1.5219 C.3       1 RES1    0.0000
     37 H2A        3.0490    6.1365   -1.3738 H         1 RES1    0.0000
     38 H3A        3.3718    4.8375   -2.2010 H         1 RES1    0.0000
     39 C2A        3.9658    4.6913   -0.2455 C.3       1 RES1    0.0000
     40 H4A        4.6790    4.0499   -0.3897 H         1 RES1    0.0000
     41 H5A        4.2599    5.3152    0.4375 H         1 RES1    0.0000
     42 C3A        5.7960    7.2687   -3.6069 C.2       1 RES1    0.0000
     43 C4A        7.1501    7.0330   -3.0116 C.3       1 RES1    0.0000
     44 H6A        7.0916    6.3430   -2.3462 H         1 RES1    0.0000
     45 H7A        7.7604    6.7615   -3.7005 H         1 RES1    0.0000
     46 H8A        7.4657    7.8433   -2.6044 H         1 RES1    0.0000
     47 C5A        4.4161    8.1980   -5.4854 C.ar      1 RES1    0.0000
     48 C6A        5.6338    8.0995   -4.8150 C.ar      1 RES1    0.0000
     49 C7A        6.7277    8.8620   -5.3130 C.ar      1 RES1    0.0000
     50 H9A        7.5490    8.8033   -4.8804 H         1 RES1    0.0000
     51 C8A        6.6155    9.6703   -6.3964 C.ar      1 RES1    0.0000
     52 H10A       7.3482   10.1710   -6.6751 H         1 RES1    0.0000
     53 C9A        5.3951    9.7576   -7.1067 C.ar      1 RES1    0.0000
     54 C10A       4.2920    8.9959   -6.6624 C.ar      1 RES1    0.0000
     55 C11A       3.0932    9.0309   -7.4107 C.ar      1 RES1    0.0000
     56 H11A       2.3608    8.5279   -7.1330 H         1 RES1    0.0000
     57 C12A       3.0007    9.7983   -8.5360 C.ar      1 RES1    0.0000
     58 H12A       2.2138    9.7976   -9.0320 H         1 RES1    0.0000
     59 C13A       4.0828   10.5842   -8.9462 C.ar      1 RES1    0.0000
     60 H13A       4.0008   11.1252   -9.6994 H         1 RES1    0.0000
     61 C14A       5.2486   10.5657   -8.2574 C.ar      1 RES1    0.0000
     62 H14A       5.9604   11.0898   -8.5448 H         1 RES1    0.0000
@<TRIPOS>BOND
     1    1    2 1
     2    2    5 1
     3    3    4 1
     4    5    6 1
     5    7    5 1
     6    8    5 1
     7    9    8 1
     8   10    8 1
     9   11    1 2
    10   12   11 1
    11   13   12 1
    12   14   12 1
    13   15   12 1
    14   16    3 1
    15   17   11 1
    16   18   17 ar
    17   19   18 1
    18   20   18 ar
    19   21   20 1
    20   22   20 ar
    21   23   16 ar
    22   24   23 ar
    23   25   24 1
    24   26   24 ar
    25   27   26 1
    26   28   26 ar
    27   29   28 1
    28   30   22 ar
    29   31   30 1
    30   32   33 1
    31   33   36 1
    32   34   35 1
    33   36   37 1
    34   38   36 1
    35   39    8 1
    36   40   39 1
    37   41   39 1
    38   42   32 2
    39   43   42 1
    40   44   43 1
    41   45   43 1
    42   46   43 1
    43   47   34 1
    44   48   42 1
    45   49   48 ar
    46   50   49 1
    47   51   49 ar
    48   52   51 1
    49   53   51 ar
    50   54   47 ar
    51   55   54 ar
    52   56   55 1
    53   57   55 ar
    54   58   57 1
    55   59   57 ar
    56   60   59 1
    57   61   53 ar
    58   62   61 1
    59   16   17 ar
    60   22   23 ar
    61   28   30 ar
    62   36   39 1
    63   47   48 ar
    64   53   54 ar
    65   59   61 ar
@<TRIPOS>SUBSTRUCTURE
     1 RES1 1

@<TRIPOS>CRYSIN
   6.9590    8.6598   10.5960 105.8410 105.9400  91.6890   2 1

