# MOL2 file generated by ConQuest
# Please check atom types

@<TRIPOS>MOLECULE
BOVYOB
    78    83     1
SMALL
NO_CHARGES
****
Generated from CSD

@<TRIPOS>ATOM
      1 O1         5.4790   -4.1907    7.4909 O.3       1 RES1    0.0000
      2 O2         3.5486   -0.3390   11.9060 O.2       1 RES1    0.0000
      3 O3         0.1941    4.5003   13.7685 O.2       1 RES1    0.0000
      4 O4         0.1676    6.5967   14.4788 O.3       1 RES1    0.0000
      5 H1        -0.3249    6.2773   15.0501 H         1 RES1    0.0000
      6 N1         4.5155   -3.4755    8.2273 N.2       1 RES1    0.0000
      7 N2         6.6263   -3.4210    7.3106 N.2       1 RES1    0.0000
      8 C1         4.4907   -1.1948    9.2240 C.3       1 RES1    0.0000
      9 H2         3.8915   -1.5426    9.9033 H         1 RES1    0.0000
     10 H3         3.9778   -0.6258    8.6289 H         1 RES1    0.0000
     11 C2         5.0900   -2.3254    8.4504 C.2       1 RES1    0.0000
     12 C3         6.3749   -2.2850    7.8918 C.2       1 RES1    0.0000
     13 C4         7.3341   -1.1327    7.9787 C.3       1 RES1    0.0000
     14 C5         6.6322    0.0360    8.7711 C.3       1 RES1    0.0000
     15 H4         6.1065    0.5287    8.1059 H         1 RES1    0.0000
     16 C6         7.6632    1.0368    9.3112 C.3       1 RES1    0.0000
     17 H5         8.1232    0.6476   10.0710 H         1 RES1    0.0000
     18 H6         8.3215    1.2243    8.6261 H         1 RES1    0.0000
     19 C7         6.9853    2.3374    9.7366 C.3       1 RES1    0.0000
     20 H7         6.5972    2.7582    8.9526 H         1 RES1    0.0000
     21 H8         7.6590    2.9392   10.0912 H         1 RES1    0.0000
     22 C8         5.8834    2.1466   10.7969 C.3       1 RES1    0.0000
     23 C9         4.9643    0.9506   10.4134 C.3       1 RES1    0.0000
     24 H9         4.4403    1.2788    9.6519 H         1 RES1    0.0000
     25 C10        5.6235   -0.3696    9.8953 C.3       1 RES1    0.0000
     26 C11        3.9462    0.7686   11.5260 C.2       1 RES1    0.0000
     27 C12        3.3999    1.9765   12.1282 C.2       1 RES1    0.0000
     28 H10        2.6758    1.8817   12.7036 H         1 RES1    0.0000
     29 C13        3.8632    3.2041   11.9138 C.2       1 RES1    0.0000
     30 C14        4.9951    3.4461   10.9047 C.3       1 RES1    0.0000
     31 C15        5.8757    4.6693   11.2922 C.3       1 RES1    0.0000
     32 H11        6.5664    4.3728   11.9031 H         1 RES1    0.0000
     33 H12        6.3142    5.0007   10.4929 H         1 RES1    0.0000
     34 C16        5.1020    5.8391   11.9511 C.3       1 RES1    0.0000
     35 H13        5.7380    6.5063   12.2528 H         1 RES1    0.0000
     36 H14        4.5326    6.2544   11.2847 H         1 RES1    0.0000
     37 C17        4.2403    5.3997   13.1376 C.3       1 RES1    0.0000
     38 C18        3.2144    4.3695   12.6252 C.3       1 RES1    0.0000
     39 H15        2.7792    3.9966   13.4202 H         1 RES1    0.0000
     40 C19        2.1022    5.0018   11.7881 C.3       1 RES1    0.0000
     41 H16        2.4809    5.3114   10.9495 H         1 RES1    0.0000
     42 H17        1.4448    4.3204   11.5794 H         1 RES1    0.0000
     43 C20        1.3960    6.1705   12.4686 C.3       1 RES1    0.0000
     44 C21        2.4313    7.1996   12.9385 C.3       1 RES1    0.0000
     45 H18        2.8348    7.6204   12.1632 H         1 RES1    0.0000
     46 H19        1.9825    7.8897   13.4520 H         1 RES1    0.0000
     47 C22        3.5187    6.5826   13.7867 C.3       1 RES1    0.0000
     48 H20        3.1280    6.2860   14.6224 H         1 RES1    0.0000
     49 H21        4.1736    7.2672   13.9953 H         1 RES1    0.0000
     50 C23        8.6788   -1.5982    8.5558 C.3       1 RES1    0.0000
     51 H22        8.5472   -1.9285    9.4468 H         1 RES1    0.0000
     52 H23        9.2909   -0.8591    8.5740 H         1 RES1    0.0000
     53 H24        9.0388   -2.2970    8.0047 H         1 RES1    0.0000
     54 C24        7.6034   -0.6138    6.5364 C.3       1 RES1    0.0000
     55 H25        6.7810   -0.3074    6.1495 H         1 RES1    0.0000
     56 H26        7.9642   -1.3257    6.0021 H         1 RES1    0.0000
     57 H27        8.2317    0.1112    6.5685 H         1 RES1    0.0000
     58 C25        6.2792   -1.2439   10.9841 C.3       1 RES1    0.0000
     59 H28        6.6493   -2.0332   10.5824 H         1 RES1    0.0000
     60 H29        5.6183   -1.4968   11.6343 H         1 RES1    0.0000
     61 H30        6.9776   -0.7468   11.4147 H         1 RES1    0.0000
     62 C26        6.5878    1.8533   12.1507 C.3       1 RES1    0.0000
     63 H31        7.1323    1.0684   12.0649 H         1 RES1    0.0000
     64 H32        5.9261    1.7116   12.8307 H         1 RES1    0.0000
     65 H33        7.1392    2.6012   12.3915 H         1 RES1    0.0000
     66 C27        4.3052    3.7917    9.5499 C.3       1 RES1    0.0000
     67 H34        3.7658    4.5777    9.6577 H         1 RES1    0.0000
     68 H35        3.7504    3.0569    9.2763 H         1 RES1    0.0000
     69 H36        4.9755    3.9519    8.8804 H         1 RES1    0.0000
     70 C28        5.1268    4.7630   14.2253 C.3       1 RES1    0.0000
     71 H37        4.5788    4.4883   14.9634 H         1 RES1    0.0000
     72 H38        5.7731    5.4052   14.5270 H         1 RES1    0.0000
     73 H39        5.5807    3.9988   13.8624 H         1 RES1    0.0000
     74 C29        0.4112    6.8442   11.4919 C.3       1 RES1    0.0000
     75 H40       -0.2351    6.1999   11.1922 H         1 RES1    0.0000
     76 H41        0.8934    7.1865   10.7356 H         1 RES1    0.0000
     77 H42       -0.0393    7.5659   11.9378 H         1 RES1    0.0000
     78 C30        0.5514    5.6352   13.6335 C.2       1 RES1    0.0000
@<TRIPOS>BOND
     1    1    6 1
     2    2   26 2
     3    3   78 2
     4    4    5 1
     5    6   11 2
     6    7    1 1
     7    8    9 1
     8   10    8 1
     9   11    8 1
    10   12    7 2
    11   13   12 1
    12   14   13 1
    13   15   14 1
    14   16   14 1
    15   17   16 1
    16   18   16 1
    17   19   16 1
    18   20   19 1
    19   21   19 1
    20   22   19 1
    21   23   22 1
    22   24   23 1
    23   25    8 1
    24   26   23 1
    25   27   26 1
    26   28   27 1
    27   29   27 2
    28   30   22 1
    29   31   30 1
    30   32   31 1
    31   33   31 1
    32   34   31 1
    33   35   34 1
    34   36   34 1
    35   37   34 1
    36   38   29 1
    37   39   38 1
    38   40   38 1
    39   41   40 1
    40   42   40 1
    41   43   40 1
    42   44   43 1
    43   45   44 1
    44   46   44 1
    45   47   37 1
    46   48   47 1
    47   49   47 1
    48   50   13 1
    49   51   50 1
    50   52   50 1
    51   53   50 1
    52   54   13 1
    53   55   54 1
    54   56   54 1
    55   57   54 1
    56   58   25 1
    57   59   58 1
    58   60   58 1
    59   61   58 1
    60   62   22 1
    61   63   62 1
    62   64   62 1
    63   65   62 1
    64   66   30 1
    65   67   66 1
    66   68   66 1
    67   69   66 1
    68   70   37 1
    69   71   70 1
    70   72   70 1
    71   73   70 1
    72   74   43 1
    73   75   74 1
    74   76   74 1
    75   77   74 1
    76   78    4 1
    77   11   12 1
    78   14   25 1
    79   23   25 1
    80   29   30 1
    81   37   38 1
    82   43   78 1
    83   44   47 1
@<TRIPOS>SUBSTRUCTURE
     1 RES1 1

@<TRIPOS>CRYSIN
   8.5489   10.9019   28.8980  90.0000  90.0000  90.0000  19 1

