# MOL2 file generated by ConQuest
# Please check atom types

@<TRIPOS>MOLECULE
BOWCUM
    45    50     1
SMALL
NO_CHARGES
****
Generated from CSD

@<TRIPOS>ATOM
      1 O1         3.0731    6.1795    7.7767 O.2       1 RES1    0.0000
      2 O2        -0.2471    7.7982   10.7164 O.2       1 RES1    0.0000
      3 O3         2.6666    3.6034    8.6601 O.2       1 RES1    0.0000
      4 O4        -1.0230    5.0545   11.2010 O.2       1 RES1    0.0000
      5 O5         6.5106    2.7904   13.2839 O.2       1 RES1    0.0000
      6 O6         4.5090    2.0755   13.1322 O.2       1 RES1    0.0000
      7 N1         5.3672    2.8980   12.8881 N.pl3     1 RES1    0.0000
      8 C1         1.3871    6.3989    9.5496 C.3       1 RES1    0.0000
      9 C2         1.0375    4.9157    9.9196 C.3       1 RES1    0.0000
     10 C3         1.9350    5.7497   10.7876 C.3       1 RES1    0.0000
     11 H1         1.4827    6.0594   11.6007 H         1 RES1    0.0000
     12 C4         2.0885    6.6998    8.2418 C.2       1 RES1    0.0000
     13 C5         0.3644    7.5119    9.7088 C.2       1 RES1    0.0000
     14 C6         1.5435    3.7735    9.0613 C.2       1 RES1    0.0000
     15 C7        -0.3430    4.5127   10.3627 C.2       1 RES1    0.0000
     16 C8         1.3354    7.7912    7.6072 C.ar      1 RES1    0.0000
     17 C9         0.3447    8.2606    8.4440 C.ar      1 RES1    0.0000
     18 C10       -0.4506    9.3321    8.0783 C.ar      1 RES1    0.0000
     19 H2        -1.1305    9.6409    8.6333 H         1 RES1    0.0000
     20 C11       -0.1955    9.9278    6.8533 C.ar      1 RES1    0.0000
     21 H3        -0.7048   10.6610    6.5908 H         1 RES1    0.0000
     22 C12        0.7963    9.4599    6.0133 C.ar      1 RES1    0.0000
     23 H4         0.9411    9.8763    5.1937 H         1 RES1    0.0000
     24 C13        1.5701    8.3837    6.3790 C.ar      1 RES1    0.0000
     25 H5         2.2351    8.0611    5.8143 H         1 RES1    0.0000
     26 C14        0.3974    2.8553    8.8860 C.ar      1 RES1    0.0000
     27 C15       -0.6863    3.2724    9.6195 C.ar      1 RES1    0.0000
     28 C16       -1.8728    2.5507    9.6389 C.ar      1 RES1    0.0000
     29 H6        -2.6050    2.8387   10.1358 H         1 RES1    0.0000
     30 C17       -1.9240    1.3946    8.8968 C.ar      1 RES1    0.0000
     31 H7        -2.7031    0.8875    8.8914 H         1 RES1    0.0000
     32 C18       -0.8309    0.9712    8.1547 C.ar      1 RES1    0.0000
     33 H8        -0.8897    0.1831    7.6653 H         1 RES1    0.0000
     34 C19        0.3384    1.6954    8.1289 C.ar      1 RES1    0.0000
     35 H9         1.0648    1.4159    7.6201 H         1 RES1    0.0000
     36 C20        3.3779    5.4377   11.0285 C.ar      1 RES1    0.0000
     37 C21        4.3872    6.2655   10.5983 C.ar      1 RES1    0.0000
     38 H10        4.1794    7.0236   10.1014 H         1 RES1    0.0000
     39 C22        5.7113    5.9865   10.8940 C.ar      1 RES1    0.0000
     40 H11        6.3832    6.5441   10.5768 H         1 RES1    0.0000
     41 C23        6.0364    4.8918   11.6534 C.ar      1 RES1    0.0000
     42 H12        6.9208    4.7080   11.8728 H         1 RES1    0.0000
     43 C24        5.0240    4.0815   12.0782 C.ar      1 RES1    0.0000
     44 C25        3.6926    4.3232   11.7910 C.ar      1 RES1    0.0000
     45 H13        3.0262    3.7542   12.1019 H         1 RES1    0.0000
@<TRIPOS>BOND
     1    1   12 2
     2    2   13 2
     3    3   14 2
     4    4   15 2
     5    5    7 2
     6    6    7 2
     7    7   43 1
     8    8    9 1
     9    9   10 1
    10   10    8 1
    11   11   10 1
    12   12    8 1
    13   13    8 1
    14   14    9 1
    15   15    9 1
    16   16   12 1
    17   17   13 1
    18   18   17 ar
    19   19   18 1
    20   20   18 ar
    21   21   20 1
    22   22   20 ar
    23   23   22 1
    24   24   16 ar
    25   25   24 1
    26   26   14 1
    27   27   15 1
    28   28   27 ar
    29   29   28 1
    30   30   28 ar
    31   31   30 1
    32   32   30 ar
    33   33   32 1
    34   34   26 ar
    35   35   34 1
    36   36   10 1
    37   37   36 ar
    38   38   37 1
    39   39   37 ar
    40   40   39 1
    41   41   39 ar
    42   42   41 1
    43   43   41 ar
    44   44   36 ar
    45   45   44 1
    46   16   17 ar
    47   22   24 ar
    48   26   27 ar
    49   32   34 ar
    50   43   44 ar
@<TRIPOS>SUBSTRUCTURE
     1 RES1 1

@<TRIPOS>CRYSIN
  10.2632   17.4370   11.4706  90.0000 110.3410  90.0000  14 1

