# MOL2 file generated by ConQuest
# Please check atom types

@<TRIPOS>MOLECULE
BOWCOG
    55    58     1
SMALL
NO_CHARGES
****
Generated from CSD

@<TRIPOS>ATOM
      1 O1         2.5466    1.9690    4.9741 O.2       1 RES1    0.0000
      2 O2        -1.5804    1.0240    6.5178 O.2       1 RES1    0.0000
      3 O3         0.3492   -3.6415    5.2704 O.2       1 RES1    0.0000
      4 O4         1.0448    0.6805    6.7285 O.3       1 RES1    0.0000
      5 O5         2.3059   -0.9451   -0.9561 O.2       1 RES1    0.0000
      6 O6         0.3340   -1.4055   -0.2709 O.2       1 RES1    0.0000
      7 N1         1.5105   -1.1399   -0.0550 N.pl3     1 RES1    0.0000
      8 C1        -0.2686    4.2005    5.0963 C.3       1 RES1    0.0000
      9 H1         0.3348    4.8880    4.8010 H         1 RES1    0.0000
     10 H2         0.1281    3.7207    5.8264 H         1 RES1    0.0000
     11 H3        -1.0920    4.5998    5.3855 H         1 RES1    0.0000
     12 C2        -1.1697    3.9992    2.8032 C.3       1 RES1    0.0000
     13 H4        -0.5719    4.6883    2.5059 H         1 RES1    0.0000
     14 H5        -1.9969    4.3937    3.0893 H         1 RES1    0.0000
     15 H6        -1.3388    3.3874    2.0823 H         1 RES1    0.0000
     16 C3        -0.5421    3.2506    3.9589 C.3       1 RES1    0.0000
     17 C4         0.7660    2.5615    3.5119 C.3       1 RES1    0.0000
     18 H7         0.5717    1.9352    2.7961 H         1 RES1    0.0000
     19 H8         1.3816    3.2281    3.1688 H         1 RES1    0.0000
     20 C5         1.3981    1.8402    4.6401 C.2       1 RES1    0.0000
     21 C6         0.4982    0.8501    5.3875 C.3       1 RES1    0.0000
     22 C7        -0.9556    1.3283    5.5453 C.2       1 RES1    0.0000
     23 C8        -1.4955    2.1333    4.4344 C.3       1 RES1    0.0000
     24 H9        -2.3328    2.5358    4.7175 H         1 RES1    0.0000
     25 H10       -1.6874    1.5472    3.6871 H         1 RES1    0.0000
     26 C9         0.4638   -0.6311    4.7582 C.3       1 RES1    0.0000
     27 H11       -0.4384   -0.8147    4.4232 H         1 RES1    0.0000
     28 C10        0.6968   -1.4361    5.9985 C.2       1 RES1    0.0000
     29 C11        0.5975   -2.8674    6.1848 C.2       1 RES1    0.0000
     30 C12        0.7783   -3.3391    7.6002 C.3       1 RES1    0.0000
     31 H12        1.0810   -4.2601    7.5757 H         1 RES1    0.0000
     32 H13       -0.0892   -3.3295    8.0350 H         1 RES1    0.0000
     33 C13        1.7449   -2.5438    8.4565 C.3       1 RES1    0.0000
     34 C14        1.3529   -1.0481    8.3995 C.3       1 RES1    0.0000
     35 H14        0.5881   -0.8919    8.9778 H         1 RES1    0.0000
     36 H15        2.0894   -0.5071    8.7243 H         1 RES1    0.0000
     37 C15        1.0185   -0.6456    7.0330 C.2       1 RES1    0.0000
     38 C16        3.1745   -2.6984    7.9291 C.3       1 RES1    0.0000
     39 H16        3.2095   -2.4118    7.0137 H         1 RES1    0.0000
     40 H17        3.4393   -3.6193    7.9871 H         1 RES1    0.0000
     41 H18        3.7690   -2.1606    8.4555 H         1 RES1    0.0000
     42 C17        1.6914   -3.0204    9.9126 C.3       1 RES1    0.0000
     43 H19        0.7965   -2.9254   10.2476 H         1 RES1    0.0000
     44 H20        2.2896   -2.4907   10.4451 H         1 RES1    0.0000
     45 H21        1.9539   -3.9429    9.9584 H         1 RES1    0.0000
     46 C18        1.4575   -0.8420    3.6382 C.ar      1 RES1    0.0000
     47 C19        1.0295   -0.9064    2.3297 C.ar      1 RES1    0.0000
     48 H22        0.1228   -0.8646    2.1261 H         1 RES1    0.0000
     49 C20        1.9725   -1.0320    1.3268 C.ar      1 RES1    0.0000
     50 C21        3.3050   -1.0674    1.5691 C.ar      1 RES1    0.0000
     51 H23        3.9137   -1.1125    0.8665 H         1 RES1    0.0000
     52 C22        3.7376   -1.0336    2.8613 C.ar      1 RES1    0.0000
     53 H24        4.6482   -1.0819    3.0476 H         1 RES1    0.0000
     54 C23        2.8237   -0.9290    3.8968 C.ar      1 RES1    0.0000
     55 H25        3.1262   -0.9161    4.7756 H         1 RES1    0.0000
@<TRIPOS>BOND
     1    1   20 2
     2    2   22 2
     3    3   29 2
     4    4   21 1
     5    5    7 2
     6    6    7 2
     7    7   49 1
     8    8    9 1
     9   10    8 1
    10   11    8 1
    11   12   13 1
    12   14   12 1
    13   15   12 1
    14   16    8 1
    15   17   16 1
    16   18   17 1
    17   19   17 1
    18   20   17 1
    19   21   20 1
    20   22   21 1
    21   23   16 1
    22   24   23 1
    23   25   23 1
    24   26   21 1
    25   27   26 1
    26   28   26 1
    27   29   28 1
    28   30   29 1
    29   31   30 1
    30   32   30 1
    31   33   30 1
    32   34   33 1
    33   35   34 1
    34   36   34 1
    35   37    4 1
    36   38   33 1
    37   39   38 1
    38   40   38 1
    39   41   38 1
    40   42   33 1
    41   43   42 1
    42   44   42 1
    43   45   42 1
    44   46   26 1
    45   47   46 ar
    46   48   47 1
    47   49   47 ar
    48   50   49 ar
    49   51   50 1
    50   52   50 ar
    51   53   52 1
    52   54   46 ar
    53   55   54 1
    54   12   16 1
    55   22   23 1
    56   28   37 2
    57   34   37 1
    58   52   54 ar
@<TRIPOS>SUBSTRUCTURE
     1 RES1 1

@<TRIPOS>CRYSIN
  12.8000   16.1000   11.1400  90.0000 113.9300  90.0000  14 1

