# MOL2 file generated by ConQuest
# Please check atom types

@<TRIPOS>MOLECULE
BOWDIB
    51    52     1
SMALL
NO_CHARGES
****
Generated from CSD

@<TRIPOS>ATOM
      1 O1         3.9912    4.7371   14.7715 O.3       1 RES1    0.0000
      2 H1         3.6855    4.1859   15.2957 H         1 RES1    0.0000
      3 O2         3.3104    8.4171   14.4555 O.2       1 RES1    0.0000
      4 O3         3.2928    6.9155   12.9015 O.2       1 RES1    0.0000
      5 O4         8.0956    3.3473   12.5138 O.2       1 RES1    0.0000
      6 O5         7.8415    4.8654   10.9264 O.3       1 RES1    0.0000
      7 N1         7.2213    5.9338   14.0103 N.3       1 RES1    0.0000
      8 N2         3.7751    7.4377   13.8927 N.pl3     1 RES1    0.0000
      9 C1         5.9845    6.4058   13.3540 C.3       1 RES1    0.0000
     10 H2         5.5731    5.6661   12.8601 H         1 RES1    0.0000
     11 C2         5.0393    6.8600   14.4828 C.3       1 RES1    0.0000
     12 H3         5.4905    7.5776   14.9738 H         1 RES1    0.0000
     13 C3         4.6728    5.7605   15.5012 C.3       1 RES1    0.0000
     14 C4         6.0122    5.2297   16.0302 C.3       1 RES1    0.0000
     15 H4         6.4503    5.9231   16.5480 H         1 RES1    0.0000
     16 H5         5.8480    4.4765   16.6186 H         1 RES1    0.0000
     17 C5         6.9225    4.7956   14.9076 C.3       1 RES1    0.0000
     18 H6         7.7491    4.4481   15.2766 H         1 RES1    0.0000
     19 H7         6.4968    4.0865   14.4005 H         1 RES1    0.0000
     20 C6         6.2311    7.5763   12.4091 C.ar      1 RES1    0.0000
     21 C7         6.8998    8.7080   12.8342 C.ar      1 RES1    0.0000
     22 H8         7.2459    8.7452   13.6964 H         1 RES1    0.0000
     23 C8         7.0579    9.7922   11.9767 C.ar      1 RES1    0.0000
     24 H9         7.5166   10.5456   12.2721 H         1 RES1    0.0000
     25 C9         6.5495    9.7655   10.7034 C.ar      1 RES1    0.0000
     26 H10        6.6621   10.4939   10.1349 H         1 RES1    0.0000
     27 C10        5.8800    8.6651   10.2863 C.ar      1 RES1    0.0000
     28 H11        5.5225    8.6418    9.4279 H         1 RES1    0.0000
     29 C11        5.7219    7.5711   11.1243 C.ar      1 RES1    0.0000
     30 H12        5.2652    6.8220   10.8169 H         1 RES1    0.0000
     31 C12        3.7981    6.2837   16.6339 C.3       1 RES1    0.0000
     32 H13        3.6648    5.5886   17.2830 H         1 RES1    0.0000
     33 H14        2.9477    6.5585   16.2805 H         1 RES1    0.0000
     34 H15        4.2289    7.0338   17.0507 H         1 RES1    0.0000
     35 C13        8.3419    5.6916   13.0855 C.3       1 RES1    0.0000
     36 H16        8.4207    6.4836   12.5132 H         1 RES1    0.0000
     37 C14        9.6978    5.5175   13.8137 C.3       1 RES1    0.0000
     38 H17        9.6471    4.7026   14.3564 H         1 RES1    0.0000
     39 C15        9.9643    6.6851   14.7445 C.3       1 RES1    0.0000
     40 H18        9.9539    7.5040   14.2432 H         1 RES1    0.0000
     41 H19       10.8239    6.5753   15.1590 H         1 RES1    0.0000
     42 H20        9.2855    6.7161   15.4221 H         1 RES1    0.0000
     43 C16       10.8187    5.3380   12.8013 C.3       1 RES1    0.0000
     44 H21       11.6339    5.1249   13.2613 H         1 RES1    0.0000
     45 H22       10.9334    6.1517   12.3059 H         1 RES1    0.0000
     46 H23       10.5945    4.6251   12.1986 H         1 RES1    0.0000
     47 C17        8.0942    4.5011   12.1711 C.2       1 RES1    0.0000
     48 C18        7.5869    3.7946    9.9695 C.3       1 RES1    0.0000
     49 H24        6.8967    3.2199   10.3083 H         1 RES1    0.0000
     50 H25        8.3907    3.2870    9.8365 H         1 RES1    0.0000
     51 H26        7.3048    4.1730    9.1339 H         1 RES1    0.0000
@<TRIPOS>BOND
     1    1    2 1
     2    3    8 2
     3    4    8 2
     4    5   47 2
     5    6   47 1
     6    7    9 1
     7    8   11 1
     8    9   10 1
     9   11    9 1
    10   12   11 1
    11   13    1 1
    12   14   13 1
    13   15   14 1
    14   16   14 1
    15   17    7 1
    16   18   17 1
    17   19   17 1
    18   20    9 1
    19   21   20 ar
    20   22   21 1
    21   23   21 ar
    22   24   23 1
    23   25   23 ar
    24   26   25 1
    25   27   25 ar
    26   28   27 1
    27   29   20 ar
    28   30   29 1
    29   31   13 1
    30   32   31 1
    31   33   31 1
    32   34   31 1
    33   35    7 1
    34   36   35 1
    35   37   35 1
    36   38   37 1
    37   39   37 1
    38   40   39 1
    39   41   39 1
    40   42   39 1
    41   43   37 1
    42   44   43 1
    43   45   43 1
    44   46   43 1
    45   47   35 1
    46   48    6 1
    47   49   48 1
    48   50   48 1
    49   51   48 1
    50   11   13 1
    51   14   17 1
    52   27   29 ar
@<TRIPOS>SUBSTRUCTURE
     1 RES1 1

@<TRIPOS>CRYSIN
  10.3321   12.9156   14.6989  90.0000  90.0000  90.0000  19 1

