# MOL2 file generated by ConQuest
# Please check atom types

@<TRIPOS>MOLECULE
BOWDAT
    46    48     1
SMALL
NO_CHARGES
****
Generated from CSD

@<TRIPOS>ATOM
      1 O1         4.0615    1.5269    7.5893 O.2       1 RES1    0.0000
      2 O2         6.1420    2.0244    7.8066 O.2       1 RES1    0.0000
      3 O3         3.5865   -0.4546    9.7322 O.3       1 RES1    0.0000
      4 H1         3.6019   -0.5999    8.9252 H         1 RES1    0.0000
      5 N1         3.7796    2.3432   11.7338 N.3       1 RES1    0.0000
      6 N2         5.0574    1.7266    8.2679 N.pl3     1 RES1    0.0000
      7 C1         3.7649    2.4281   10.2609 C.3       1 RES1    0.0000
      8 H2         2.9228    2.0608    9.9189 H         1 RES1    0.0000
      9 C2         4.9373    1.5818    9.7529 C.3       1 RES1    0.0000
     10 H3         5.7579    1.9374   10.1548 H         1 RES1    0.0000
     11 C3         4.8341    0.0895   10.1388 C.3       1 RES1    0.0000
     12 C4         4.8172    0.0950   11.6648 C.3       1 RES1    0.0000
     13 H4         4.7116   -0.8130   11.9879 H         1 RES1    0.0000
     14 H5         5.6652    0.4329   11.9936 H         1 RES1    0.0000
     15 C5         3.6923    0.9532   12.2058 C.3       1 RES1    0.0000
     16 H6         2.8422    0.5755   11.9293 H         1 RES1    0.0000
     17 H7         3.7220    0.9434   13.1747 H         1 RES1    0.0000
     18 C6         2.6526    3.1079   12.2941 C.3       1 RES1    0.0000
     19 H8         1.8335    2.6051   12.1609 H         1 RES1    0.0000
     20 H9         2.5685    3.9453   11.8121 H         1 RES1    0.0000
     21 C7         2.8140    3.4034   13.7642 C.ar      1 RES1    0.0000
     22 C8         1.8310    3.0584   14.6782 C.ar      1 RES1    0.0000
     23 H10        1.0945    2.5639   14.4015 H         1 RES1    0.0000
     24 C9         1.9419    3.4493   16.0105 C.ar      1 RES1    0.0000
     25 H11        1.2765    3.2155   16.6178 H         1 RES1    0.0000
     26 C10        3.0170    4.1707   16.4296 C.ar      1 RES1    0.0000
     27 H12        3.0778    4.4439   17.3170 H         1 RES1    0.0000
     28 C11        4.0135    4.4942   15.5384 C.ar      1 RES1    0.0000
     29 H13        4.7566    4.9736   15.8271 H         1 RES1    0.0000
     30 C12        3.9133    4.1082   14.2128 C.ar      1 RES1    0.0000
     31 H14        4.5939    4.3253   13.6180 H         1 RES1    0.0000
     32 C13        3.9210    3.8638    9.7912 C.ar      1 RES1    0.0000
     33 C14        4.9977    4.6329   10.2056 C.ar      1 RES1    0.0000
     34 H15        5.6223    4.2739   10.7940 H         1 RES1    0.0000
     35 C15        5.1502    5.9325    9.7499 C.ar      1 RES1    0.0000
     36 H16        5.8759    6.4408   10.0333 H         1 RES1    0.0000
     37 C16        4.2293    6.4753    8.8761 C.ar      1 RES1    0.0000
     38 H17        4.3397    7.3437    8.5620 H         1 RES1    0.0000
     39 C17        3.1576    5.7346    8.4756 C.ar      1 RES1    0.0000
     40 H18        2.5284    6.1070    7.9014 H         1 RES1    0.0000
     41 C18        2.9980    4.4229    8.9217 C.ar      1 RES1    0.0000
     42 H19        2.2689    3.9218    8.6349 H         1 RES1    0.0000
     43 C19        5.9804   -0.7248    9.5692 C.3       1 RES1    0.0000
     44 H20        5.9217   -1.6276    9.8889 H         1 RES1    0.0000
     45 H21        6.8152   -0.3403    9.8474 H         1 RES1    0.0000
     46 H22        5.9305   -0.7205    8.6106 H         1 RES1    0.0000
@<TRIPOS>BOND
     1    1    6 2
     2    2    6 2
     3    3    4 1
     4    5    7 1
     5    6    9 1
     6    7    8 1
     7    9    7 1
     8   10    9 1
     9   11    3 1
    10   12   11 1
    11   13   12 1
    12   14   12 1
    13   15    5 1
    14   16   15 1
    15   17   15 1
    16   18    5 1
    17   19   18 1
    18   20   18 1
    19   21   18 1
    20   22   21 ar
    21   23   22 1
    22   24   22 ar
    23   25   24 1
    24   26   24 ar
    25   27   26 1
    26   28   26 ar
    27   29   28 1
    28   30   21 ar
    29   31   30 1
    30   32    7 1
    31   33   32 ar
    32   34   33 1
    33   35   33 ar
    34   36   35 1
    35   37   35 ar
    36   38   37 1
    37   39   37 ar
    38   40   39 1
    39   41   32 ar
    40   42   41 1
    41   43   11 1
    42   44   43 1
    43   45   43 1
    44   46   43 1
    45    9   11 1
    46   12   15 1
    47   28   30 ar
    48   39   41 ar
@<TRIPOS>SUBSTRUCTURE
     1 RES1 1

@<TRIPOS>CRYSIN
   5.7503   10.5035   14.4320  87.3260  82.3570  81.2620   2 1

