# MOL2 file generated by ConQuest
# Please check atom types

@<TRIPOS>MOLECULE
BOWDEX
    49    51     1
SMALL
NO_CHARGES
****
Generated from CSD

@<TRIPOS>ATOM
      1 O1         3.2985    2.1808    1.9003 O.3       1 RES1    0.0000
      2 H1         3.5655    2.5763    1.2331 H         1 RES1    0.0000
      3 O2        -0.2159    1.9266   -0.1651 O.2       1 RES1    0.0000
      4 O3         0.8534    3.4990    0.8202 O.2       1 RES1    0.0000
      5 N1         1.0642    0.6854    4.0501 N.3       1 RES1    0.0000
      6 N2         0.5134    2.3402    0.7301 N.pl3     1 RES1    0.0000
      7 C1         0.7282    1.8327    3.1680 C.3       1 RES1    0.0000
      8 H2         1.3216    2.5835    3.3791 H         1 RES1    0.0000
      9 C2         1.0147    1.3483    1.7325 C.3       1 RES1    0.0000
     10 H3         0.5228    0.5116    1.5947 H         1 RES1    0.0000
     11 C3         2.5181    1.0543    1.5040 C.3       1 RES1    0.0000
     12 C4         2.8294   -0.0667    2.4890 C.3       1 RES1    0.0000
     13 H4         2.3167   -0.8547    2.2527 H         1 RES1    0.0000
     14 H5         3.7715   -0.2925    2.4335 H         1 RES1    0.0000
     15 C5         2.4938    0.3449    3.9147 C.3       1 RES1    0.0000
     16 H6         2.7103   -0.3816    4.5203 H         1 RES1    0.0000
     17 H7         3.0329    1.1124    4.1646 H         1 RES1    0.0000
     18 C6         0.6570    0.8806    5.4643 C.3       1 RES1    0.0000
     19 H8        -0.2808    1.1653    5.4480 H         1 RES1    0.0000
     20 C7         0.6940   -0.4457    6.2249 C.3       1 RES1    0.0000
     21 H9         1.6083   -0.7681    6.2661 H         1 RES1    0.0000
     22 H10        0.1642   -1.1039    5.7504 H         1 RES1    0.0000
     23 C8         0.1484   -0.2868    7.6480 C.3       1 RES1    0.0000
     24 H11       -0.7939   -0.0602    7.6088 H         1 RES1    0.0000
     25 H12        0.2332   -1.1292    8.1216 H         1 RES1    0.0000
     26 C9         0.8940    0.7942    8.4086 C.3       1 RES1    0.0000
     27 H13        0.4888    0.9113    9.2806 H         1 RES1    0.0000
     28 H14        1.8143    0.5189    8.5396 H         1 RES1    0.0000
     29 C10        0.8659    2.1099    7.6619 C.3       1 RES1    0.0000
     30 H15        1.3926    2.7653    8.1453 H         1 RES1    0.0000
     31 H16       -0.0466    2.4342    7.6148 H         1 RES1    0.0000
     32 C11        1.4248    1.9560    6.2388 C.3       1 RES1    0.0000
     33 H17        1.3556    2.8026    5.7711 H         1 RES1    0.0000
     34 H18        2.3634    1.7143    6.2839 H         1 RES1    0.0000
     35 C12       -0.7173    2.2866    3.3073 C.ar      1 RES1    0.0000
     36 C13       -1.7705    1.4793    2.8897 C.ar      1 RES1    0.0000
     37 H19       -1.5957    0.6212    2.5758 H         1 RES1    0.0000
     38 C14       -3.0828    1.9423    2.9365 C.ar      1 RES1    0.0000
     39 H20       -3.7754    1.4001    2.6351 H         1 RES1    0.0000
     40 C15       -3.3588    3.1948    3.4241 C.ar      1 RES1    0.0000
     41 H21       -4.2370    3.5009    3.4532 H         1 RES1    0.0000
     42 C16       -2.3342    3.9952    3.8670 C.ar      1 RES1    0.0000
     43 H22       -2.5218    4.8371    4.2150 H         1 RES1    0.0000
     44 C17       -1.0149    3.5538    3.7976 C.ar      1 RES1    0.0000
     45 H23       -0.3265    4.1112    4.0816 H         1 RES1    0.0000
     46 C18        2.8064    0.6479    0.0611 C.3       1 RES1    0.0000
     47 H24        2.5849    1.3736   -0.5276 H         1 RES1    0.0000
     48 H25        2.2779   -0.1204   -0.1660 H         1 RES1    0.0000
     49 H26        3.7375    0.4346   -0.0326 H         1 RES1    0.0000
@<TRIPOS>BOND
     1    1    2 1
     2    3    6 2
     3    4    6 2
     4    5    7 1
     5    6    9 1
     6    7    8 1
     7    9    7 1
     8   10    9 1
     9   11    1 1
    10   12   11 1
    11   13   12 1
    12   14   12 1
    13   15    5 1
    14   16   15 1
    15   17   15 1
    16   18    5 1
    17   19   18 1
    18   20   18 1
    19   21   20 1
    20   22   20 1
    21   23   20 1
    22   24   23 1
    23   25   23 1
    24   26   23 1
    25   27   26 1
    26   28   26 1
    27   29   26 1
    28   30   29 1
    29   31   29 1
    30   32   18 1
    31   33   32 1
    32   34   32 1
    33   35    7 1
    34   36   35 ar
    35   37   36 1
    36   38   36 ar
    37   39   38 1
    38   40   38 ar
    39   41   40 1
    40   42   40 ar
    41   43   42 1
    42   44   35 ar
    43   45   44 1
    44   46   11 1
    45   47   46 1
    46   48   46 1
    47   49   46 1
    48    9   11 1
    49   12   15 1
    50   29   32 1
    51   42   44 ar
@<TRIPOS>SUBSTRUCTURE
     1 RES1 1

@<TRIPOS>CRYSIN
   9.7178   12.0387   29.6410  90.0000  90.0000  90.0000  61 1

