# MOL2 file generated by ConQuest
# Please check atom types

@<TRIPOS>MOLECULE
BOWFAV
    51    53     1
SMALL
NO_CHARGES
****
Generated from CSD

@<TRIPOS>ATOM
      1 O1         0.6433    4.2718   10.8872 O.2       1 RES1    0.0000
      2 O2         1.7860    4.9067   12.5925 O.2       1 RES1    0.0000
      3 O3        -0.4332    1.7703   11.9789 O.3       1 RES1    0.0000
      4 H1        -0.2611    1.5974   11.1956 H         1 RES1    0.0000
      5 O4         0.3152   -1.1862    4.5202 O.2       1 RES1    0.0000
      6 O5        -0.2778   -2.8946    5.6973 O.2       1 RES1    0.0000
      7 N1         2.8855    0.7069   10.9806 N.3       1 RES1    0.0000
      8 N2         1.3971    4.0468   11.8182 N.pl3     1 RES1    0.0000
      9 N3         0.3532   -1.8597    5.5459 N.pl3     1 RES1    0.0000
     10 C1         2.3569    2.0528   10.6832 C.3       1 RES1    0.0000
     11 H2         1.6010    1.9812   10.0630 H         1 RES1    0.0000
     12 C2         1.8735    2.6367   12.0276 C.3       1 RES1    0.0000
     13 H3         2.6473    2.6738   12.6269 H         1 RES1    0.0000
     14 C3         0.7778    1.8088   12.7346 C.3       1 RES1    0.0000
     15 C4         1.3756    0.4094   12.8869 C.3       1 RES1    0.0000
     16 H4         2.1250    0.4473   13.5015 H         1 RES1    0.0000
     17 H5         0.7085   -0.1832   13.2666 H         1 RES1    0.0000
     18 C5         1.8454   -0.1534   11.5597 C.3       1 RES1    0.0000
     19 H6         2.1989   -1.0471   11.6926 H         1 RES1    0.0000
     20 H7         1.0954   -0.2130   10.9484 H         1 RES1    0.0000
     21 C6         3.4206    2.9595   10.0899 C.ar      1 RES1    0.0000
     22 C7         3.1334    3.7047    8.9567 C.ar      1 RES1    0.0000
     23 H8         2.2887    3.6522    8.5705 H         1 RES1    0.0000
     24 C8         4.1015    4.5307    8.3934 C.ar      1 RES1    0.0000
     25 H9         3.9048    5.0259    7.6308 H         1 RES1    0.0000
     26 C9         5.3469    4.6135    8.9653 C.ar      1 RES1    0.0000
     27 H10        5.9945    5.1644    8.5882 H         1 RES1    0.0000
     28 C10        5.6418    3.8820   10.0963 C.ar      1 RES1    0.0000
     29 H11        6.4875    3.9411   10.4785 H         1 RES1    0.0000
     30 C11        4.6853    3.0616   10.6624 C.ar      1 RES1    0.0000
     31 H12        4.8864    2.5757   11.4292 H         1 RES1    0.0000
     32 C12        0.4099    2.4005   14.0836 C.3       1 RES1    0.0000
     33 H13       -0.0026    3.2578   13.9551 H         1 RES1    0.0000
     34 H14        1.2030    2.5035   14.6151 H         1 RES1    0.0000
     35 H15       -0.2023    1.8143   14.5336 H         1 RES1    0.0000
     36 C13        3.6359    0.0736    9.8695 C.3       1 RES1    0.0000
     37 H16        4.1922    0.7775    9.4750 H         1 RES1    0.0000
     38 C14        4.5993   -0.9625   10.4484 C.3       1 RES1    0.0000
     39 H17        5.1847   -0.5380   11.0802 H         1 RES1    0.0000
     40 H18        5.1181   -1.3482    9.7398 H         1 RES1    0.0000
     41 H19        4.0988   -1.6528   10.8900 H         1 RES1    0.0000
     42 C15        2.7565   -0.4648    8.7435 C.ar      1 RES1    0.0000
     43 C16        2.2633   -1.7671    8.7276 C.ar      1 RES1    0.0000
     44 H20        2.4654   -2.3357    9.4356 H         1 RES1    0.0000
     45 C17        1.4846   -2.2377    7.6909 C.ar      1 RES1    0.0000
     46 H21        1.1655   -3.1108    7.6932 H         1 RES1    0.0000
     47 C18        1.1907   -1.3794    6.6496 C.ar      1 RES1    0.0000
     48 C19        1.6605   -0.0791    6.6193 C.ar      1 RES1    0.0000
     49 H22        1.4576    0.4847    5.9074 H         1 RES1    0.0000
     50 C20        2.4369    0.3613    7.6693 C.ar      1 RES1    0.0000
     51 H23        2.7570    1.2349    7.6606 H         1 RES1    0.0000
@<TRIPOS>BOND
     1    1    8 2
     2    2    8 2
     3    3    4 1
     4    5    9 2
     5    6    9 2
     6    7   10 1
     7    8   12 1
     8    9   47 1
     9   10   11 1
    10   12   10 1
    11   13   12 1
    12   14    3 1
    13   15   14 1
    14   16   15 1
    15   17   15 1
    16   18    7 1
    17   19   18 1
    18   20   18 1
    19   21   10 1
    20   22   21 ar
    21   23   22 1
    22   24   22 ar
    23   25   24 1
    24   26   24 ar
    25   27   26 1
    26   28   26 ar
    27   29   28 1
    28   30   21 ar
    29   31   30 1
    30   32   14 1
    31   33   32 1
    32   34   32 1
    33   35   32 1
    34   36    7 1
    35   37   36 1
    36   38   36 1
    37   39   38 1
    38   40   38 1
    39   41   38 1
    40   42   36 1
    41   43   42 ar
    42   44   43 1
    43   45   43 ar
    44   46   45 1
    45   47   45 ar
    46   48   47 ar
    47   49   48 1
    48   50   42 ar
    49   51   50 1
    50   12   14 1
    51   15   18 1
    52   28   30 ar
    53   48   50 ar
@<TRIPOS>SUBSTRUCTURE
     1 RES1 1

@<TRIPOS>CRYSIN
   8.2660    8.6189   13.5928  90.5600  92.3010  97.5020   2 1

