# MOL2 file generated by ConQuest
# Please check atom types

@<TRIPOS>MOLECULE
BOWJAZ
   102   104     2
SMALL
NO_CHARGES
****
Generated from CSD

@<TRIPOS>ATOM
      1 O1         3.8014    1.7341    2.1857 O.2       1 RES1    0.0000
      2 O2         4.5761   -0.2437    2.3082 O.2       1 RES1    0.0000
      3 O3         2.3273   -1.1746    0.3702 O.3       1 RES1    0.0000
      4 H1         3.0193   -0.8477    0.0743 H         1 RES1    0.0000
      5 O4        -2.5274    2.1753    3.8731 O.2       1 RES1    0.0000
      6 O5        -0.5561    3.1028    4.1594 O.3       1 RES1    0.0000
      7 O6        10.0101   -0.1890    9.9962 O.2       2 RES2    0.0000
      8 O7        10.6705    1.8615   10.0874 O.2       2 RES2    0.0000
      9 O8        10.3233    1.4048   13.1882 O.3       2 RES2    0.0000
     10 H2        10.2181    2.2141   13.2683 H         2 RES2    0.0000
     11 O9         3.7962   -0.6786   12.3815 O.2       2 RES2    0.0000
     12 O10        5.1160   -1.2182   10.6543 O.3       2 RES2    0.0000
     13 N1         0.1410    0.2264    3.6404 N.3       1 RES1    0.0000
     14 N2         3.6584    0.5432    2.3379 N.pl3     1 RES1    0.0000
     15 N3         6.3870    1.2555   11.6614 N.3       2 RES2    0.0000
     16 N4         9.9033    0.9642   10.3826 N.pl3     2 RES2    0.0000
     17 C1         1.4724    0.8466    3.4989 C.3       1 RES1    0.0000
     18 H3         1.3778    1.7579    3.1505 H         1 RES1    0.0000
     19 C2         2.2666   -0.0126    2.4981 C.3       1 RES1    0.0000
     20 H4         2.3543   -0.9070    2.8890 H         1 RES1    0.0000
     21 C3         1.6108   -0.1823    1.1183 C.3       1 RES1    0.0000
     22 C4         0.2387   -0.7733    1.4085 C.3       1 RES1    0.0000
     23 H5        -0.2504   -0.8660    0.5767 H         1 RES1    0.0000
     24 H6         0.3472   -1.6587    1.7893 H         1 RES1    0.0000
     25 C5        -0.5619    0.0830    2.3632 C.3       1 RES1    0.0000
     26 H7        -0.7046    0.9599    1.9710 H         1 RES1    0.0000
     27 H8        -1.4299   -0.3235    2.5146 H         1 RES1    0.0000
     28 C6         2.1864    0.8811    4.8352 C.ar      1 RES1    0.0000
     29 C7         2.2795   -0.2804    5.6001 C.ar      1 RES1    0.0000
     30 H9         1.9244   -1.0774    5.2798 H         1 RES1    0.0000
     31 C8         2.9019   -0.2459    6.8379 C.ar      1 RES1    0.0000
     32 H10        2.9400   -1.0127    7.3636 H         1 RES1    0.0000
     33 C9         3.4644    0.9297    7.2879 C.ar      1 RES1    0.0000
     34 H11        3.9023    0.9480    8.1083 H         1 RES1    0.0000
     35 C10        3.3832    2.0459    6.5516 C.ar      1 RES1    0.0000
     36 H12        3.7631    2.8321    6.8736 H         1 RES1    0.0000
     37 C11        2.7403    2.0556    5.3073 C.ar      1 RES1    0.0000
     38 H13        2.6863    2.8386    4.8077 H         1 RES1    0.0000
     39 C12        1.5197    1.1055    0.2974 C.3       1 RES1    0.0000
     40 H14        1.0056    0.9426   -0.4969 H         1 RES1    0.0000
     41 H15        2.4034    1.3913    0.0537 H         1 RES1    0.0000
     42 H16        1.0955    1.7881    0.8203 H         1 RES1    0.0000
     43 C13       -0.7087    0.8164    4.6988 C.3       1 RES1    0.0000
     44 H17       -0.1108    1.0763    5.4312 H         1 RES1    0.0000
     45 C14       -1.7243   -0.1866    5.2853 C.3       1 RES1    0.0000
     46 H18       -2.4511   -0.3009    4.6384 H         1 RES1    0.0000
     47 C15       -1.1150   -1.5444    5.5592 C.3       1 RES1    0.0000
     48 H19       -1.7917   -2.1376    5.8923 H         1 RES1    0.0000
     49 H20       -0.4174   -1.4560    6.2130 H         1 RES1    0.0000
     50 H21       -0.7490   -1.9003    4.7458 H         1 RES1    0.0000
     51 C16       -2.3152    0.4141    6.5736 C.3       1 RES1    0.0000
     52 H22       -1.6304    0.4691    7.2439 H         1 RES1    0.0000
     53 H23       -3.0276   -0.1456    6.8902 H         1 RES1    0.0000
     54 H24       -2.6546    1.2931    6.3905 H         1 RES1    0.0000
     55 C17       -1.3983    2.0977    4.2103 C.2       1 RES1    0.0000
     56 C18       -1.0730    4.3646    3.6515 C.3       1 RES1    0.0000
     57 H25       -1.7009    4.7292    4.2792 H         1 RES1    0.0000
     58 H26       -1.5110    4.2147    2.8106 H         1 RES1    0.0000
     59 H27       -0.3468    4.9805    3.5290 H         1 RES1    0.0000
     60 C19        7.4448    0.7491   10.7533 C.3       2 RES2    0.0000
     61 H28        7.4527   -0.2308   10.7661 H         2 RES2    0.0000
     62 C20        8.7731    1.2910   11.3210 C.3       2 RES2    0.0000
     63 H29        8.6976    2.2670   11.3551 H         2 RES2    0.0000
     64 C21        9.1059    0.8089   12.7475 C.3       2 RES2    0.0000
     65 C22        7.9193    1.2791   13.5901 C.3       2 RES2    0.0000
     66 H30        8.0270    0.9566   14.4988 H         2 RES2    0.0000
     67 H31        7.9135    2.2487   13.6179 H         2 RES2    0.0000
     68 C23        6.5898    0.7895   13.0429 C.3       2 RES2    0.0000
     69 H32        6.5697   -0.1801   13.0632 H         2 RES2    0.0000
     70 H33        5.8694    1.1173   13.6028 H         2 RES2    0.0000
     71 C24        7.2520    1.2424    9.3354 C.ar      2 RES2    0.0000
     72 C25        7.1366    2.6035    9.0731 C.ar      2 RES2    0.0000
     73 H34        7.1449    3.2107    9.7778 H         2 RES2    0.0000
     74 C26        7.0101    3.0608    7.7779 C.ar      2 RES2    0.0000
     75 H35        6.9181    3.9732    7.6224 H         2 RES2    0.0000
     76 C27        7.0192    2.2131    6.7456 C.ar      2 RES2    0.0000
     77 H36        6.9496    2.5377    5.8771 H         2 RES2    0.0000
     78 C28        7.1310    0.8563    6.9686 C.ar      2 RES2    0.0000
     79 H37        7.1315    0.2685    6.2474 H         2 RES2    0.0000
     80 C29        7.2459    0.3516    8.2828 C.ar      2 RES2    0.0000
     81 H38        7.3158   -0.5630    8.4358 H         2 RES2    0.0000
     82 C30        9.3371   -0.6935   12.8664 C.3       2 RES2    0.0000
     83 H39        9.4877   -0.9221   13.7872 H         2 RES2    0.0000
     84 H40       10.1044   -0.9415   12.3461 H         2 RES2    0.0000
     85 H41        8.5657   -1.1637   12.5430 H         2 RES2    0.0000
     86 C31        5.0043    1.0806   11.1858 C.3       2 RES2    0.0000
     87 H42        5.0228    1.1809   10.2114 H         2 RES2    0.0000
     88 C32        4.0335    2.1397   11.7272 C.3       2 RES2    0.0000
     89 H43        3.9018    1.9726   12.6847 H         2 RES2    0.0000
     90 C33        2.6847    2.0179   11.0344 C.3       2 RES2    0.0000
     91 H44        2.7753    2.2627   10.1109 H         2 RES2    0.0000
     92 H45        2.0525    2.6024   11.4611 H         2 RES2    0.0000
     93 H46        2.3733    1.1119   11.0964 H         2 RES2    0.0000
     94 C34        4.5945    3.5310   11.5644 C.3       2 RES2    0.0000
     95 H47        3.9695    4.1716   11.9112 H         2 RES2    0.0000
     96 H48        4.7499    3.7068   10.6325 H         2 RES2    0.0000
     97 H49        5.4226    3.6011   12.0447 H         2 RES2    0.0000
     98 C35        4.5239   -0.3505   11.4816 C.2       2 RES2    0.0000
     99 C36        4.9072   -2.6272   10.9298 C.3       2 RES2    0.0000
    100 H50        3.9822   -2.8461   10.7936 H         2 RES2    0.0000
    101 H51        5.1513   -2.8149   11.8396 H         2 RES2    0.0000
    102 H52        5.4505   -3.1524   10.3380 H         2 RES2    0.0000
@<TRIPOS>BOND
     1    1   14 2
     2    2   14 2
     3    3    4 1
     4    5   55 2
     5    6   55 1
     6    7   16 2
     7    8   16 2
     8    9   10 1
     9   11   98 2
    10   12   98 1
    11   13   17 1
    12   14   19 1
    13   15   60 1
    14   16   62 1
    15   17   18 1
    16   19   17 1
    17   20   19 1
    18   21    3 1
    19   22   21 1
    20   23   22 1
    21   24   22 1
    22   25   13 1
    23   26   25 1
    24   27   25 1
    25   28   17 1
    26   29   28 ar
    27   30   29 1
    28   31   29 ar
    29   32   31 1
    30   33   31 ar
    31   34   33 1
    32   35   33 ar
    33   36   35 1
    34   37   28 ar
    35   38   37 1
    36   39   21 1
    37   40   39 1
    38   41   39 1
    39   42   39 1
    40   43   13 1
    41   44   43 1
    42   45   43 1
    43   46   45 1
    44   47   45 1
    45   48   47 1
    46   49   47 1
    47   50   47 1
    48   51   45 1
    49   52   51 1
    50   53   51 1
    51   54   51 1
    52   55   43 1
    53   56    6 1
    54   57   56 1
    55   58   56 1
    56   59   56 1
    57   60   61 1
    58   62   60 1
    59   63   62 1
    60   64    9 1
    61   65   64 1
    62   66   65 1
    63   67   65 1
    64   68   15 1
    65   69   68 1
    66   70   68 1
    67   71   60 1
    68   72   71 ar
    69   73   72 1
    70   74   72 ar
    71   75   74 1
    72   76   74 ar
    73   77   76 1
    74   78   76 ar
    75   79   78 1
    76   80   71 ar
    77   81   80 1
    78   82   64 1
    79   83   82 1
    80   84   82 1
    81   85   82 1
    82   86   15 1
    83   87   86 1
    84   88   86 1
    85   89   88 1
    86   90   88 1
    87   91   90 1
    88   92   90 1
    89   93   90 1
    90   94   88 1
    91   95   94 1
    92   96   94 1
    93   97   94 1
    94   98   86 1
    95   99   12 1
    96  100   99 1
    97  101   99 1
    98  102   99 1
    99   19   21 1
   100   22   25 1
   101   35   37 ar
   102   62   64 1
   103   65   68 1
   104   78   80 ar
@<TRIPOS>SUBSTRUCTURE
     1 RES1 1
     2 RES2 7

@<TRIPOS>CRYSIN
  13.1001   10.7849   13.7862  90.0000  93.2660  90.0000   4 1

