# MOL2 file generated by ConQuest
# Please check atom types

@<TRIPOS>MOLECULE
BOWJED
    53    55     1
SMALL
NO_CHARGES
****
Generated from CSD

@<TRIPOS>ATOM
      1 O1         3.1204    5.0653   13.5476 O.2       1 RES1    0.0000
      2 O2         2.6129    6.4471   15.1056 O.2       1 RES1    0.0000
      3 O3         5.4585    4.0471   14.8513 O.3       1 RES1    0.0000
      4 H1         5.7671    3.4821   15.3591 H         1 RES1    0.0000
      5 O4         8.8070    3.1433    8.3400 O.3       1 RES1    0.0000
      6 N1         6.9037    6.8988   13.3307 N.3       1 RES1    0.0000
      7 N2         3.4175    5.9211   14.3654 N.pl3     1 RES1    0.0000
      8 C1         5.5014    6.4901   13.1128 C.3       1 RES1    0.0000
      9 H2         5.4732    5.6352   12.6342 H         1 RES1    0.0000
     10 C2         4.8663    6.3325   14.5107 C.3       1 RES1    0.0000
     11 H3         4.8821    7.2122   14.9429 H         1 RES1    0.0000
     12 C3         5.5671    5.3379   15.4541 C.3       1 RES1    0.0000
     13 C4         7.0292    5.7799   15.5061 C.3       1 RES1    0.0000
     14 H4         7.0894    6.6407   15.9512 H         1 RES1    0.0000
     15 H5         7.5405    5.1393   16.0246 H         1 RES1    0.0000
     16 C5         7.6212    5.8901   14.1201 C.3       1 RES1    0.0000
     17 H6         8.5570    6.1357   14.1856 H         1 RES1    0.0000
     18 H7         7.5663    5.0304   13.6746 H         1 RES1    0.0000
     19 C6         4.7318    7.5442   12.3353 C.ar      1 RES1    0.0000
     20 C7         4.7841    8.8852   12.7065 C.ar      1 RES1    0.0000
     21 H8         5.2739    9.1415   13.4543 H         1 RES1    0.0000
     22 C8         4.1028    9.8396   11.9595 C.ar      1 RES1    0.0000
     23 H9         4.1397   10.7336   12.2150 H         1 RES1    0.0000
     24 C9         3.3776    9.4832   10.8558 C.ar      1 RES1    0.0000
     25 H10        2.9428   10.1334   10.3531 H         1 RES1    0.0000
     26 C10        3.2960    8.1602   10.4926 C.ar      1 RES1    0.0000
     27 H11        2.7942    7.9122    9.7503 H         1 RES1    0.0000
     28 C11        3.9630    7.1957   11.2328 C.ar      1 RES1    0.0000
     29 H12        3.8940    6.3020   10.9865 H         1 RES1    0.0000
     30 C12        4.9448    5.3340   16.8413 C.3       1 RES1    0.0000
     31 H13        5.4724    4.7854   17.4275 H         1 RES1    0.0000
     32 H14        4.0529    4.9820   16.7911 H         1 RES1    0.0000
     33 H15        4.9173    6.2309   17.1812 H         1 RES1    0.0000
     34 C13        7.6156    7.2866   12.0825 C.3       1 RES1    0.0000
     35 H16        7.0164    7.9001   11.6077 H         1 RES1    0.0000
     36 C14        8.8594    8.1023   12.4418 C.3       1 RES1    0.0000
     37 H17        9.4901    7.5403   12.8974 H         1 RES1    0.0000
     38 H18        8.6102    8.8315   13.0137 H         1 RES1    0.0000
     39 H19        9.2590    8.4460   11.6398 H         1 RES1    0.0000
     40 C15        7.9129    6.1485   11.1083 C.ar      1 RES1    0.0000
     41 C16        9.0399    5.3349   11.2171 C.ar      1 RES1    0.0000
     42 H20        9.6301    5.4628   11.9244 H         1 RES1    0.0000
     43 C17        9.2950    4.3370   10.2849 C.ar      1 RES1    0.0000
     44 H21       10.0486    3.7996   10.3791 H         1 RES1    0.0000
     45 C18        8.4444    4.1348    9.2229 C.ar      1 RES1    0.0000
     46 C19        7.3154    4.9250    9.0895 C.ar      1 RES1    0.0000
     47 H22        6.7286    4.7945    8.3810 H         1 RES1    0.0000
     48 C20        7.0745    5.9157   10.0314 C.ar      1 RES1    0.0000
     49 H23        6.3170    6.4456    9.9354 H         1 RES1    0.0000
     50 C21        7.8361    2.6853    7.4248 C.3       1 RES1    0.0000
     51 H24        7.6625    3.3687    6.7730 H         1 RES1    0.0000
     52 H25        7.0258    2.4782    7.8960 H         1 RES1    0.0000
     53 H26        8.1600    1.8960    6.9826 H         1 RES1    0.0000
@<TRIPOS>BOND
     1    1    7 2
     2    2    7 2
     3    3    4 1
     4    5   45 1
     5    6    8 1
     6    7   10 1
     7    8    9 1
     8   10    8 1
     9   11   10 1
    10   12    3 1
    11   13   12 1
    12   14   13 1
    13   15   13 1
    14   16    6 1
    15   17   16 1
    16   18   16 1
    17   19    8 1
    18   20   19 ar
    19   21   20 1
    20   22   20 ar
    21   23   22 1
    22   24   22 ar
    23   25   24 1
    24   26   24 ar
    25   27   26 1
    26   28   19 ar
    27   29   28 1
    28   30   12 1
    29   31   30 1
    30   32   30 1
    31   33   30 1
    32   34    6 1
    33   35   34 1
    34   36   34 1
    35   37   36 1
    36   38   36 1
    37   39   36 1
    38   40   34 1
    39   41   40 ar
    40   42   41 1
    41   43   41 ar
    42   44   43 1
    43   45   43 ar
    44   46   45 ar
    45   47   46 1
    46   48   40 ar
    47   49   48 1
    48   50    5 1
    49   51   50 1
    50   52   50 1
    51   53   50 1
    52   10   12 1
    53   13   16 1
    54   26   28 ar
    55   46   48 ar
@<TRIPOS>SUBSTRUCTURE
     1 RES1 1

@<TRIPOS>CRYSIN
   8.5922   15.1199   15.2994  90.0000  90.0000  90.0000  19 1

