# MOL2 file generated by ConQuest
# Please check atom types

@<TRIPOS>MOLECULE
BOWZES
    25    25     1
SMALL
USER_CHARGES
****
Generated from CSD

@<TRIPOS>ATOM
      1 C1        -0.3630    1.6711   -1.6956 C.3       1 RES1    0.0000
      2 O1         0.3070    1.9950   -0.4646 O.3       1 RES1    0.0000
      3 C2         0.6419    0.9624    0.3225 C.2       1 RES1    0.0000
      4 O2         0.4121   -0.1874    0.0632 O.2       1 RES1    0.0000
      5 C3         1.2932    1.5020    1.5210 C.2       1 RES1    0.0000
      6 N1         1.8282    0.7698    2.4536 N.pl3     1 RES1    1.0000
      7 O3         1.9310   -0.5003    2.4461 O.2       1 RES1   -1.0000
      8 C4         2.4056    1.4565    3.6513 C.3       1 RES1    0.0000
      9 C5         3.9051    1.3602    3.6364 C.ar      1 RES1    0.0000
     10 C6         4.6407    2.2954    2.9174 C.ar      1 RES1    0.0000
     11 C7         6.0286    2.2206    2.8775 C.ar      1 RES1    0.0000
     12 C8         6.6867    1.2288    3.5641 C.ar      1 RES1    0.0000
     13 C9         5.9618    0.2967    4.2805 C.ar      1 RES1    0.0000
     14 C10        4.5827    0.3585    4.3204 C.ar      1 RES1    0.0000
     15 H1        -0.5178    2.5435   -2.1029 H         1 RES1    0.0000
     16 H2        -1.1205    1.2351   -1.5210 H         1 RES1    0.0000
     17 H3         0.1536    1.1095   -2.1694 H         1 RES1    0.0000
     18 H4         1.3232    2.3917    1.6291 H         1 RES1    0.0000
     19 H5         2.1272    2.3917    3.6571 H         1 RES1    0.0000
     20 H6         2.0430    0.9316    4.4468 H         1 RES1    0.0000
     21 H7         4.2139    3.0354    2.4686 H         1 RES1    0.0000
     22 H8         6.5609    2.8732    2.4270 H         1 RES1    0.0000
     23 H9         7.5388    1.1723    3.5408 H         1 RES1    0.0000
     24 H10        6.3464   -0.3402    4.7377 H         1 RES1    0.0000
     25 H11        4.0655   -0.2878    4.8208 H         1 RES1    0.0000
@<TRIPOS>BOND
     1    1    2 1
     2    2    3 1
     3    3    4 2
     4    5    3 1
     5    6    5 2
     6    7    6 1
     7    8    6 1
     8    9    8 1
     9   10    9 ar
    10   11   10 ar
    11   12   11 ar
    12   13   12 ar
    13   14    9 ar
    14   15    1 1
    15   16    1 1
    16   17    1 1
    17   18    5 1
    18   19    8 1
    19   20    8 1
    20   21   10 1
    21   22   11 1
    22   23   12 1
    23   24   13 1
    24   25   14 1
    25   13   14 ar
@<TRIPOS>SUBSTRUCTURE
     1 RES1 1

@<TRIPOS>CRYSIN
  11.0690    5.2335    8.6200  90.0000 105.3700  90.0000   7 1

