# MOL2 file generated by ConQuest
# Please check atom types

@<TRIPOS>MOLECULE
BOYTIT
    78    81     1
SMALL
NO_CHARGES
****
Generated from CSD

@<TRIPOS>ATOM
      1 O1         1.6438   -1.1033    0.0688 O.2       1 RES1    0.0000
      2 O2         0.6411    6.2127    4.9797 O.2       1 RES1    0.0000
      3 O3         2.6719    6.6653    4.0863 O.3       1 RES1    0.0000
      4 O4         3.0614   11.8178    6.0848 O.3       1 RES1    0.0000
      5 O5         4.8489   12.2902    4.7888 O.2       1 RES1    0.0000
      6 O6         3.7629   17.9134    7.5437 O.3       1 RES1    0.0000
      7 N1         0.7947   -0.9693    1.0294 N.pl3     1 RES1    0.0000
      8 N2         0.7638    0.0414    1.8158 N.2       1 RES1    0.0000
      9 N3         1.6997    0.9484    1.5264 N.3       1 RES1    0.0000
     10 C1        -0.1845   -2.0021    1.2800 C.ar      1 RES1    0.0000
     11 C2         0.0990   -3.2885    0.8468 C.ar      1 RES1    0.0000
     12 H1         0.9056   -3.4790    0.3823 H         1 RES1    0.0000
     13 C3        -0.8253   -4.2910    1.1087 C.ar      1 RES1    0.0000
     14 H2        -0.6455   -5.1818    0.8287 H         1 RES1    0.0000
     15 C4        -2.0077   -4.0056    1.7735 C.ar      1 RES1    0.0000
     16 H3        -2.6360   -4.6969    1.9478 H         1 RES1    0.0000
     17 C5        -2.2717   -2.7069    2.1849 C.ar      1 RES1    0.0000
     18 H4        -3.0861   -2.5127    2.6334 H         1 RES1    0.0000
     19 C6        -1.3612   -1.6933    1.9476 C.ar      1 RES1    0.0000
     20 H5        -1.5372   -0.8054    2.2361 H         1 RES1    0.0000
     21 C7         1.6600    2.1705    2.2045 C.ar      1 RES1    0.0000
     22 C8         0.5629    2.5254    2.9894 C.ar      1 RES1    0.0000
     23 H6        -0.1761    1.9357    3.0840 H         1 RES1    0.0000
     24 C9         0.5700    3.7502    3.6278 C.ar      1 RES1    0.0000
     25 H7        -0.1779    4.0008    4.1583 H         1 RES1    0.0000
     26 C10        1.6424    4.6243    3.5144 C.ar      1 RES1    0.0000
     27 C11        2.7329    4.2613    2.7222 C.ar      1 RES1    0.0000
     28 H8         3.4692    4.8532    2.6291 H         1 RES1    0.0000
     29 C12        2.7428    3.0399    2.0704 C.ar      1 RES1    0.0000
     30 H9         3.4865    2.7949    1.5335 H         1 RES1    0.0000
     31 C13        1.5634    5.8934    4.2719 C.2       1 RES1    0.0000
     32 C14        2.7089    7.9497    4.6581 C.ar      1 RES1    0.0000
     33 C15        1.6847    8.8625    4.4325 C.ar      1 RES1    0.0000
     34 H10        0.8982    8.6035    3.9682 H         1 RES1    0.0000
     35 C16        1.8337   10.1597    4.9003 C.ar      1 RES1    0.0000
     36 H11        1.1496   10.8032    4.7542 H         1 RES1    0.0000
     37 C17        2.9872   10.5095    5.5809 C.ar      1 RES1    0.0000
     38 C18        4.0010    9.5909    5.8099 C.ar      1 RES1    0.0000
     39 H12        4.7851    9.8484    6.2791 H         1 RES1    0.0000
     40 C19        3.8587    8.2906    5.3456 C.ar      1 RES1    0.0000
     41 H13        4.5398    7.6459    5.4974 H         1 RES1    0.0000
     42 C20        4.0207   12.6467    5.5871 C.2       1 RES1    0.0000
     43 C21        3.9013   14.0053    6.1552 C.ar      1 RES1    0.0000
     44 C22        2.7826   14.4363    6.8562 C.ar      1 RES1    0.0000
     45 H14        2.0655   13.8326    7.0074 H         1 RES1    0.0000
     46 C23        2.6951   15.7313    7.3365 C.ar      1 RES1    0.0000
     47 H15        1.9231   16.0142    7.8126 H         1 RES1    0.0000
     48 C24        3.7486   16.6180    7.1180 C.ar      1 RES1    0.0000
     49 C25        4.8848   16.2001    6.4220 C.ar      1 RES1    0.0000
     50 H16        5.6068   16.8013    6.2770 H         1 RES1    0.0000
     51 C26        4.9506   14.9066    5.9462 C.ar      1 RES1    0.0000
     52 H17        5.7214   14.6237    5.4675 H         1 RES1    0.0000
     53 C27        2.5600   18.4180    8.1552 C.3       1 RES1    0.0000
     54 H18        2.4105   17.9704    9.0257 H         1 RES1    0.0000
     55 H19        1.7821   18.2325    7.5712 H         1 RES1    0.0000
     56 C28        2.7071   19.9041    8.3598 C.3       1 RES1    0.0000
     57 H20        2.9403   20.3345    7.4986 H         1 RES1    0.0000
     58 H21        3.4421   20.0789    9.0001 H         1 RES1    0.0000
     59 C29        1.4108   20.5043    8.8961 C.3       1 RES1    0.0000
     60 H22        1.2047   20.0910    9.7711 H         1 RES1    0.0000
     61 H23        0.6731   20.2789    8.2760 H         1 RES1    0.0000
     62 C30        1.4678   22.0206    9.0656 C.3       1 RES1    0.0000
     63 H24        2.1541   22.2418    9.7454 H         1 RES1    0.0000
     64 H25        1.7502   22.4288    8.2077 H         1 RES1    0.0000
     65 C31        0.1372   22.6344    9.4902 C.3       1 RES1    0.0000
     66 H26       -0.1089   22.2814   10.3819 H         1 RES1    0.0000
     67 H27       -0.5641   22.3535    8.8506 H         1 RES1    0.0000
     68 C32        0.1665   24.1611    9.5528 C.3       1 RES1    0.0000
     69 H28        0.4982   24.5096    8.6882 H         1 RES1    0.0000
     70 H29        0.8078   24.4392   10.2538 H         1 RES1    0.0000
     71 C33       -1.1944   24.7952    9.8503 C.3       1 RES1    0.0000
     72 H30       -1.1289   25.7725    9.7027 H         1 RES1    0.0000
     73 H31       -1.8584   24.4384    9.2072 H         1 RES1    0.0000
     74 C34       -1.6989   24.5489   11.2578 C.3       1 RES1    0.0000
     75 H32       -1.8114   23.5862   11.4007 H         1 RES1    0.0000
     76 H33       -2.5600   25.0003   11.3793 H         1 RES1    0.0000
     77 H34       -1.0504   24.9009   11.9026 H         1 RES1    0.0000
     78 H35        2.2723    0.7707    0.8116 H         1 RES1    0.0000
@<TRIPOS>BOND
     1    1    7 1
     2    2   31 2
     3    3   31 1
     4    4   37 1
     5    5   42 2
     6    6   48 1
     7    7    8 2
     8    8    9 1
     9    9   21 1
    10   10    7 1
    11   11   10 ar
    12   12   11 1
    13   13   11 ar
    14   14   13 1
    15   15   13 ar
    16   16   15 1
    17   17   15 ar
    18   18   17 1
    19   19   10 ar
    20   20   19 1
    21   21   22 ar
    22   22   23 1
    23   24   22 ar
    24   25   24 1
    25   26   24 ar
    26   27   26 ar
    27   28   27 1
    28   29   21 ar
    29   30   29 1
    30   31   26 1
    31   32    3 1
    32   33   32 ar
    33   34   33 1
    34   35   33 ar
    35   36   35 1
    36   37   35 ar
    37   38   37 ar
    38   39   38 1
    39   40   32 ar
    40   41   40 1
    41   42    4 1
    42   43   42 1
    43   44   43 ar
    44   45   44 1
    45   46   44 ar
    46   47   46 1
    47   48   46 ar
    48   49   48 ar
    49   50   49 1
    50   51   43 ar
    51   52   51 1
    52   53    6 1
    53   54   53 1
    54   55   53 1
    55   56   53 1
    56   57   56 1
    57   58   56 1
    58   59   56 1
    59   60   59 1
    60   61   59 1
    61   62   59 1
    62   63   62 1
    63   64   62 1
    64   65   62 1
    65   66   65 1
    66   67   65 1
    67   68   65 1
    68   69   68 1
    69   70   68 1
    70   71   68 1
    71   72   71 1
    72   73   71 1
    73   74   71 1
    74   75   74 1
    75   76   74 1
    76   77   74 1
    77   78    9 1
    78   17   19 ar
    79   27   29 ar
    80   38   40 ar
    81   49   51 ar
@<TRIPOS>SUBSTRUCTURE
     1 RES1 1

@<TRIPOS>CRYSIN
   5.7660   12.1510   21.7510  79.0890  88.6460  84.2780   2 1

