# MOL2 file generated by ConQuest
# Please check atom types

@<TRIPOS>MOLECULE
BOZDUQ
    92    96     2
SMALL
NO_CHARGES
****
Generated from CSD

@<TRIPOS>ATOM
      1 O1         3.8488   -1.5749    1.5629 O.3       1 RES1    0.0000
      2 O2         0.9724    2.4206    0.0284 O.3       1 RES1    0.0000
      3 O3        -0.6164    1.1252    0.9271 O.2       1 RES1    0.0000
      4 O4         0.3293    3.1162    3.2585 O.2       1 RES1    0.0000
      5 N1         2.4421    2.5407    2.7214 N.am      1 RES1    0.0000
      6 H1         3.3021    2.7895    2.5380 H         1 RES1    0.0000
      7 N2         3.3931   -2.0392    2.8178 N.2       1 RES1    0.0000
      8 C1         3.1703   -1.0512    3.5939 C.2       1 RES1    0.0000
      9 C2         3.4331    0.2978    2.9764 C.3       1 RES1    0.0000
     10 H2         4.1170    0.8173    3.4889 H         1 RES1    0.0000
     11 C3         2.1480    1.1163    2.7356 C.3       1 RES1    0.0000
     12 H3         1.4654    0.9089    3.4370 H         1 RES1    0.0000
     13 C4         1.6796    0.5917    1.3553 C.3       1 RES1    0.0000
     14 H4         1.3437   -0.3399    1.4948 H         1 RES1    0.0000
     15 C5         2.9907    0.4829    0.5714 C.3       1 RES1    0.0000
     16 H5         2.8881   -0.1085   -0.2164 H         1 RES1    0.0000
     17 H6         3.3018    1.3719    0.2698 H         1 RES1    0.0000
     18 C6         3.9473   -0.1177    1.5869 C.3       1 RES1    0.0000
     19 H7         4.8866    0.1905    1.4342 H         1 RES1    0.0000
     20 C7         2.7550   -1.2713    5.0097 C.3       1 RES1    0.0000
     21 H8         2.6217   -2.2398    5.1626 H         1 RES1    0.0000
     22 H9         1.8902   -0.8173    5.1699 H         1 RES1    0.0000
     23 C8         3.7859   -0.7464    5.9961 C.3       1 RES1    0.0000
     24 H10        4.6535   -1.1669    5.8163 H         1 RES1    0.0000
     25 H11        3.5032   -0.9596    6.9100 H         1 RES1    0.0000
     26 H12        3.8669    0.2242    5.8985 H         1 RES1    0.0000
     27 C9         0.5443    1.3863    0.7529 C.2       1 RES1    0.0000
     28 C10       -0.0757    3.2953   -0.5050 C.3       1 RES1    0.0000
     29 H13       -0.7647    3.4622    0.1861 H         1 RES1    0.0000
     30 H14       -0.5112    2.8691   -1.2856 H         1 RES1    0.0000
     31 C11        0.5594    4.5650   -0.9090 C.3       1 RES1    0.0000
     32 H15        0.9494    5.0004   -0.1212 H         1 RES1    0.0000
     33 H16       -0.1142    5.1547   -1.3073 H         1 RES1    0.0000
     34 H17        1.2639    4.3832   -1.5641 H         1 RES1    0.0000
     35 C12        1.4770    3.4504    2.9314 C.2       1 RES1    0.0000
     36 C13        1.8395    4.8941    2.7558 C.ar      1 RES1    0.0000
     37 C14        2.9273    5.3071    1.9975 C.ar      1 RES1    0.0000
     38 H18        3.5071    4.6629    1.6088 H         1 RES1    0.0000
     39 C15        3.1666    6.6637    1.8075 C.ar      1 RES1    0.0000
     40 H19        3.9079    6.9461    1.2856 H         1 RES1    0.0000
     41 C16        2.3278    7.5997    2.3767 C.ar      1 RES1    0.0000
     42 H20        2.4902    8.5253    2.2379 H         1 RES1    0.0000
     43 C17        1.2551    7.1980    3.1464 C.ar      1 RES1    0.0000
     44 H21        0.6878    7.8454    3.5481 H         1 RES1    0.0000
     45 C18        1.0050    5.8469    3.3328 C.ar      1 RES1    0.0000
     46 H22        0.2615    5.5694    3.8554 H         1 RES1    0.0000
     47 O5        -1.0101   -0.4689    6.1057 O.3       2 RES2    0.0000
     48 O6        -5.0625    2.8828    5.6868 O.3       2 RES2    0.0000
     49 O7        -3.2668    4.2197    5.5990 O.2       2 RES2    0.0000
     50 O8        -4.7119    2.6060    2.3095 O.2       2 RES2    0.0000
     51 N3        -2.5876    2.5366    3.0855 N.am      2 RES2    0.0000
     52 H23       -1.7551    2.8546    3.0200 H         2 RES2    0.0000
     53 N4        -1.7484   -1.4488    5.3906 N.2       2 RES2    0.0000
     54 C19       -2.0883   -0.9887    4.2486 C.2       2 RES2    0.0000
     55 C20       -1.6447    0.4265    4.0040 C.3       2 RES2    0.0000
     56 H24       -1.0718    0.5039    3.1888 H         2 RES2    0.0000
     57 C21       -2.8397    1.4121    3.9704 C.3       2 RES2    0.0000
     58 H25       -3.6668    0.9306    3.6794 H         2 RES2    0.0000
     59 C22       -2.9767    1.8381    5.4586 C.3       2 RES2    0.0000
     60 H26       -3.4477    1.1139    5.9634 H         2 RES2    0.0000
     61 C23       -1.5317    1.9194    5.9365 C.3       2 RES2    0.0000
     62 H27       -1.1097    2.7654    5.6446 H         2 RES2    0.0000
     63 H28       -1.4812    1.8589    6.9230 H         2 RES2    0.0000
     64 C24       -0.8611    0.7305    5.2895 C.3       2 RES2    0.0000
     65 H29        0.1008    0.9186    5.0919 H         2 RES2    0.0000
     66 C25       -2.8588   -1.7875    3.2479 C.3       2 RES2    0.0000
     67 H30       -2.2890   -1.9143    2.4471 H         2 RES2    0.0000
     68 H31       -3.6477   -1.2585    2.9680 H         2 RES2    0.0000
     69 C26       -3.3348   -3.1432    3.7125 C.3       2 RES2    0.0000
     70 H32       -2.5609   -3.7081    3.9174 H         2 RES2    0.0000
     71 H33       -3.8680   -3.5634    3.0055 H         2 RES2    0.0000
     72 H34       -3.8847   -3.0378    4.5162 H         2 RES2    0.0000
     73 C27       -3.7450    3.1169    5.6034 C.2       2 RES2    0.0000
     74 C28       -5.9187    4.0572    5.7264 C.3       2 RES2    0.0000
     75 H35       -5.9873    4.4627    4.8265 H         2 RES2    0.0000
     76 H36       -5.5473    4.7328    6.3487 H         2 RES2    0.0000
     77 C29       -7.2668    3.5996    6.1963 C.3       2 RES2    0.0000
     78 H37       -7.5756    2.8594    5.6330 H         2 RES2    0.0000
     79 H38       -7.9029    4.3422    6.1366 H         2 RES2    0.0000
     80 H39       -7.2037    3.2982    7.1264 H         2 RES2    0.0000
     81 C30       -3.5701    3.0750    2.3476 C.2       2 RES2    0.0000
     82 C31       -3.2390    4.3031    1.5595 C.ar      2 RES2    0.0000
     83 C32       -3.8230    4.4570    0.3075 C.ar      2 RES2    0.0000
     84 H40       -4.3609    3.7660   -0.0577 H         2 RES2    0.0000
     85 C33       -3.6141    5.6256   -0.4026 C.ar      2 RES2    0.0000
     86 H41       -4.0080    5.7382   -1.2596 H         2 RES2    0.0000
     87 C34       -2.8400    6.6165    0.1299 C.ar      2 RES2    0.0000
     88 H42       -2.7109    7.4210   -0.3564 H         2 RES2    0.0000
     89 C35       -2.2461    6.4672    1.3592 C.ar      2 RES2    0.0000
     90 H43       -1.6986    7.1606    1.7113 H         2 RES2    0.0000
     91 C36       -2.4469    5.2960    2.0864 C.ar      2 RES2    0.0000
     92 H44       -2.0410    5.1836    2.9377 H         2 RES2    0.0000
@<TRIPOS>BOND
     1    1    7 1
     2    2   27 1
     3    3   27 2
     4    4   35 2
     5    5    6 1
     6    7    8 2
     7    8    9 1
     8    9   10 1
     9   11    5 1
    10   12   11 1
    11   13   11 1
    12   14   13 1
    13   15   13 1
    14   16   15 1
    15   17   15 1
    16   18    1 1
    17   19   18 1
    18   20    8 1
    19   21   20 1
    20   22   20 1
    21   23   20 1
    22   24   23 1
    23   25   23 1
    24   26   23 1
    25   27   13 1
    26   28    2 1
    27   29   28 1
    28   30   28 1
    29   31   28 1
    30   32   31 1
    31   33   31 1
    32   34   31 1
    33   35    5 1
    34   36   35 1
    35   37   36 ar
    36   38   37 1
    37   39   37 ar
    38   40   39 1
    39   41   39 ar
    40   42   41 1
    41   43   41 ar
    42   44   43 1
    43   45   36 ar
    44   46   45 1
    45   47   53 1
    46   48   73 1
    47   49   73 2
    48   50   81 2
    49   51   52 1
    50   53   54 2
    51   54   55 1
    52   55   56 1
    53   57   51 1
    54   58   57 1
    55   59   57 1
    56   60   59 1
    57   61   59 1
    58   62   61 1
    59   63   61 1
    60   64   47 1
    61   65   64 1
    62   66   54 1
    63   67   66 1
    64   68   66 1
    65   69   66 1
    66   70   69 1
    67   71   69 1
    68   72   69 1
    69   73   59 1
    70   74   48 1
    71   75   74 1
    72   76   74 1
    73   77   74 1
    74   78   77 1
    75   79   77 1
    76   80   77 1
    77   81   51 1
    78   82   81 1
    79   83   82 ar
    80   84   83 1
    81   85   83 ar
    82   86   85 1
    83   87   85 ar
    84   88   87 1
    85   89   87 ar
    86   90   89 1
    87   91   82 ar
    88   92   91 1
    89    9   11 1
    90    9   18 1
    91   15   18 1
    92   43   45 ar
    93   55   57 1
    94   55   64 1
    95   61   64 1
    96   89   91 ar
@<TRIPOS>SUBSTRUCTURE
     1 RES1 1
     2 RES2 47

@<TRIPOS>CRYSIN
  10.0137   24.1099   15.2764  90.0000 109.1750  90.0000 231 1

