# MOL2 file generated by ConQuest
# Please check atom types

@<TRIPOS>MOLECULE
BOZFAY
    46    48     1
SMALL
NO_CHARGES
****
Generated from CSD

@<TRIPOS>ATOM
      1 O1         3.5144    2.4674    0.0963 O.3       1 RES1    0.0000
      2 O2         4.9914    1.6190    5.1954 O.3       1 RES1    0.0000
      3 O3         4.5234    3.8012    5.0347 O.2       1 RES1    0.0000
      4 O4         7.2359    2.9962    3.2994 O.2       1 RES1    0.0000
      5 N1         6.0193    1.2965    2.4396 N.am      1 RES1    0.0000
      6 H1         5.9011    0.4401    2.3988 H         1 RES1    0.0000
      7 N2         2.0908    2.4760    0.2097 N.2       1 RES1    0.0000
      8 C1         1.7287    1.5882    1.0483 C.2       1 RES1    0.0000
      9 C2         2.8546    0.8047    1.6759 C.3       1 RES1    0.0000
     10 H2         2.7939   -0.1691    1.4580 H         1 RES1    0.0000
     11 C3         3.0317    1.0421    3.1933 C.3       1 RES1    0.0000
     12 H3         2.1564    1.1574    3.6409 H         1 RES1    0.0000
     13 H4         3.5172    0.2909    3.6185 H         1 RES1    0.0000
     14 C4         3.8532    2.3313    3.2471 C.3       1 RES1    0.0000
     15 H5         3.2484    3.0846    2.9890 H         1 RES1    0.0000
     16 C5         4.8896    2.1482    2.1003 C.3       1 RES1    0.0000
     17 H6         5.2149    3.0405    1.7861 H         1 RES1    0.0000
     18 C6         4.0652    1.4678    0.9941 C.3       1 RES1    0.0000
     19 H7         4.6134    0.7961    0.4949 H         1 RES1    0.0000
     20 C7         0.2934    1.3543    1.3823 C.3       1 RES1    0.0000
     21 H8         0.1336    1.6521    2.3132 H         1 RES1    0.0000
     22 H9         0.1147    0.3812    1.3445 H         1 RES1    0.0000
     23 C8        -0.6975    2.0662    0.4666 C.3       1 RES1    0.0000
     24 H10       -0.5237    3.0300    0.4837 H         1 RES1    0.0000
     25 H11       -1.6107    1.8936    0.7767 H         1 RES1    0.0000
     26 H12       -0.5941    1.7319   -0.4486 H         1 RES1    0.0000
     27 C9         4.4746    2.6807    4.5759 C.2       1 RES1    0.0000
     28 C10        5.7532    1.8976    6.4056 C.3       1 RES1    0.0000
     29 H13        5.1992    2.4082    7.0463 H         1 RES1    0.0000
     30 H14        6.5549    2.4356    6.1869 H         1 RES1    0.0000
     31 C11        6.1597    0.5899    7.0051 C.3       1 RES1    0.0000
     32 H15        5.3606    0.0536    7.1907 H         1 RES1    0.0000
     33 H16        6.6471    0.7509    7.8398 H         1 RES1    0.0000
     34 H17        6.7379    0.1082    6.3775 H         1 RES1    0.0000
     35 C12        7.1225    1.8015    3.0301 C.2       1 RES1    0.0000
     36 C13        8.2226    0.8308    3.3389 C.ar      1 RES1    0.0000
     37 C14        8.4081   -0.3611    2.6372 C.ar      1 RES1    0.0000
     38 H18        7.8005   -0.6081    1.9501 H         1 RES1    0.0000
     39 C15        9.4847   -1.1872    2.9472 C.ar      1 RES1    0.0000
     40 H19        9.6148   -1.9944    2.4633 H         1 RES1    0.0000
     41 C16       10.3701   -0.8375    3.9590 C.ar      1 RES1    0.0000
     42 H20       11.1059   -1.4021    4.1638 H         1 RES1    0.0000
     43 C17       10.1775    0.3368    4.6690 C.ar      1 RES1    0.0000
     44 H21       10.7728    0.5703    5.3709 H         1 RES1    0.0000
     45 C18        9.1167    1.1686    4.3542 C.ar      1 RES1    0.0000
     46 H22        8.9968    1.9787    4.8354 H         1 RES1    0.0000
@<TRIPOS>BOND
     1    1    7 1
     2    2   27 1
     3    3   27 2
     4    4   35 2
     5    5    6 1
     6    7    8 2
     7    8    9 1
     8    9   10 1
     9   11    9 1
    10   12   11 1
    11   13   11 1
    12   14   11 1
    13   15   14 1
    14   16    5 1
    15   17   16 1
    16   18    1 1
    17   19   18 1
    18   20    8 1
    19   21   20 1
    20   22   20 1
    21   23   20 1
    22   24   23 1
    23   25   23 1
    24   26   23 1
    25   27   14 1
    26   28    2 1
    27   29   28 1
    28   30   28 1
    29   31   28 1
    30   32   31 1
    31   33   31 1
    32   34   31 1
    33   35    5 1
    34   36   35 1
    35   37   36 ar
    36   38   37 1
    37   39   37 ar
    38   40   39 1
    39   41   39 ar
    40   42   41 1
    41   43   41 ar
    42   44   43 1
    43   45   36 ar
    44   46   45 1
    45    9   18 1
    46   14   16 1
    47   16   18 1
    48   43   45 ar
@<TRIPOS>SUBSTRUCTURE
     1 RES1 1

@<TRIPOS>CRYSIN
  11.2167   10.5026   14.3280  90.0000 101.9080  90.0000  14 1

