# MOL2 file generated by ConQuest
# Please check atom types

@<TRIPOS>MOLECULE
BOZGIH
    17    17     1
SMALL
NO_CHARGES
****
Generated from CSD

@<TRIPOS>ATOM
      1 O1         0.5692    0.9502    1.2532 O.2       1 RES1    0.0000
      2 O2         2.6647    1.4346    0.5760 O.3       1 RES1    0.0000
      3 O3        -0.7986    3.3891    0.4630 O.2       1 RES1    0.0000
      4 O4        -1.4419    4.2850   -1.4069 O.2       1 RES1    0.0000
      5 N1        -0.7698    3.4738   -0.7595 N.pl3     1 RES1    0.0000
      6 N2         1.5455    1.0860   -2.0736 N.3       1 RES1    0.0000
      7 N3         1.0457    1.5920   -3.2410 N.2       1 RES1    0.0000
      8 C1         0.9667    1.6481   -0.9926 C.2       1 RES1    0.0000
      9 C2         0.0676    2.5758   -1.4966 C.2       1 RES1    0.0000
     10 C3         0.1582    2.5148   -2.8910 C.2       1 RES1    0.0000
     11 C4         2.5022   -0.0120   -2.1293 C.3       1 RES1    0.0000
     12 C5         1.3600    1.2947    0.4141 C.2       1 RES1    0.0000
     13 H1        -0.3000    3.0302   -3.5871 H         1 RES1    0.0000
     14 H2         2.9368    1.3103    1.4792 H         1 RES1    0.0000
     15 H3         2.5822   -0.4132   -1.3389 H         1 RES1    0.0000
     16 H4         3.4278    0.4013   -2.1551 H         1 RES1    0.0000
     17 H5         2.4004   -0.5076   -2.8564 H         1 RES1    0.0000
@<TRIPOS>BOND
     1    1   12 2
     2    2   12 1
     3    3    5 2
     4    4    5 2
     5    5    9 1
     6    6    7 1
     7    7   10 2
     8    8    6 1
     9    9    8 2
    10   10    9 1
    11   11    6 1
    12   12    8 1
    13   13   10 1
    14   14    2 1
    15   15   11 1
    16   16   11 1
    17   17   11 1
@<TRIPOS>SUBSTRUCTURE
     1 RES1 1

@<TRIPOS>CRYSIN
   9.0924   11.8043   12.7518  90.0000  90.0000  90.0000  56 1

