# MOL2 file generated by ConQuest
# Please check atom types

@<TRIPOS>MOLECULE
BOZGED
    17    17     1
SMALL
NO_CHARGES
****
Generated from CSD

@<TRIPOS>ATOM
      1 O1         1.2608    2.6901    2.3470 O.3       1 RES1    0.0000
      2 O2         2.7707    4.1823    3.1052 O.2       1 RES1    0.0000
      3 O3         1.3825    2.7042   -2.1567 O.2       1 RES1    0.0000
      4 O4         2.1519    1.8825   -0.2818 O.2       1 RES1    0.0000
      5 N1         1.5459    6.2806   -0.2285 N.3       1 RES1    0.0000
      6 N2         1.7531    5.8314    1.0427 N.2       1 RES1    0.0000
      7 N3         1.7317    2.8110   -0.9745 N.pl3     1 RES1    0.0000
      8 C1         1.8175    4.5001    0.9596 C.2       1 RES1    0.0000
      9 C2         1.6508    4.1200   -0.3887 C.2       1 RES1    0.0000
     10 C3         1.4854    5.2758   -1.1099 C.2       1 RES1    0.0000
     11 C4         2.0181    3.7668    2.2492 C.2       1 RES1    0.0000
     12 C5         1.4406    7.7218   -0.4848 C.3       1 RES1    0.0000
     13 H1         1.3935    5.4572   -2.0442 H         1 RES1    0.0000
     14 H2         2.3125    8.0499   -0.6826 H         1 RES1    0.0000
     15 H3         0.8570    7.8540   -1.2579 H         1 RES1    0.0000
     16 H4         1.1275    8.1158    0.2444 H         1 RES1    0.0000
     17 H5         1.4169    2.2840    3.1937 H         1 RES1    0.0000
@<TRIPOS>BOND
     1    1   11 1
     2    2   11 2
     3    3    7 2
     4    4    7 2
     5    5    6 1
     6    6    8 2
     7    7    9 1
     8    8    9 1
     9    9   10 2
    10   10    5 1
    11   11    8 1
    12   12    5 1
    13   13   10 1
    14   14   12 1
    15   15   12 1
    16   16   12 1
    17   17    1 1
@<TRIPOS>SUBSTRUCTURE
     1 RES1 1

@<TRIPOS>CRYSIN
   6.7503    9.0276   13.3248  90.0000 120.0850  90.0000  14 1

