# MOL2 file generated by ConQuest
# Please check atom types

@<TRIPOS>MOLECULE
BTHYDX
    29    30     1
SMALL
NO_CHARGES
****
Generated from CSD

@<TRIPOS>ATOM
      1 C1        -5.4180    0.7383    2.1448 C.ar      1 RES1    0.0000
      2 C2       -10.6738    0.6049    4.3342 C.ar      1 RES1    0.0000
      3 C3        -4.6238   -0.3740    2.3270 C.ar      1 RES1    0.0000
      4 C4       -11.8449    0.9165    3.6664 C.ar      1 RES1    0.0000
      5 C5        -3.4920   -0.5532    1.5522 C.ar      1 RES1    0.0000
      6 C6       -12.9226    1.3967    4.3648 C.ar      1 RES1    0.0000
      7 C7        -3.1537    0.3711    0.5888 C.ar      1 RES1    0.0000
      8 C8       -12.8970    1.5750    5.7220 C.ar      1 RES1    0.0000
      9 C9        -3.9447    1.4503    0.3925 C.ar      1 RES1    0.0000
     10 C10      -11.7157    1.2360    6.3771 C.ar      1 RES1    0.0000
     11 C11       -5.0618    1.6441    1.1826 C.ar      1 RES1    0.0000
     12 C12      -10.6045    0.7646    5.7029 C.ar      1 RES1    0.0000
     13 C13       -6.6458    0.9896    2.9247 C.2       1 RES1    0.0000
     14 C14       -9.4899    0.1841    3.5199 C.2       1 RES1    0.0000
     15 C15      -14.0823    2.2081    6.4854 C.3       1 RES1    0.0000
     16 H1        -4.8657   -1.0529    3.0241 H         1 RES1    0.0000
     17 H2       -11.9043    0.7919    2.6801 H         1 RES1    0.0000
     18 H3        -2.9189   -1.3841    1.6924 H         1 RES1    0.0000
     19 H4       -13.7528    1.6461    3.8589 H         1 RES1    0.0000
     20 H5        -2.3281    0.2523    0.0395 H         1 RES1    0.0000
     21 H6        -3.7126    2.0999   -0.3326 H         1 RES1    0.0000
     22 H7       -11.6729    1.3071    7.3711 H         1 RES1    0.0000
     23 H8        -5.6193    2.4701    1.0488 H         1 RES1    0.0000
     24 H9        -9.7619    0.5698    6.1961 H         1 RES1    0.0000
     25 H10       -6.7593   -0.9915    3.3147 H         1 RES1    0.0000
     26 N1        -7.2029   -0.0740    3.5173 N.am      1 RES1    0.0000
     27 O1        -7.1539    2.1019    3.0598 O.2       1 RES1    0.0000
     28 O2        -8.3545    0.1558    4.2832 O.3       1 RES1    0.0000
     29 O3        -9.5054   -0.0857    2.3615 O.2       1 RES1    0.0000
@<TRIPOS>BOND
     1    1    3 ar
     2    2    4 ar
     3    3    5 ar
     4    4    6 ar
     5    5    7 ar
     6    6    8 ar
     7    7    9 ar
     8    8   10 ar
     9    9   11 ar
    10   10   12 ar
    11   11    1 ar
    12   12    2 ar
    13   13    1 1
    14   14    2 1
    15   15    8 1
    16   16    3 1
    17   17    4 1
    18   18    5 1
    19   19    6 1
    20   20    7 1
    21   21    9 1
    22   22   10 1
    23   23   11 1
    24   24   12 1
    25   25   26 1
    26   26   13 1
    27   27   13 2
    28   28   14 1
    29   29   14 2
    30   26   28 1
@<TRIPOS>SUBSTRUCTURE
     1 RES1 1

@<TRIPOS>CRYSIN
  10.8900    9.7400   14.0500  90.0000 114.9000  90.0000  14 1

