# MOL2 file generated by ConQuest
# Please check atom types

@<TRIPOS>MOLECULE
BUBNER
    24    25     1
SMALL
NO_CHARGES
****
Generated from CSD

@<TRIPOS>ATOM
      1 O1        11.6258    5.2771    7.2232 O.3       1 RES1    0.0000
      2 O2         9.9894    3.7610    7.3540 O.2       1 RES1    0.0000
      3 O3         6.7819    1.0539    5.4683 O.2       1 RES1    0.0000
      4 O4         7.1358    0.3447    3.4571 O.2       1 RES1    0.0000
      5 N1         7.2003    1.2045    4.3311 N.pl3     1 RES1    0.0000
      6 C1        10.3536    4.9026    7.1295 C.2       1 RES1    0.0000
      7 C2         9.4705    6.0118    6.7331 C.3       1 RES1    0.0000
      8 C3         7.9784    5.8682    6.9321 C.3       1 RES1    0.0000
      9 C4         8.4970    5.8730    5.5348 C.3       1 RES1    0.0000
     10 C5         8.4813    4.6906    4.6214 C.ar      1 RES1    0.0000
     11 C6         7.8728    3.4891    4.9341 C.ar      1 RES1    0.0000
     12 C7         7.8532    2.4861    3.9866 C.ar      1 RES1    0.0000
     13 C8         8.4007    2.6331    2.7279 C.ar      1 RES1    0.0000
     14 C9         8.9991    3.8367    2.4198 C.ar      1 RES1    0.0000
     15 C10        9.0422    4.8535    3.3565 C.ar      1 RES1    0.0000
     16 H1        12.2546    4.4255    7.5475 H         1 RES1    0.0000
     17 H2         9.8646    6.9505    6.8431 H         1 RES1    0.0000
     18 H3         7.7182    4.9732    7.3540 H         1 RES1    0.0000
     19 H4         7.4645    6.7437    7.2456 H         1 RES1    0.0000
     20 H5         8.4166    6.7625    5.0317 H         1 RES1    0.0000
     21 H6         7.4930    3.3073    5.7903 H         1 RES1    0.0000
     22 H7         8.3877    1.8569    2.1210 H         1 RES1    0.0000
     23 H8         9.4026    3.9838    1.5095 H         1 RES1    0.0000
     24 H9         9.4644    5.7282    3.1196 H         1 RES1    0.0000
@<TRIPOS>BOND
     1    1    6 1
     2    2    6 2
     3    3    5 2
     4    4    5 2
     5    5   12 1
     6    6    7 1
     7    7    8 1
     8    8    9 1
     9    9    7 1
    10   10    9 1
    11   11   10 ar
    12   12   11 ar
    13   13   12 ar
    14   14   13 ar
    15   15   10 ar
    16   16    1 1
    17   17    7 1
    18   18    8 1
    19   19    8 1
    20   20    9 1
    21   21   11 1
    22   22   13 1
    23   23   14 1
    24   24   15 1
    25   14   15 ar
@<TRIPOS>SUBSTRUCTURE
     1 RES1 1

@<TRIPOS>CRYSIN
   7.4220    8.6150    9.4990  60.2400  63.7600  71.3600   2 1

