# MOL2 file generated by ConQuest
# Please check atom types

@<TRIPOS>MOLECULE
BUCNES
    32    34     1
SMALL
NO_CHARGES
****
Generated from CSD

@<TRIPOS>ATOM
      1 O1         7.8269   -0.5742    4.4231 O.2       1 RES1    0.0000
      2 N1         7.1370    0.4306    4.7935 N.3       1 RES1    0.0000
      3 C1         7.7055    1.5957    5.4983 C.3       1 RES1    0.0000
      4 C2         8.7018    2.3030    4.5799 C.3       1 RES1    0.0000
      5 C3         8.3766    1.1265    6.8099 C.3       1 RES1    0.0000
      6 C4         6.4183    2.3519    5.7736 C.3       1 RES1    0.0000
      7 O2         5.5479    2.0107    4.7133 O.3       1 RES1    0.0000
      8 C5         5.7040    0.6085    4.4482 C.3       1 RES1    0.0000
      9 C6         5.3984    0.2684    2.9894 C.3       1 RES1    0.0000
     10 C7         4.2620   -0.7531    3.1264 C.3       1 RES1    0.0000
     11 C8         4.7186   -1.5218    4.3710 C.3       1 RES1    0.0000
     12 C9         4.7750   -0.2975    5.2650 C.3       1 RES1    0.0000
     13 C10        3.3347    0.2538    5.1309 C.3       1 RES1    0.0000
     14 C11        2.9869   -0.0374    3.6650 C.3       1 RES1    0.0000
     15 H1         4.0991   -1.4147    2.2259 H         1 RES1    0.0000
     16 H2         5.0976   -0.5305    6.2888 H         1 RES1    0.0000
     17 H3         6.0119    1.9868    6.7375 H         1 RES1    0.0000
     18 H4         6.6245    3.4015    5.7921 H         1 RES1    0.0000
     19 H5         6.2635   -0.2288    2.5131 H         1 RES1    0.0000
     20 H6         5.0152    1.1130    2.4353 H         1 RES1    0.0000
     21 H7         3.8965   -2.1948    4.6911 H         1 RES1    0.0000
     22 H8         5.6844   -1.9556    4.2184 H         1 RES1    0.0000
     23 H9         2.6648   -0.2600    5.8161 H         1 RES1    0.0000
     24 H10        3.3776    1.3315    5.2895 H         1 RES1    0.0000
     25 H11        2.1241   -0.7385    3.6141 H         1 RES1    0.0000
     26 H12        2.8098    0.8530    3.0935 H         1 RES1    0.0000
     27 H13        8.2222    2.6525    3.6500 H         1 RES1    0.0000
     28 H14        9.1082    3.1622    5.0861 H         1 RES1    0.0000
     29 H15        9.5987    1.7787    4.3561 H         1 RES1    0.0000
     30 H16        9.2963    0.5513    6.6239 H         1 RES1    0.0000
     31 H17        7.6986    0.5825    7.4975 H         1 RES1    0.0000
     32 H18        8.8058    1.9452    7.3539 H         1 RES1    0.0000
@<TRIPOS>BOND
     1    1    2 1
     2    2    3 1
     3    3    4 1
     4    4   27 1
     5    5    3 1
     6    6    3 1
     7    7    6 1
     8    8    2 1
     9    9    8 1
    10   10    9 1
    11   11   10 1
    12   12    8 1
    13   13   12 1
    14   14   10 1
    15   15   10 1
    16   16   12 1
    17   17    6 1
    18   18    6 1
    19   19    9 1
    20   20    9 1
    21   21   11 1
    22   22   11 1
    23   23   13 1
    24   24   13 1
    25   25   14 1
    26   26   14 1
    27   28    4 1
    28   29    4 1
    29   30    5 1
    30   31    5 1
    31   32    5 1
    32    7    8 1
    33   11   12 1
    34   13   14 1
@<TRIPOS>SUBSTRUCTURE
     1 RES1 1

@<TRIPOS>CRYSIN
   8.7930   10.4020    6.0250  90.0000  96.7200  90.0000   4 1

