# MOL2 file generated by ConQuest
# Please check atom types

@<TRIPOS>MOLECULE
BUCTOJ
    79    86     1
SMALL
NO_CHARGES
****
Generated from CSD

@<TRIPOS>ATOM
      1 O1        -0.1333    6.3447   15.4133 O.3       1 RES1    0.0000
      2 H1        -0.8555    6.9480   15.2389 H         1 RES1    0.0000
      3 O2        -1.8222    8.3307   14.6581 O.2       1 RES1    0.0000
      4 O3        -2.4204    9.2181   12.7690 O.2       1 RES1    0.0000
      5 N1         1.6372    7.4691   12.5452 N.pl3     1 RES1    0.0000
      6 H2         2.5163    6.9587   12.6954 H         1 RES1    0.0000
      7 N2         3.1622    5.9002   14.0314 N.2       1 RES1    0.0000
      8 N3         5.1135    5.7417   11.7830 N.pl3     1 RES1    0.0000
      9 H3         4.2283    6.1311   11.7585 H         1 RES1    0.0000
     10 N4         3.3751    7.3286   10.6442 N.2       1 RES1    0.0000
     11 N5        -1.5989    8.6167   13.4628 N.pl3     1 RES1    0.0000
     12 C1         1.2614    8.0515   11.3543 C.2       1 RES1    0.0000
     13 C2        -0.0055    8.5573   11.5380 C.2       1 RES1    0.0000
     14 H4        -0.5350    9.0175   10.8967 H         1 RES1    0.0000
     15 C3        -0.3619    8.2535   12.8767 C.2       1 RES1    0.0000
     16 C4         0.6903    7.5505   13.4815 C.2       1 RES1    0.0000
     17 C5         1.0102    6.9751   14.8475 C.3       1 RES1    0.0000
     18 C6         2.0863    5.8880   14.8092 C.2       1 RES1    0.0000
     19 C7         2.1077    4.7908   15.7428 C.2       1 RES1    0.0000
     20 H5         1.4398    4.5776   16.3843 H         1 RES1    0.0000
     21 C8         3.2606    4.1288   15.5285 C.2       1 RES1    0.0000
     22 H6         3.5636    3.3574   15.9946 H         1 RES1    0.0000
     23 C9         3.9508    4.8142   14.4528 C.2       1 RES1    0.0000
     24 C10        5.1696    4.4499   13.9053 C.2       1 RES1    0.0000
     25 C11        5.7634    4.9688   12.6991 C.2       1 RES1    0.0000
     26 C12        7.0476    4.7274   12.1754 C.2       1 RES1    0.0000
     27 H7         7.7308    4.2160   12.5929 H         1 RES1    0.0000
     28 C13        7.1425    5.3625   10.9486 C.2       1 RES1    0.0000
     29 H8         7.9051    5.3716   10.3825 H         1 RES1    0.0000
     30 C14        5.9084    5.9943   10.6870 C.2       1 RES1    0.0000
     31 C15        5.4472    6.7577    9.5521 C.2       1 RES1    0.0000
     32 C16        4.1896    7.3306    9.5137 C.2       1 RES1    0.0000
     33 C17        3.4606    7.9519    8.4293 C.2       1 RES1    0.0000
     34 H9         3.7722    8.0752    7.5408 H         1 RES1    0.0000
     35 C18        2.2501    8.3264    8.9133 C.2       1 RES1    0.0000
     36 H10        1.5510    8.7604    8.4392 H         1 RES1    0.0000
     37 C19        2.2470    7.9285   10.3014 C.2       1 RES1    0.0000
     38 C20        1.5604    8.0905   15.7655 C.ar      1 RES1    0.0000
     39 C21        1.1414    8.1749   17.0846 C.ar      1 RES1    0.0000
     40 H11        0.4823    7.5737   17.4109 H         1 RES1    0.0000
     41 C22        1.6820    9.1326   17.9300 C.ar      1 RES1    0.0000
     42 H12        1.3875    9.1701   18.8327 H         1 RES1    0.0000
     43 C23        2.6363   10.0340   17.4960 C.ar      1 RES1    0.0000
     44 C24        3.0705    9.9292   16.1827 C.ar      1 RES1    0.0000
     45 H13        3.7390   10.5221   15.8610 H         1 RES1    0.0000
     46 C25        2.5422    8.9690   15.3307 C.ar      1 RES1    0.0000
     47 H14        2.8576    8.9129   14.4356 H         1 RES1    0.0000
     48 C26        3.1926   11.0834   18.4160 C.3       1 RES1    0.0000
     49 H15        2.7114   11.9255   18.2801 H         1 RES1    0.0000
     50 H16        4.1444   11.2154   18.2215 H         1 RES1    0.0000
     51 H17        3.0866   10.7914   19.3450 H         1 RES1    0.0000
     52 C27        5.9380    3.3782   14.5911 C.ar      1 RES1    0.0000
     53 C28        6.2942    3.4994   15.9401 C.ar      1 RES1    0.0000
     54 H18        6.0369    4.2733   16.4283 H         1 RES1    0.0000
     55 C29        7.0140    2.5047   16.5660 C.ar      1 RES1    0.0000
     56 H19        7.2504    2.6078   17.4804 H         1 RES1    0.0000
     57 C30        7.4041    1.3483   15.8861 C.ar      1 RES1    0.0000
     58 C31        7.0132    1.2207   14.5622 C.ar      1 RES1    0.0000
     59 H20        7.2328    0.4262   14.0897 H         1 RES1    0.0000
     60 C32        6.3148    2.2140   13.9119 C.ar      1 RES1    0.0000
     61 H21        6.0869    2.1079   12.9955 H         1 RES1    0.0000
     62 C33        8.2127    0.2806   16.5611 C.3       1 RES1    0.0000
     63 H22        7.6893   -0.5468   16.6058 H         1 RES1    0.0000
     64 H23        8.4430    0.5703   17.4676 H         1 RES1    0.0000
     65 H24        9.0338    0.1213   16.0513 H         1 RES1    0.0000
     66 C34        6.3565    6.9474    8.3914 C.ar      1 RES1    0.0000
     67 C35        6.4523    8.2026    7.7783 C.ar      1 RES1    0.0000
     68 H25        5.9633    8.9359    8.1336 H         1 RES1    0.0000
     69 C36        7.2515    8.3923    6.6573 C.ar      1 RES1    0.0000
     70 H26        7.2864    9.2479    6.2471 H         1 RES1    0.0000
     71 C37        8.0059    7.3437    6.1259 C.ar      1 RES1    0.0000
     72 C38        7.9258    6.1054    6.7497 C.ar      1 RES1    0.0000
     73 H27        8.4429    5.3828    6.4136 H         1 RES1    0.0000
     74 C39        7.1087    5.8948    7.8527 C.ar      1 RES1    0.0000
     75 H28        7.0592    5.0305    8.2452 H         1 RES1    0.0000
     76 C40        8.8594    7.5599    4.9073 C.3       1 RES1    0.0000
     77 H29        9.4779    6.8071    4.8033 H         1 RES1    0.0000
     78 H30        9.3701    8.3908    5.0101 H         1 RES1    0.0000
     79 H31        8.2870    7.6250    4.1153 H         1 RES1    0.0000
@<TRIPOS>BOND
     1    1    2 1
     2    3   11 2
     3    4   11 2
     4    5    6 1
     5    7   18 2
     6    8    9 1
     7   10   32 1
     8   11   15 1
     9   12    5 1
    10   13   12 2
    11   14   13 1
    12   15   13 1
    13   16    5 1
    14   17    1 1
    15   18   17 1
    16   19   18 1
    17   20   19 1
    18   21   19 2
    19   22   21 1
    20   23    7 1
    21   24   23 2
    22   25    8 1
    23   26   25 2
    24   27   26 1
    25   28   26 1
    26   29   28 1
    27   30    8 1
    28   31   30 1
    29   32   31 2
    30   33   32 1
    31   34   33 1
    32   35   33 2
    33   36   35 1
    34   37   10 2
    35   38   17 1
    36   39   38 ar
    37   40   39 1
    38   41   39 ar
    39   42   41 1
    40   43   41 ar
    41   44   43 ar
    42   45   44 1
    43   46   38 ar
    44   47   46 1
    45   48   43 1
    46   49   48 1
    47   50   48 1
    48   51   48 1
    49   52   24 1
    50   53   52 ar
    51   54   53 1
    52   55   53 ar
    53   56   55 1
    54   57   55 ar
    55   58   57 ar
    56   59   58 1
    57   60   52 ar
    58   61   60 1
    59   62   57 1
    60   63   62 1
    61   64   62 1
    62   65   62 1
    63   66   31 1
    64   67   66 ar
    65   68   67 1
    66   69   67 ar
    67   70   69 1
    68   71   69 ar
    69   72   71 ar
    70   73   72 1
    71   74   66 ar
    72   75   74 1
    73   76   71 1
    74   77   76 1
    75   78   76 1
    76   79   76 1
    77   12   37 1
    78   15   16 2
    79   16   17 1
    80   21   23 1
    81   24   25 1
    82   28   30 2
    83   35   37 1
    84   44   46 ar
    85   58   60 ar
    86   72   74 ar
@<TRIPOS>SUBSTRUCTURE
     1 RES1 1

@<TRIPOS>CRYSIN
   7.7596   11.0531   18.6697  96.0190  98.9750  96.2840   2 1

