# MOL2 file generated by ConQuest
# Please check atom types

@<TRIPOS>MOLECULE
BUCXAY
    18    19     1
SMALL
NO_CHARGES
****
Generated from CSD

@<TRIPOS>ATOM
      1 O1        -2.9185   -1.7820   13.1029 O.2       1 RES1    0.0000
      2 O2        -1.9497   -3.6087   12.5064 O.2       1 RES1    0.0000
      3 N1        -2.2675   -2.4413   12.3073 N.pl3     1 RES1    0.0000
      4 C1        -1.8566   -1.8198   11.0470 C.ar      1 RES1    0.0000
      5 C2        -2.0741   -0.4687   10.8644 C.ar      1 RES1    0.0000
      6 C3        -1.6804    0.1253    9.6913 C.ar      1 RES1    0.0000
      7 C4        -1.0870   -0.6266    8.6675 C.ar      1 RES1    0.0000
      8 C5        -0.8676   -1.9949    8.8915 C.ar      1 RES1    0.0000
      9 C6        -1.2559   -2.5907   10.0699 C.ar      1 RES1    0.0000
     10 N2        -0.6522   -0.1202    7.4518 N.2       1 RES1    0.0000
     11 C7        -1.2634    0.9288    6.9850 C.2       1 RES1    0.0000
     12 N3        -0.8930    1.5159    5.8450 N.3       1 RES1    0.0000
     13 C8        -1.6354    2.6748    5.3368 C.3       1 RES1    0.0000
     14 C9        -0.8324    3.9401    5.2413 C.3       1 RES1    0.0000
     15 C10        0.0220    4.0637    3.9831 C.3       1 RES1    0.0000
     16 C11        1.1008    2.9958    3.8576 C.3       1 RES1    0.0000
     17 C12        0.5964    1.5777    3.7954 C.3       1 RES1    0.0000
     18 C13        0.2741    0.9442    5.1272 C.3       1 RES1    0.0000
@<TRIPOS>BOND
     1    1    3 2
     2    2    3 2
     3    3    4 1
     4    4    5 ar
     5    5    6 ar
     6    6    7 ar
     7    7    8 ar
     8    8    9 ar
     9    9    4 ar
    10   10    7 1
    11   11   10 2
    12   12   11 1
    13   13   12 1
    14   14   13 1
    15   15   14 1
    16   16   15 1
    17   17   16 1
    18   18   12 1
    19   17   18 1
@<TRIPOS>SUBSTRUCTURE
     1 RES1 1

@<TRIPOS>CRYSIN
   7.2220   17.1680   11.0080  90.0000 109.5600  90.0000  14 1

