# MOL2 file generated by ConQuest
# Please check atom types

@<TRIPOS>MOLECULE
BUDDEJ
    20    21     1
SMALL
NO_CHARGES
****
Generated from CSD

@<TRIPOS>ATOM
      1 C1        12.0993    1.5272    6.6220 C.2       1 RES1    0.0000
      2 C2        11.4025    2.7345    6.1006 C.ar      1 RES1    0.0000
      3 C3        10.3642    2.6200    5.1800 C.ar      1 RES1    0.0000
      4 C4         9.7391    3.7520    4.6844 C.ar      1 RES1    0.0000
      5 C5        10.1661    4.9872    5.1224 C.ar      1 RES1    0.0000
      6 C6        11.1629    5.1327    6.0431 C.ar      1 RES1    0.0000
      7 C7        11.7762    3.9935    6.5434 C.ar      1 RES1    0.0000
      8 C8        12.5809    0.4963    5.8623 C.2       1 RES1    0.0000
      9 C9        12.5541    0.5552    4.3838 C.ar      1 RES1    0.0000
     10 C10       12.0252   -0.5015    3.6299 C.ar      1 RES1    0.0000
     11 C11       12.0267   -0.4489    2.2500 C.ar      1 RES1    0.0000
     12 C12       12.5539    0.6202    1.5865 C.ar      1 RES1    0.0000
     13 C13       13.1031    1.6717    2.3111 C.ar      1 RES1    0.0000
     14 C14       13.0829    1.6376    3.6956 C.ar      1 RES1    0.0000
     15 N1         9.5172    6.1904    4.5893 N.pl3     1 RES1    0.0000
     16 O1         8.6264    6.0603    3.7731 O.2       1 RES1    0.0000
     17 O2         9.9072    7.2842    5.0015 O.2       1 RES1    0.0000
     18 C15       12.2486    1.4808    8.0442 C.1       1 RES1    0.0000
     19 N2        12.3651    1.4828    9.1856 N.1       1 RES1    0.0000
     20 C16       13.2064   -0.7161    6.4999 C.3       1 RES1    0.0000
@<TRIPOS>BOND
     1    1    2 1
     2    2    3 ar
     3    3    4 ar
     4    4    5 ar
     5    5    6 ar
     6    6    7 ar
     7    7    2 ar
     8    8    1 2
     9    9    8 1
    10   10    9 ar
    11   11   10 ar
    12   12   11 ar
    13   13   12 ar
    14   14    9 ar
    15   15    5 1
    16   16   15 2
    17   17   15 2
    18   18    1 1
    19   19   18 3
    20   20    8 1
    21   13   14 ar
@<TRIPOS>SUBSTRUCTURE
     1 RES1 1

@<TRIPOS>CRYSIN
  23.1040   10.3190   13.3100  90.0000 118.0800  90.0000  15 1

