# MOL2 file generated by ConQuest
# Please check atom types

@<TRIPOS>MOLECULE
BUDDAF
    19    20     1
SMALL
NO_CHARGES
****
Generated from CSD

@<TRIPOS>ATOM
      1 C1         3.0633    7.5039   -1.9609 C.2       1 RES1    0.0000
      2 C2         3.9819    8.5615   -1.4533 C.ar      1 RES1    0.0000
      3 C3         3.7574    9.1618   -0.2142 C.ar      1 RES1    0.0000
      4 C4         4.6508   10.1004    0.2629 C.ar      1 RES1    0.0000
      5 C5         5.7581   10.4541   -0.4836 C.ar      1 RES1    0.0000
      6 C6         5.9559    9.8878   -1.6980 C.ar      1 RES1    0.0000
      7 C7         5.0651    8.9628   -2.2017 C.ar      1 RES1    0.0000
      8 C8         2.6783    6.3714   -1.3397 C.2       1 RES1    0.0000
      9 C9         3.0778    5.8018   -0.0448 C.ar      1 RES1    0.0000
     10 C10        2.2353    4.8563    0.5180 C.ar      1 RES1    0.0000
     11 C11        2.5191    4.2663    1.7350 C.ar      1 RES1    0.0000
     12 C12        3.6712    4.6591    2.3789 C.ar      1 RES1    0.0000
     13 C13        4.5621    5.5603    1.8356 C.ar      1 RES1    0.0000
     14 C14        4.2652    6.1248    0.6205 C.ar      1 RES1    0.0000
     15 N1         3.9874    4.0572    3.6934 N.pl3     1 RES1    0.0000
     16 O1         3.1847    3.2920    4.1841 O.2       1 RES1    0.0000
     17 O2         5.0230    4.3666    4.2438 O.2       1 RES1    0.0000
     18 C15        2.5288    7.7266   -3.2877 C.1       1 RES1    0.0000
     19 N2         2.0963    7.9052   -4.3340 N.1       1 RES1    0.0000
@<TRIPOS>BOND
     1    1    2 1
     2    2    3 ar
     3    3    4 ar
     4    4    5 ar
     5    5    6 ar
     6    6    7 ar
     7    7    2 ar
     8    8    1 2
     9    9    8 1
    10   10    9 ar
    11   11   10 ar
    12   12   11 ar
    13   13   12 ar
    14   14    9 ar
    15   15   12 1
    16   16   15 2
    17   17   15 2
    18   18    1 1
    19   19   18 3
    20   13   14 ar
@<TRIPOS>SUBSTRUCTURE
     1 RES1 1

@<TRIPOS>CRYSIN
   5.6550   17.0040    6.5210  90.0000  95.5000  90.0000   4 1

