# MOL2 file generated by ConQuest
# Please check atom types

@<TRIPOS>MOLECULE
BUDJIV
    69    73     1
SMALL
NO_CHARGES
****
Generated from CSD

@<TRIPOS>ATOM
      1 C1         6.0730   -0.4386    3.9670 C.2       1 RES1    0.0000
      2 C2         7.6505   -0.9423    2.1660 C.ar      1 RES1    0.0000
      3 H1         7.6121   -1.8355    2.4235 H         1 RES1    0.0000
      4 C3         8.3134    1.8858    6.8993 C.ar      1 RES1    0.0000
      5 C4         3.9481    0.5425    4.9118 C.3       1 RES1    0.0000
      6 C5         7.6526    1.2998    5.6591 C.3       1 RES1    0.0000
      7 H2         7.9484    1.8389    4.8960 H         1 RES1    0.0000
      8 N1         8.0738   -0.0708    5.3984 N.3       1 RES1    0.0000
      9 C6         6.8689    0.0194    2.8074 C.ar      1 RES1    0.0000
     10 C7         9.6994   -1.5671    4.3762 C.ar      1 RES1    0.0000
     11 H3         9.1826   -2.2878    4.6559 H         1 RES1    0.0000
     12 C8         7.8363   -0.8943    6.6117 C.3       1 RES1    0.0000
     13 H4         7.9728   -1.8309    6.4032 H         1 RES1    0.0000
     14 H5         6.9189   -0.7813    6.9072 H         1 RES1    0.0000
     15 C9         8.5373    0.7596    0.6857 C.ar      1 RES1    0.0000
     16 H6         9.1027    0.9937   -0.0142 H         1 RES1    0.0000
     17 C10       10.8371   -1.7990    3.6005 C.ar      1 RES1    0.0000
     18 H7        11.0718   -2.6682    3.3699 H         1 RES1    0.0000
     19 N2         5.4352    0.5745    4.8044 N.am      1 RES1    0.0000
     20 C11        6.9172    1.3432    2.3635 C.ar      1 RES1    0.0000
     21 H8         6.3999    1.9920    2.7853 H         1 RES1    0.0000
     22 C12        9.3240   -0.2741    4.7380 C.ar      1 RES1    0.0000
     23 C13        8.8921    1.0383    7.8503 C.ar      1 RES1    0.0000
     24 C14       11.6090   -0.7413    3.1771 C.ar      1 RES1    0.0000
     25 C15       11.2552    0.5414    3.5768 C.ar      1 RES1    0.0000
     26 H9        11.7848    1.2610    3.3146 H         1 RES1    0.0000
     27 C16        7.7378    1.6973    1.2939 C.ar      1 RES1    0.0000
     28 H10        7.7449    2.5757    0.9874 H         1 RES1    0.0000
     29 C17       10.1387    0.7756    4.3525 C.ar      1 RES1    0.0000
     30 H11        9.9318    1.6425    4.6164 H         1 RES1    0.0000
     31 C18        8.4790   -0.5425    1.1438 C.ar      1 RES1    0.0000
     32 C19        3.4680   -0.5071    5.9071 C.3       1 RES1    0.0000
     33 H12        3.7718   -1.3832    5.6212 H         1 RES1    0.0000
     34 H13        3.8536   -0.3255    6.7776 H         1 RES1    0.0000
     35 C20        9.6871    2.9743    9.0463 C.ar      1 RES1    0.0000
     36 H14       10.1764    3.3341    9.7509 H         1 RES1    0.0000
     37 C21        3.2983    0.3724    3.5563 C.3       1 RES1    0.0000
     38 H15        3.6155   -0.4489    3.1487 H         1 RES1    0.0000
     39 H16        3.5567    1.1102    2.9812 H         1 RES1    0.0000
     40 C22        9.0641    3.8207    8.1347 C.ar      1 RES1    0.0000
     41 H17        9.0921    4.7436    8.2485 H         1 RES1    0.0000
     42 C23        8.7842   -0.4763    7.7240 C.3       1 RES1    0.0000
     43 H18        9.6638   -0.8441    7.5470 H         1 RES1    0.0000
     44 H19        8.4713   -0.8441    8.5644 H         1 RES1    0.0000
     45 C24        1.9584   -0.5117    6.0177 C.3       1 RES1    0.0000
     46 H20        1.6578    0.3335    6.3874 H         1 RES1    0.0000
     47 H21        1.6806   -1.2199    6.6196 H         1 RES1    0.0000
     48 C25        1.3224   -0.7253    4.6559 C.3       1 RES1    0.0000
     49 H22        1.5595   -1.6048    4.3241 H         1 RES1    0.0000
     50 H23        0.3556   -0.6876    4.7428 H         1 RES1    0.0000
     51 C26        8.4047    3.2633    7.0636 C.ar      1 RES1    0.0000
     52 H24        8.0089    3.8218    6.4332 H         1 RES1    0.0000
     53 C27        9.5817    1.6082    8.9136 C.ar      1 RES1    0.0000
     54 H25        9.9804    1.0565    9.5471 H         1 RES1    0.0000
     55 C28        1.7809    0.3278    3.6684 C.3       1 RES1    0.0000
     56 H26        1.4551    1.1970    3.9528 H         1 RES1    0.0000
     57 H27        1.4002    0.1371    2.7964 H         1 RES1    0.0000
     58 O1        12.7264   -0.8578    2.3919 O.3       1 RES1    0.0000
     59 N3         9.3350   -1.5580    0.5008 N.pl3     1 RES1    0.0000
     60 O2         5.7545   -1.6082    4.1171 O.2       1 RES1    0.0000
     61 O3         9.1790   -2.7276    0.8073 O.2       1 RES1    0.0000
     62 O4        10.1787   -1.1822   -0.3160 O.2       1 RES1    0.0000
     63 O5         5.5419    2.1428    6.4593 O.2       1 RES1    0.0000
     64 C29        6.1147    1.3809    5.6954 C.2       1 RES1    0.0000
     65 C30       12.9959   -2.1233    1.8247 C.3       1 RES1    0.0000
     66 H28       13.7871   -2.0708    1.2829 H         1 RES1    0.0000
     67 H29       12.2531   -2.3952    1.2813 H         1 RES1    0.0000
     68 H30       13.1305   -2.7653    2.5262 H         1 RES1    0.0000
     69 H31        3.7312    1.3592    5.3873 H         1 RES1    0.0000
@<TRIPOS>BOND
     1    1    9 1
     2    2    3 1
     3    4    6 1
     4    5   19 1
     5    6    7 1
     6    8    6 1
     7    9    2 ar
     8   10   11 1
     9   12    8 1
    10   13   12 1
    11   14   12 1
    12   15   16 1
    13   17   10 ar
    14   18   17 1
    15   19    1 1
    16   20    9 ar
    17   21   20 1
    18   22    8 1
    19   23    4 ar
    20   24   17 ar
    21   25   24 ar
    22   26   25 1
    23   27   15 ar
    24   28   27 1
    25   29   22 ar
    26   30   29 1
    27   31    2 ar
    28   32    5 1
    29   33   32 1
    30   34   32 1
    31   35   36 1
    32   37    5 1
    33   38   37 1
    34   39   37 1
    35   40   35 ar
    36   41   40 1
    37   42   12 1
    38   43   42 1
    39   44   42 1
    40   45   32 1
    41   46   45 1
    42   47   45 1
    43   48   45 1
    44   49   48 1
    45   50   48 1
    46   51    4 ar
    47   52   51 1
    48   53   23 ar
    49   54   53 1
    50   55   37 1
    51   56   55 1
    52   57   55 1
    53   58   24 1
    54   59   31 1
    55   60    1 2
    56   61   59 2
    57   62   59 2
    58   63   64 2
    59   64    6 1
    60   65   58 1
    61   66   65 1
    62   67   65 1
    63   68   65 1
    64   69    5 1
    65   10   22 ar
    66   15   31 ar
    67   19   64 1
    68   20   27 ar
    69   23   42 1
    70   25   29 ar
    71   35   53 ar
    72   40   51 ar
    73   48   55 1
@<TRIPOS>SUBSTRUCTURE
     1 RES1 1

@<TRIPOS>CRYSIN
  14.1830   11.4220   17.0310  90.0000 111.9300  90.0000  14 1

