# MOL2 file generated by ConQuest
# Please check atom types

@<TRIPOS>MOLECULE
BUDNAQ
    19    20     1
SMALL
NO_CHARGES
****
Generated from CSD

@<TRIPOS>ATOM
      1 O1         6.4234    2.7427    8.6246 O.3       1 RES1    0.0000
      2 H1         5.7924    3.4366    8.4204 H         1 RES1    0.0000
      3 O2         3.2924   -2.8361    5.4033 O.2       1 RES1    0.0000
      4 O3         4.4643    0.9845    4.1818 O.3       1 RES1    0.0000
      5 H2         4.2647    1.1769    3.4106 H         1 RES1    0.0000
      6 N1         4.1430   -2.0738    7.4048 N.am      1 RES1    0.0000
      7 H3         3.9756   -2.7641    7.8906 H         1 RES1    0.0000
      8 N2         4.0976   -0.3013    4.4378 N.2       1 RES1    0.0000
      9 C1         5.8596    1.5295    8.3585 C.ar      1 RES1    0.0000
     10 C2         5.7126    0.6497    9.3928 C.ar      1 RES1    0.0000
     11 H4         5.9907    0.8869   10.2472 H         1 RES1    0.0000
     12 C3         5.1495   -0.5963    9.1680 C.ar      1 RES1    0.0000
     13 H5         5.0495   -1.2104    9.8580 H         1 RES1    0.0000
     14 C4         4.7443   -0.8941    7.8864 C.ar      1 RES1    0.0000
     15 C5         4.8779    0.0249    6.8355 C.ar      1 RES1    0.0000
     16 C6         5.4470    1.2695    7.0601 C.ar      1 RES1    0.0000
     17 H6         5.5462    1.8950    6.3785 H         1 RES1    0.0000
     18 C7         3.8626   -1.9876    6.0961 C.2       1 RES1    0.0000
     19 C8         4.3317   -0.6269    5.6600 C.2       1 RES1    0.0000
@<TRIPOS>BOND
     1    1    2 1
     2    3   18 2
     3    4    5 1
     4    6    7 1
     5    8    4 1
     6    9    1 1
     7   10    9 ar
     8   11   10 1
     9   12   10 ar
    10   13   12 1
    11   14    6 1
    12   15   14 ar
    13   16    9 ar
    14   17   16 1
    15   18    6 1
    16   19    8 2
    17   12   14 ar
    18   15   16 ar
    19   15   19 1
    20   18   19 1
@<TRIPOS>SUBSTRUCTURE
     1 RES1 1

@<TRIPOS>CRYSIN
   7.4160    7.1240   14.1110  90.0000  95.2100  90.0000  14 1

