# MOL2 file generated by ConQuest
# Please check atom types

@<TRIPOS>MOLECULE
BUDVIH
    27    28     1
SMALL
NO_CHARGES
****
Generated from CSD

@<TRIPOS>ATOM
      1 C1         8.1478   -0.9676    5.0383 C.ar      1 RES1    0.0000
      2 C2         7.4175   -1.5422    6.0570 C.ar      1 RES1    0.0000
      3 H1         7.4438   -2.4600    6.2013 H         1 RES1    0.0000
      4 C3         6.6499   -0.7220    6.8562 C.ar      1 RES1    0.0000
      5 H2         6.1471   -1.0939    7.5450 H         1 RES1    0.0000
      6 C4         6.6152    0.6532    6.6492 C.ar      1 RES1    0.0000
      7 C5         7.3685    1.1942    5.6230 C.ar      1 RES1    0.0000
      8 H3         7.3532    2.1134    5.4787 H         1 RES1    0.0000
      9 C6         8.1414    0.3894    4.8100 C.ar      1 RES1    0.0000
     10 H4         8.6478    0.7564    4.1213 H         1 RES1    0.0000
     11 C7         5.7333    1.5359    7.5048 C.3       1 RES1    0.0000
     12 C8         4.2741    1.5900    7.0896 C.2       1 RES1    0.0000
     13 C9         3.7933    1.8734    5.9040 C.2       1 RES1    0.0000
     14 H5         2.8740    1.8882    5.7672 H         1 RES1    0.0000
     15 H6         4.3714    2.0601    5.2002 H         1 RES1    0.0000
     16 C10        3.5392    1.2763    8.2952 C.2       1 RES1    0.0000
     17 C11        2.0645    1.3535    8.4909 C.3       1 RES1    0.0000
     18 H7         1.8769    2.3716    8.5248 H         1 RES1    0.0000
     19 H8         1.8958    0.8876    9.2549 H         1 RES1    0.0000
     20 H9         1.6578    0.8006    7.8787 H         1 RES1    0.0000
     21 N1         8.9532   -1.8215    4.1639 N.pl3     1 RES1    0.0000
     22 N2         4.3092    0.9276    9.2612 N.2       1 RES1    0.0000
     23 O1         9.6284   -1.3135    3.2966 O.2       1 RES1    0.0000
     24 O2         8.9021   -3.0396    4.3458 O.2       1 RES1    0.0000
     25 O3         6.3005    2.8038    7.5510 O.3       1 RES1    0.0000
     26 H10        5.7800    3.2459    8.2563 H         1 RES1    0.0000
     27 O4         5.6642    0.9634    8.8389 O.3       1 RES1    0.0000
@<TRIPOS>BOND
     1    1    2 ar
     2    2    3 1
     3    4    2 ar
     4    5    4 1
     5    6    4 ar
     6    7    6 ar
     7    8    7 1
     8    9    1 ar
     9   10    9 1
    10   11    6 1
    11   12   11 1
    12   13   12 2
    13   14   13 1
    14   15   13 1
    15   16   12 1
    16   17   16 1
    17   18   17 1
    18   19   17 1
    19   20   17 1
    20   21    1 1
    21   22   16 2
    22   23   21 2
    23   24   21 2
    24   25   11 1
    25   26   25 1
    26   27   11 1
    27    7    9 ar
    28   22   27 1
@<TRIPOS>SUBSTRUCTURE
     1 RES1 1

@<TRIPOS>CRYSIN
  12.1854    7.0166   13.8521  90.0000 115.0840  90.0000 231 1

