# MOL2 file generated by ConQuest
# Please check atom types

@<TRIPOS>MOLECULE
BUDXOO
    30    31     1
SMALL
NO_CHARGES
****
Generated from CSD

@<TRIPOS>ATOM
      1 O1         1.2024    5.2481    0.9045 O.2       1 RES1    0.0000
      2 O2         5.4793    0.3896    3.0244 O.2       1 RES1    0.0000
      3 O3         6.8000    1.8541    3.9224 O.2       1 RES1    0.0000
      4 N1         5.7802    1.5488    3.2997 N.pl3     1 RES1    0.0000
      5 C1         0.6725   10.1780    0.6586 C.ar      1 RES1    0.0000
      6 H1        -0.1156    9.7311    0.3726 H         1 RES1    0.0000
      7 C2         0.7112   11.5666    0.6679 C.ar      1 RES1    0.0000
      8 H2        -0.0514   12.0655    0.4000 H         1 RES1    0.0000
      9 C3         1.8628   12.2237    1.0689 C.ar      1 RES1    0.0000
     10 H3         1.8894   13.1735    1.0700 H         1 RES1    0.0000
     11 C4         2.9814   11.4982    1.4704 C.ar      1 RES1    0.0000
     12 H4         3.7699   11.9523    1.7415 H         1 RES1    0.0000
     13 C5         2.9424   10.1103    1.4733 C.ar      1 RES1    0.0000
     14 H5         3.7049    9.6179    1.7530 H         1 RES1    0.0000
     15 C6         1.7862    9.4317    1.0670 C.ar      1 RES1    0.0000
     16 C7         1.6708    7.9740    1.0563 C.2       1 RES1    0.0000
     17 H6         0.8889    7.6177    0.6513 H         1 RES1    0.0000
     18 C8         2.5394    7.0835    1.5516 C.2       1 RES1    0.0000
     19 H7         3.3428    7.3743    1.9668 H         1 RES1    0.0000
     20 C9         2.2313    5.6403    1.4453 C.2       1 RES1    0.0000
     21 C10        3.1893    4.6183    1.9982 C.ar      1 RES1    0.0000
     22 C11        4.4417    4.9430    2.5203 C.ar      1 RES1    0.0000
     23 H8         4.7107    5.8531    2.5704 H         1 RES1    0.0000
     24 C12        5.2992    3.9423    2.9683 C.ar      1 RES1    0.0000
     25 H9         6.1504    4.1556    3.3328 H         1 RES1    0.0000
     26 C13        4.8788    2.6281    2.8690 C.ar      1 RES1    0.0000
     27 C14        3.6350    2.2719    2.3748 C.ar      1 RES1    0.0000
     28 H10        3.3678    1.3606    2.3364 H         1 RES1    0.0000
     29 C15        2.7934    3.2766    1.9405 C.ar      1 RES1    0.0000
     30 H11        1.9353    3.0555    1.5985 H         1 RES1    0.0000
@<TRIPOS>BOND
     1    1   20 2
     2    2    4 2
     3    3    4 2
     4    4   26 1
     5    5    6 1
     6    7    5 ar
     7    8    7 1
     8    9    7 ar
     9   10    9 1
    10   11    9 ar
    11   12   11 1
    12   13   11 ar
    13   14   13 1
    14   15    5 ar
    15   16   15 1
    16   17   16 1
    17   18   16 2
    18   19   18 1
    19   20   18 1
    20   21   20 1
    21   22   21 ar
    22   23   22 1
    23   24   22 ar
    24   25   24 1
    25   26   24 ar
    26   27   26 ar
    27   28   27 1
    28   29   21 ar
    29   30   29 1
    30   13   15 ar
    31   27   29 ar
@<TRIPOS>SUBSTRUCTURE
     1 RES1 1

@<TRIPOS>CRYSIN
   6.2139   13.1590   14.4500  90.0000  92.1060  90.0000  14 1

