# MOL2 file generated by ConQuest
# Please check atom types

@<TRIPOS>MOLECULE
BUFBOU
    65    44     2
SMALL
NO_CHARGES
****
Generated from CSD

@<TRIPOS>ATOM
      1 C1         1.2265    3.4526    3.8350 C.ar      1 RES1    0.0000
      2 C2         1.0947    3.1182    5.1722 C.ar      1 RES1    0.0000
      3 H1         1.7158    3.4249    5.7928 H         1 RES1    0.0000
      4 C3         0.0415    2.3305    5.5812 C.ar      1 RES1    0.0000
      5 C4        -0.9073    1.8662    4.7037 C.ar      1 RES1    0.0000
      6 H2        -1.6142    1.3352    4.9958 H         1 RES1    0.0000
      7 C5        -0.7791    2.2109    3.3820 C.ar      1 RES1    0.0000
      8 H3        -1.4110    1.9125    2.7691 H         1 RES1    0.0000
      9 C6         0.2705    2.9918    2.9499 C.ar      1 RES1    0.0000
     10 H4         0.3368    3.2120    2.0482 H         1 RES1    0.0000
     11 C7         2.4061    4.2979    3.3489 C.3       1 RES1    0.0000
     12 H5         3.0632    4.3377    4.0754 H         1 RES1    0.0000
     13 C8         3.0762    3.6529    2.1606 C.2       1 RES1    0.0000
     14 C9         3.9506    2.5716    2.4252 C.2       1 RES1    0.0000
     15 C10        4.6903    1.9330    1.2379 C.3       1 RES1    0.0000
     16 H6         4.8752    0.9997    1.4220 H         1 RES1    0.0000
     17 H7         5.5310    2.3877    1.0737 H         1 RES1    0.0000
     18 C11        3.7450    2.0675   -0.0055 C.3       1 RES1    0.0000
     19 H8         4.2019    1.6946   -0.7760 H         1 RES1    0.0000
     20 H9         2.9563    1.5260    0.1532 H         1 RES1    0.0000
     21 C12        3.2787    3.5134   -0.3649 C.3       1 RES1    0.0000
     22 H10        4.0129    4.0278   -0.7364 H         1 RES1    0.0000
     23 H11        2.5560    3.4896   -1.0119 H         1 RES1    0.0000
     24 O1         4.2986    2.2429    3.5440 O.2       1 RES1    0.0000
     25 C13        1.8193    6.6403    4.2143 C.2       1 RES1    0.0000
     26 C14        1.2469    8.0095    4.1657 C.3       1 RES1    0.0000
     27 H12        1.1951    8.3672    5.0553 H         1 RES1    0.0000
     28 H13        0.3664    7.9772    3.7832 H         1 RES1    0.0000
     29 H14        1.8092    8.5716    3.6267 H         1 RES1    0.0000
     30 C15        1.1241    7.3981    1.2247 C.3       1 RES1    0.0000
     31 H15        0.2974    7.5548    1.6888 H         1 RES1    0.0000
     32 H16        0.9503    7.3028    0.2855 H         1 RES1    0.0000
     33 H17        1.7155    8.1407    1.3669 H         1 RES1    0.0000
     34 O2         2.2107    6.2111    5.3100 O.2       1 RES1    0.0000
     35 C16        1.9355    6.5568    4.1669 Du        2 SUP2    0.0000
     36 C17        1.7842    8.0623    3.8339 Du        2 SUP2    0.0000
     37 H18        2.6428    8.4455    3.5958 Du        2 SUP2    0.0000
     38 H19        1.4233    8.5477    4.5913 Du        2 SUP2    0.0000
     39 C18        0.7831    8.1168    2.6004 Du        2 SUP2    0.0000
     40 H20       -0.0291    7.6298    2.8110 Du        2 SUP2    0.0000
     41 H21        0.5461    9.0382    2.4075 Du        2 SUP2    0.0000
     42 C19        1.4879    7.4697    1.3482 Du        2 SUP2    0.0000
     43 H22        0.8991    7.4782    0.5776 Du        2 SUP2    0.0000
     44 H23        2.3032    7.9448    1.1266 Du        2 SUP2    0.0000
     45 O3         1.9963    6.1651    5.3133 Du        2 SUP2    0.0000
     46 C20        3.9879    2.4865    2.4141 Du        2 SUP2    0.0000
     47 C21        4.4531    1.5975    1.3085 Du        2 SUP2    0.0000
     48 H24        5.0870    2.0658    0.7672 Du        2 SUP2    0.0000
     49 H25        3.6974    1.3420    0.7694 Du        2 SUP2    0.0000
     50 H26        4.8593    0.8124    1.6778 Du        2 SUP2    0.0000
     51 C22        3.3375    3.3261   -0.3527 Du        2 SUP2    0.0000
     52 H27        4.2681    3.1115   -0.2348 Du        2 SUP2    0.0000
     53 H28        3.2354    3.8728   -1.1354 Du        2 SUP2    0.0000
     54 H29        2.8355    2.5154   -0.4586 Du        2 SUP2    0.0000
     55 O4         4.1480    2.1288    3.6013 Du        2 SUP2    0.0000
     56 C23        2.8244    4.1008    0.8951 C.2       1 RES1    0.0000
     57 C24        1.7775    6.1113    1.7604 C.2       1 RES1    0.0000
     58 C25        1.9785    5.7160    3.0358 C.2       1 RES1    0.0000
     59 N1        -0.0572    1.9602    6.9988 N.pl3     1 RES1    0.0000
     60 N2         2.0777    5.2284    0.7290 N.pl3     1 RES1    0.0000
     61 H30        1.9663    5.4669   -0.0981 H         1 RES1    0.0000
     62 O5         0.9152    2.1901    7.7506 O.2       1 RES1    0.0000
     63 O6        -1.0814    1.2977    7.3636 O.2       1 RES1    0.0000
     64 O7         0.5377    2.7062    7.7572 Du        2 SUP2    0.0000
     65 O8        -0.7645    1.0951    7.3306 Du        2 SUP2    0.0000
@<TRIPOS>BOND
     1    1    2 ar
     2    2    3 1
     3    4    2 ar
     4    5    4 ar
     5    6    5 1
     6    7    5 ar
     7    8    7 1
     8    9    1 ar
     9   10    9 1
    10   11    1 1
    11   12   11 1
    12   13   11 1
    13   14   13 1
    14   15   14 1
    15   16   15 1
    16   17   15 1
    17   18   15 1
    18   19   18 1
    19   20   18 1
    20   21   18 1
    21   22   21 1
    22   23   21 1
    23   24   14 2
    24   25   26 1
    25   26   27 1
    26   28   26 1
    27   29   26 1
    28   30   31 1
    29   32   30 1
    30   33   30 1
    31   34   25 2
    32   56   13 2
    33   57   30 1
    34   58   11 1
    35   59    4 1
    36   60   56 1
    37   61   60 1
    38   62   59 2
    39   63   59 2
    40    7    9 ar
    41   21   56 1
    42   25   58 1
    43   57   58 2
    44   57   60 1
@<TRIPOS>SUBSTRUCTURE
     1 RES1 1
     2 SUP2 35

@<TRIPOS>CRYSIN
   8.5368   17.0307   11.4759  90.0000 106.1430  90.0000 231 1

