# MOL2 file generated by ConQuest
# Please check atom types

@<TRIPOS>MOLECULE
BUFJOC
    62    63     1
SMALL
NO_CHARGES
****
Generated from CSD

@<TRIPOS>ATOM
      1 N1         2.6607    2.3810   14.2313 N.2       1 RES1    0.0000
      2 O1         2.1075    3.1267   15.2898 O.3       1 RES1    0.0000
      3 O2         4.5965    1.5643   12.7742 O.3       1 RES1    0.0000
      4 H1         4.2416    2.0011   13.3723 H         1 RES1    0.0000
      5 C1         3.1488    3.8948   15.9024 C.3       1 RES1    0.0000
      6 H2         2.7497    4.5668   16.4763 H         1 RES1    0.0000
      7 H3         3.6490    4.3564   15.2109 H         1 RES1    0.0000
      8 C2         4.0994    3.0511   16.7189 C.3       1 RES1    0.0000
      9 H4         4.5819    2.4519   16.1264 H         1 RES1    0.0000
     10 H5         3.5901    2.5093   17.3397 H         1 RES1    0.0000
     11 C3         5.0923    3.8944   17.4905 C.3       1 RES1    0.0000
     12 H6         4.6081    4.4394   18.1325 H         1 RES1    0.0000
     13 H7         5.5412    4.4926   16.8745 H         1 RES1    0.0000
     14 C4         6.1371    3.0777   18.2304 C.3       1 RES1    0.0000
     15 H8         5.6876    2.4888   18.8582 H         1 RES1    0.0000
     16 H9         6.6103    2.5228   17.5928 H         1 RES1    0.0000
     17 C5         1.8044    1.6291   13.6362 C.2       1 RES1    0.0000
     18 C6         0.3782    1.5377   14.0605 C.3       1 RES1    0.0000
     19 H10        0.1837    0.6398   14.3363 H         1 RES1    0.0000
     20 H11       -0.1905    1.7757   13.3239 H         1 RES1    0.0000
     21 H12        0.2233    2.1397   14.7940 H         1 RES1    0.0000
     22 C7         2.3111    0.8129   12.5290 C.ar      1 RES1    0.0000
     23 C8         3.6561    0.8041   12.1490 C.ar      1 RES1    0.0000
     24 C9         4.0989    0.0037   11.1147 C.ar      1 RES1    0.0000
     25 H13        4.9986    0.0061   10.8825 H         1 RES1    0.0000
     26 C10        3.2193   -0.7971   10.4258 C.ar      1 RES1    0.0000
     27 H14        3.5229   -1.3356    9.7324 H         1 RES1    0.0000
     28 C11        1.8936   -0.7980   10.7671 C.ar      1 RES1    0.0000
     29 H15        1.2949   -1.3342   10.2981 H         1 RES1    0.0000
     30 C12        1.4440   -0.0121   11.7950 C.ar      1 RES1    0.0000
     31 H16        0.5388   -0.0252   12.0139 H         1 RES1    0.0000
     32 N1F       10.6206    4.6191   22.9864 N.2       1 RES1    0.0000
     33 O1F       11.1738    3.8734   21.9279 O.3       1 RES1    0.0000
     34 O2F        8.6847    5.4358   24.4435 O.3       1 RES1    0.0000
     35 H1F        9.0397    4.9990   23.8454 H         1 RES1    0.0000
     36 C1F       10.1324    3.1052   21.3153 C.3       1 RES1    0.0000
     37 H2F       10.5316    2.4332   20.7414 H         1 RES1    0.0000
     38 H3F        9.6322    2.6437   22.0068 H         1 RES1    0.0000
     39 C2F        9.1819    3.9490   20.4988 C.3       1 RES1    0.0000
     40 H4F        8.6993    4.5482   21.0913 H         1 RES1    0.0000
     41 H5F        9.6911    4.4908   19.8780 H         1 RES1    0.0000
     42 C3F        8.1889    3.1057   19.7273 C.3       1 RES1    0.0000
     43 H6F        8.6732    2.5606   19.0853 H         1 RES1    0.0000
     44 H7F        7.7401    2.5074   20.3432 H         1 RES1    0.0000
     45 C4F        7.1441    3.9224   18.9874 C.3       1 RES1    0.0000
     46 H8F        7.5937    4.5113   18.3595 H         1 RES1    0.0000
     47 H9F        6.6710    4.4772   19.6249 H         1 RES1    0.0000
     48 C5F       11.4769    5.3709   23.5815 C.2       1 RES1    0.0000
     49 C6F       12.9031    5.4624   23.1572 C.3       1 RES1    0.0000
     50 H10F      13.0976    6.3602   22.8815 H         1 RES1    0.0000
     51 H11F      13.4718    5.2244   23.8938 H         1 RES1    0.0000
     52 H12F      13.0579    4.8604   22.4237 H         1 RES1    0.0000
     53 C7F       10.9702    6.1871   24.6888 C.ar      1 RES1    0.0000
     54 C8F        9.6251    6.1960   25.0687 C.ar      1 RES1    0.0000
     55 C9F        9.1823    6.9963   26.1030 C.ar      1 RES1    0.0000
     56 H13F       8.2826    6.9940   26.3353 H         1 RES1    0.0000
     57 C10F      10.0620    7.7971   26.7919 C.ar      1 RES1    0.0000
     58 H14F       9.7583    8.3357   27.4853 H         1 RES1    0.0000
     59 C11F      11.3877    7.7981   26.4506 C.ar      1 RES1    0.0000
     60 H15F      11.9863    8.3343   26.9196 H         1 RES1    0.0000
     61 C12F      11.8372    7.0122   25.4227 C.ar      1 RES1    0.0000
     62 H16F      12.7425    7.0253   25.2038 H         1 RES1    0.0000
@<TRIPOS>BOND
     1    1    2 1
     2    2    5 1
     3    3    4 1
     4    5    6 1
     5    7    5 1
     6    8    5 1
     7    9    8 1
     8   10    8 1
     9   11    8 1
    10   12   11 1
    11   13   11 1
    12   14   11 1
    13   15   14 1
    14   16   14 1
    15   17    1 2
    16   18   17 1
    17   19   18 1
    18   20   18 1
    19   21   18 1
    20   22   17 1
    21   23    3 1
    22   24   23 ar
    23   25   24 1
    24   26   24 ar
    25   27   26 1
    26   28   26 ar
    27   29   28 1
    28   30   22 ar
    29   31   30 1
    30   32   33 1
    31   33   36 1
    32   34   35 1
    33   36   37 1
    34   38   36 1
    35   39   36 1
    36   40   39 1
    37   41   39 1
    38   42   39 1
    39   43   42 1
    40   44   42 1
    41   45   14 1
    42   46   45 1
    43   47   45 1
    44   48   32 2
    45   49   48 1
    46   50   49 1
    47   51   49 1
    48   52   49 1
    49   53   48 1
    50   54   34 1
    51   55   54 ar
    52   56   55 1
    53   57   55 ar
    54   58   57 1
    55   59   57 ar
    56   60   59 1
    57   61   53 ar
    58   62   61 1
    59   22   23 ar
    60   28   30 ar
    61   42   45 1
    62   53   54 ar
    63   59   61 ar
@<TRIPOS>SUBSTRUCTURE
     1 RES1 1

@<TRIPOS>CRYSIN
  12.9524    4.6667   37.7220  90.0000  99.3790  90.0000  15 1

