# MOL2 file generated by ConQuest
# Please check atom types

@<TRIPOS>MOLECULE
BUFNIB
    29    31     1
SMALL
NO_CHARGES
****
Generated from CSD

@<TRIPOS>ATOM
      1 C1        -0.8493    2.9453    3.2529 C.ar      1 RES1    0.0000
      2 C2        -0.9729    1.8159    2.4778 C.ar      1 RES1    0.0000
      3 H1        -1.7292    1.2472    2.5633 H         1 RES1    0.0000
      4 C3         0.0260    1.5307    1.5730 C.ar      1 RES1    0.0000
      5 H2        -0.0480    0.7583    1.0244 H         1 RES1    0.0000
      6 C4         1.1472    2.3544    1.4462 C.ar      1 RES1    0.0000
      7 C5         1.2406    3.4849    2.2626 C.ar      1 RES1    0.0000
      8 H3         1.9991    4.0526    2.1942 H         1 RES1    0.0000
      9 C6         0.2460    3.7842    3.1645 C.ar      1 RES1    0.0000
     10 H4         0.3106    4.5538    3.7174 H         1 RES1    0.0000
     11 C7         2.1736    2.0341    0.4502 C.2       1 RES1    0.0000
     12 C8         3.3911    2.5348    0.0399 C.2       1 RES1    0.0000
     13 C9         3.7756    1.6874   -1.0316 C.2       1 RES1    0.0000
     14 C10        5.0329    1.8624   -1.8238 C.3       1 RES1    0.0000
     15 H5         4.8510    1.6976   -2.7827 H         1 RES1    0.0000
     16 H6         5.7163    1.2137   -1.5203 H         1 RES1    0.0000
     17 C11        5.5403    3.2791   -1.6286 C.3       1 RES1    0.0000
     18 H7         6.4629    3.3272   -1.9862 H         1 RES1    0.0000
     19 H8         4.9813    3.8852   -2.1757 H         1 RES1    0.0000
     20 C12        5.5561    3.7815   -0.2778 C.3       1 RES1    0.0000
     21 H9         5.8224    4.7353   -0.3021 H         1 RES1    0.0000
     22 H10        6.2512    3.2926    0.2294 H         1 RES1    0.0000
     23 C13        4.2440    3.6680    0.4745 C.2       1 RES1    0.0000
     24 N1        -1.9138    3.2678    4.2203 N.pl3     1 RES1    0.0000
     25 N2         2.9007    0.7583   -1.2909 N.2       1 RES1    0.0000
     26 O1        -1.8049    4.2892    4.8843 O.2       1 RES1    0.0000
     27 O2        -2.8600    2.4943    4.3158 O.2       1 RES1    0.0000
     28 O3         1.8701    0.9717   -0.3294 O.3       1 RES1    0.0000
     29 O4         3.9559    4.4377    1.3607 O.2       1 RES1    0.0000
@<TRIPOS>BOND
     1    1    2 ar
     2    2    3 1
     3    4    2 ar
     4    5    4 1
     5    6    4 ar
     6    7    6 ar
     7    8    7 1
     8    9    1 ar
     9   10    9 1
    10   11    6 1
    11   12   11 2
    12   13   12 1
    13   14   13 1
    14   15   14 1
    15   16   14 1
    16   17   14 1
    17   18   17 1
    18   19   17 1
    19   20   17 1
    20   21   20 1
    21   22   20 1
    22   23   12 1
    23   24    1 1
    24   25   13 2
    25   26   24 2
    26   27   24 2
    27   28   11 1
    28   29   23 2
    29    7    9 ar
    30   20   23 1
    31   25   28 1
@<TRIPOS>SUBSTRUCTURE
     1 RES1 1

@<TRIPOS>CRYSIN
  14.8078    5.4013   15.8077  90.0000 115.6640  90.0000 231 1

