# MOL2 file generated by ConQuest
# Please check atom types

@<TRIPOS>MOLECULE
BUGJIW
    47    49     1
SMALL
NO_CHARGES
****
Generated from CSD

@<TRIPOS>ATOM
      1 O1        11.7317    2.3989   10.2781 O.2       1 RES1    0.0000
      2 C1        11.8127    3.5747   10.0520 C.2       1 RES1    0.0000
      3 O2        12.6135    4.3738   10.8159 O.3       1 RES1    0.0000
      4 C2        12.6747    5.7164   10.2403 C.3       1 RES1    0.0000
      5 C3        13.9624    5.7133    9.5226 C.3       1 RES1    0.0000
      6 O3        14.1774    6.9932    8.9630 O.3       1 RES1    0.0000
      7 C4        11.5195    5.7424    9.2386 C.3       1 RES1    0.0000
      8 N1        11.2095    4.3263    9.0907 N.am      1 RES1    0.0000
      9 C5        10.2649    3.8472    8.1630 C.ar      1 RES1    0.0000
     10 C6         9.9919    2.4938    7.9974 C.ar      1 RES1    0.0000
     11 C7         9.0688    2.0851    7.0739 C.ar      1 RES1    0.0000
     12 C8         8.4054    2.9822    6.2638 C.ar      1 RES1    0.0000
     13 C9         8.6578    4.3386    6.4109 C.ar      1 RES1    0.0000
     14 C10        9.5880    4.7580    7.3504 C.ar      1 RES1    0.0000
     15 O4         7.5332    2.4464    5.3504 O.3       1 RES1    0.0000
     16 C11        6.8424    3.3420    4.4991 C.3       1 RES1    0.0000
     17 C12        6.1643    2.5689    3.4075 C.ar      1 RES1    0.0000
     18 C13        5.0932    3.1445    2.7294 C.ar      1 RES1    0.0000
     19 C14        4.5060    2.5122    1.6462 C.ar      1 RES1    0.0000
     20 C15        4.9670    1.2829    1.2420 C.ar      1 RES1    0.0000
     21 C16        5.9984    0.7073    1.9428 C.ar      1 RES1    0.0000
     22 C17        6.6117    1.3273    3.0126 C.ar      1 RES1    0.0000
     23 C18       15.2135    6.9993    8.0025 C.3       1 RES1    0.0000
     24 N2         6.5013   -0.6016    1.4966 N.pl3     1 RES1    0.0000
     25 O5         7.4011   -1.1237    2.1227 O.2       1 RES1    0.0000
     26 O6         6.0072   -1.1053    0.4950 O.2       1 RES1    0.0000
     27 C19       12.5877    6.7513   11.3579 C.3       1 RES1    0.0000
     28 H1        13.9702    4.9662    8.7226 H         1 RES1    0.0000
     29 H2        14.8025    5.4822   10.1890 H         1 RES1    0.0000
     30 H3        11.8190    6.1956    8.2479 H         1 RES1    0.0000
     31 H4        10.6622    6.3395    9.5722 H         1 RES1    0.0000
     32 H5        10.5142    1.7590    8.6386 H         1 RES1    0.0000
     33 H6         8.8259    1.0058    6.9773 H         1 RES1    0.0000
     34 H7         8.1464    5.0550    5.7764 H         1 RES1    0.0000
     35 H8         9.7996    5.8389    7.4647 H         1 RES1    0.0000
     36 H9         6.1145    3.9176    5.0689 H         1 RES1    0.0000
     37 H10        7.5517    4.0599    4.0563 H         1 RES1    0.0000
     38 H11        4.7087    4.1242    3.0723 H         1 RES1    0.0000
     39 H12        3.6583    2.9929    1.1185 H         1 RES1    0.0000
     40 H13        4.5069    0.7455    0.3765 H         1 RES1    0.0000
     41 H14        7.4430    0.8221    3.5437 H         1 RES1    0.0000
     42 H15       15.3471    7.9959    7.5563 H         1 RES1    0.0000
     43 H16       14.9791    6.3180    7.1579 H         1 RES1    0.0000
     44 H17       16.1625    6.6870    8.4109 H         1 RES1    0.0000
     45 H18       12.6282    7.7555   10.9772 H         1 RES1    0.0000
     46 H19       13.3607    6.6089   12.0982 H         1 RES1    0.0000
     47 H20       11.6120    6.6303   11.8772 H         1 RES1    0.0000
@<TRIPOS>BOND
     1    1    2 2
     2    2    3 1
     3    3    4 1
     4    4    5 1
     5    5    6 1
     6    6   23 1
     7    7    4 1
     8    8    2 1
     9    9    8 1
    10   10    9 ar
    11   11   10 ar
    12   12   11 ar
    13   13   12 ar
    14   14    9 ar
    15   15   12 1
    16   16   15 1
    17   17   16 1
    18   18   17 ar
    19   19   18 ar
    20   20   19 ar
    21   21   20 ar
    22   22   17 ar
    23   23   42 1
    24   24   21 1
    25   25   24 2
    26   26   24 2
    27   27    4 1
    28   28    5 1
    29   29    5 1
    30   30    7 1
    31   31    7 1
    32   32   10 1
    33   33   11 1
    34   34   13 1
    35   35   14 1
    36   36   16 1
    37   37   16 1
    38   38   18 1
    39   39   19 1
    40   40   20 1
    41   41   22 1
    42   43   23 1
    43   44   23 1
    44   45   27 1
    45   46   27 1
    46   47   27 1
    47    7    8 1
    48   13   14 ar
    49   21   22 ar
@<TRIPOS>SUBSTRUCTURE
     1 RES1 1

@<TRIPOS>CRYSIN
  14.0970   15.3090    8.6790  90.0000 104.4800  90.0000  14 1

