# MOL2 file generated by ConQuest
# Please check atom types

@<TRIPOS>MOLECULE
BUGKIY
    15    15     1
SMALL
NO_CHARGES
****
Generated from CSD

@<TRIPOS>ATOM
      1 N1         1.5202    2.4866    7.2570 N.2       1 RES1    0.0000
      2 O1         2.7161    0.4635    4.6674 O.2       1 RES1    0.0000
      3 N2         2.7288    1.3655    5.4760 N.pl3     1 RES1    0.0000
      4 N3        -1.5505    0.6223    7.6879 N.3       1 RES1    0.0000
      5 H1        -1.8579   -0.0464    7.2429 H         1 RES1    0.0000
      6 H2        -2.0167    0.9673    8.3224 H         1 RES1    0.0000
      7 N4        -0.2755    1.1563    7.3746 N.pl3     1 RES1    0.0000
      8 O2         3.6510    2.1494    5.6210 O.2       1 RES1    0.0000
      9 C1         1.5930    1.4896    6.3614 C.2       1 RES1    0.0000
     10 N5        -0.1499    3.0882    8.9128 N.pl3     1 RES1    0.0000
     11 C2         0.3756    2.2523    7.8635 C.2       1 RES1    0.0000
     12 O3         0.3924    4.1697    9.0868 O.2       1 RES1    0.0000
     13 C3         0.4998    0.6531    6.3868 C.2       1 RES1    0.0000
     14 H3         0.3327   -0.0867    5.8484 H         1 RES1    0.0000
     15 O4        -1.0817    2.6454    9.5585 O.2       1 RES1    0.0000
@<TRIPOS>BOND
     1    1    9 1
     2    2    3 2
     3    3    8 2
     4    4    5 1
     5    6    4 1
     6    7    4 1
     7    9    3 1
     8   10   11 1
     9   11    1 2
    10   12   10 2
    11   13    7 1
    12   14   13 1
    13   15   10 2
    14    7   11 1
    15    9   13 2
@<TRIPOS>SUBSTRUCTURE
     1 RES1 1

@<TRIPOS>CRYSIN
  10.1139    5.5916   11.6202  90.0000  90.0000  90.0000  29 1

