# MOL2 file generated by ConQuest
# Please check atom types

@<TRIPOS>MOLECULE
BUGPEZ01
    27    31     1
SMALL
NO_CHARGES
****
Generated from CSD

@<TRIPOS>ATOM
      1 N1         4.9453    6.5740    2.7854 N.ar      1 RES1    0.0000
      2 N2         5.7322    7.9637    4.9873 N.ar      1 RES1    0.0000
      3 N3         6.0463    2.4412    4.8917 N.2       1 RES1    0.0000
      4 N4         6.9044    3.9214    7.2295 N.2       1 RES1    0.0000
      5 N5         6.7179    0.5635    6.1848 N.2       1 RES1    0.0000
      6 N6         7.3862    1.7301    8.0561 N.2       1 RES1    0.0000
      7 O1         7.2302    0.5008    7.4600 O.3       1 RES1    0.0000
      8 C1         4.5422    5.8932    1.7283 C.ar      1 RES1    0.0000
      9 H1         4.2349    6.3823    0.9741 H         1 RES1    0.0000
     10 C2         4.5414    4.5105    1.6514 C.ar      1 RES1    0.0000
     11 H2         4.2387    4.0655    0.8695 H         1 RES1    0.0000
     12 C3         4.9854    3.8122    2.7256 C.ar      1 RES1    0.0000
     13 H3         4.9801    2.8618    2.7059 H         1 RES1    0.0000
     14 C4         5.4476    4.4733    3.8515 C.ar      1 RES1    0.0000
     15 C5         5.9685    3.7483    4.9909 C.2       1 RES1    0.0000
     16 C6         6.4068    4.4942    6.1786 C.2       1 RES1    0.0000
     17 C7         6.2850    5.9501    6.1652 C.ar      1 RES1    0.0000
     18 C8         6.6211    6.6972    7.2911 C.ar      1 RES1    0.0000
     19 H4         6.9153    6.2696    8.0865 H         1 RES1    0.0000
     20 C9         6.5185    8.0566    7.2304 C.ar      1 RES1    0.0000
     21 H5         6.7413    8.5923    7.9828 H         1 RES1    0.0000
     22 C10        6.0916    8.6318    6.0695 C.ar      1 RES1    0.0000
     23 H6         6.0494    9.5799    6.0374 H         1 RES1    0.0000
     24 C11        5.8261    6.6217    5.0356 C.ar      1 RES1    0.0000
     25 C12        5.3980    5.8804    3.8489 C.ar      1 RES1    0.0000
     26 C13        6.5565    1.8602    6.0052 C.2       1 RES1    0.0000
     27 C14        6.9613    2.5643    7.1267 C.2       1 RES1    0.0000
@<TRIPOS>BOND
     1    1    8 ar
     2    2   22 ar
     3    3   15 2
     4    4   16 2
     5    5    7 1
     6    6    7 1
     7    8    9 1
     8   10    8 ar
     9   11   10 1
    10   12   10 ar
    11   13   12 1
    12   14   12 ar
    13   15   14 1
    14   16   15 1
    15   17   16 1
    16   18   17 ar
    17   19   18 1
    18   20   18 ar
    19   21   20 1
    20   22   20 ar
    21   23   22 1
    22   24    2 ar
    23   25    1 ar
    24   26    3 1
    25   27    4 1
    26    5   26 2
    27    6   27 2
    28   14   25 ar
    29   17   24 ar
    30   24   25 1
    31   26   27 1
@<TRIPOS>SUBSTRUCTURE
     1 RES1 1

@<TRIPOS>CRYSIN
  10.5060   11.6190    9.3780  90.0000 107.6550  90.0000  14 1

