# MOL2 file generated by ConQuest
# Please check atom types

@<TRIPOS>MOLECULE
BUGQUQ
    62    68     1
SMALL
NO_CHARGES
****
Generated from CSD

@<TRIPOS>ATOM
      1 N1         5.6875    3.0639    0.0523 N.pl3     1 RES1    0.0000
      2 N2         3.4777   -0.5178    5.5380 N.3       1 RES1    0.0000
      3 O1        -0.2344    3.1858    5.8527 O.3       1 RES1    0.0000
      4 O2        -0.3258    4.9719    8.0139 O.3       1 RES1    0.0000
      5 O3        -0.2195    3.6418    2.8266 O.3       1 RES1    0.0000
      6 O4         6.4256    2.8976   -0.9014 O.2       1 RES1    0.0000
      7 O5         5.3452    4.1715    0.4475 O.2       1 RES1    0.0000
      8 C1         3.6201    0.9334    2.2735 C.ar      1 RES1    0.0000
      9 C2         4.1247    2.0426    1.6175 C.ar      1 RES1    0.0000
     10 H1         3.7590    2.8850    1.7685 H         1 RES1    0.0000
     11 C3         5.1724    1.8866    0.7383 C.ar      1 RES1    0.0000
     12 C4         5.7548    0.6658    0.4641 C.ar      1 RES1    0.0000
     13 H2         6.4450    0.5866   -0.1528 H         1 RES1    0.0000
     14 C5         5.2735   -0.4291    1.1440 C.ar      1 RES1    0.0000
     15 H3         5.6508   -1.2667    1.0008 H         1 RES1    0.0000
     16 C6         4.2208   -0.2850    2.0474 C.ar      1 RES1    0.0000
     17 H4         3.9159   -1.0324    2.5095 H         1 RES1    0.0000
     18 C7         3.0140    3.3584    8.3346 C.ar      1 RES1    0.0000
     19 H5         3.7999    3.4558    8.8216 H         1 RES1    0.0000
     20 C8         1.9174    4.1770    8.6249 C.ar      1 RES1    0.0000
     21 H6         1.9689    4.7621    9.3449 H         1 RES1    0.0000
     22 C9         0.7570    4.1422    7.8686 C.ar      1 RES1    0.0000
     23 C10        0.7151    3.2206    6.8461 C.ar      1 RES1    0.0000
     24 C11        0.2820    2.2793    4.8243 C.3       1 RES1    0.0000
     25 H7        -0.4215    1.6436    4.5779 H         1 RES1    0.0000
     26 C12        0.7908    2.9776    3.5466 C.3       1 RES1    0.0000
     27 C13        2.4161    1.0039    3.2063 C.3       1 RES1    0.0000
     28 H8         2.1962    0.0238    3.3613 H         1 RES1    0.0000
     29 C14        1.2282    1.8098    2.6299 C.3       1 RES1    0.0000
     30 H9         0.4753    1.2129    2.4981 H         1 RES1    0.0000
     31 H10        1.4788    2.1653    1.7628 H         1 RES1    0.0000
     32 C15        3.8402    0.9065    5.4053 C.3       1 RES1    0.0000
     33 H11        4.6643    0.9461    4.8759 H         1 RES1    0.0000
     34 C16        4.1273    1.6412    6.7609 C.3       1 RES1    0.0000
     35 H12        4.4163    0.9849    7.4140 H         1 RES1    0.0000
     36 H13        4.8586    2.2635    6.6272 H         1 RES1    0.0000
     37 C17        2.9443    2.4004    7.3287 C.ar      1 RES1    0.0000
     38 C18        1.7260    2.3308    6.6665 C.ar      1 RES1    0.0000
     39 C19        1.4585    1.5042    5.4593 C.3       1 RES1    0.0000
     40 C20        2.7461    1.6301    4.5951 C.3       1 RES1    0.0000
     41 C21        1.1225    0.0586    5.7792 C.3       1 RES1    0.0000
     42 H14        0.3861    0.0372    6.4095 H         1 RES1    0.0000
     43 H15        0.8308   -0.3848    4.9675 H         1 RES1    0.0000
     44 C22        2.2899   -0.6983    6.3617 C.3       1 RES1    0.0000
     45 H16        2.4675   -0.3800    7.2593 H         1 RES1    0.0000
     46 H17        2.0718   -1.6420    6.4133 H         1 RES1    0.0000
     47 C23        3.0145    3.0868    4.3822 C.2       1 RES1    0.0000
     48 H18        3.8282    3.4811    4.6008 H         1 RES1    0.0000
     49 C24        2.0200    3.7661    3.8665 C.2       1 RES1    0.0000
     50 H19        2.0754    4.6813    3.7089 H         1 RES1    0.0000
     51 C25        4.5826   -1.3364    6.0084 C.3       1 RES1    0.0000
     52 H20        4.2982   -2.2508    6.0752 H         1 RES1    0.0000
     53 H21        4.8655   -1.0260    6.8736 H         1 RES1    0.0000
     54 H22        5.3145   -1.2731    5.3915 H         1 RES1    0.0000
     55 C26       -0.7201    4.8468    3.3804 C.3       1 RES1    0.0000
     56 H23       -0.0471    5.5292    3.3212 H         1 RES1    0.0000
     57 H24       -0.9520    4.7035    4.3010 H         1 RES1    0.0000
     58 H25       -1.4992    5.1231    2.8915 H         1 RES1    0.0000
     59 C27       -0.4329    5.7596    9.1215 C.3       1 RES1    0.0000
     60 H26        0.2655    6.4175    9.1157 H         1 RES1    0.0000
     61 H27       -0.3538    5.2157    9.9102 H         1 RES1    0.0000
     62 H28       -1.2867    6.1982    9.1215 H         1 RES1    0.0000
@<TRIPOS>BOND
     1    1    6 2
     2    2   32 1
     3    3   23 1
     4    4   22 1
     5    5   26 1
     6    7    1 2
     7    8    9 ar
     8    9   10 1
     9   11    1 1
    10   12   11 ar
    11   13   12 1
    12   14   12 ar
    13   15   14 1
    14   16    8 ar
    15   17   16 1
    16   18   19 1
    17   20   18 ar
    18   21   20 1
    19   22   20 ar
    20   23   22 ar
    21   24    3 1
    22   25   24 1
    23   26   24 1
    24   27    8 1
    25   28   27 1
    26   29   26 1
    27   30   29 1
    28   31   29 1
    29   32   33 1
    30   34   32 1
    31   35   34 1
    32   36   34 1
    33   37   18 ar
    34   38   23 ar
    35   39   24 1
    36   40   27 1
    37   41   39 1
    38   42   41 1
    39   43   41 1
    40   44    2 1
    41   45   44 1
    42   46   44 1
    43   47   40 1
    44   48   47 1
    45   49   26 1
    46   50   49 1
    47   51    2 1
    48   52   51 1
    49   53   51 1
    50   54   51 1
    51   55    5 1
    52   56   55 1
    53   57   55 1
    54   58   55 1
    55   59    4 1
    56   60   59 1
    57   61   59 1
    58   62   59 1
    59    9   11 ar
    60   14   16 ar
    61   27   29 1
    62   32   40 1
    63   34   37 1
    64   37   38 ar
    65   38   39 1
    66   39   40 1
    67   41   44 1
    68   47   49 2
@<TRIPOS>SUBSTRUCTURE
     1 RES1 1

@<TRIPOS>CRYSIN
   7.4500    7.9170   19.1260  90.0000  93.0720  90.0000   4 1

