# MOL2 file generated by ConQuest
# Please check atom types

@<TRIPOS>MOLECULE
BUGRIF
    29    31     1
SMALL
NO_CHARGES
****
Generated from CSD

@<TRIPOS>ATOM
      1 C1         3.0267    5.7055    9.6892 C.ar      1 RES1    0.0000
      2 C2         2.7727    4.3472    9.5383 C.ar      1 RES1    0.0000
      3 H1         2.4650    3.8401   10.2806 H         1 RES1    0.0000
      4 C3         2.9658    3.7240    8.3078 C.ar      1 RES1    0.0000
      5 H2         2.7775    2.7983    8.2092 H         1 RES1    0.0000
      6 C4         3.4334    4.4579    7.2263 C.ar      1 RES1    0.0000
      7 H3         3.5544    4.0331    6.3851 H         1 RES1    0.0000
      8 C5         3.7251    5.8057    7.3642 C.ar      1 RES1    0.0000
      9 H4         4.0683    6.2943    6.6252 H         1 RES1    0.0000
     10 C6         3.5152    6.4450    8.5865 C.ar      1 RES1    0.0000
     11 C7         2.7487    6.3378   11.0184 C.2       1 RES1    0.0000
     12 C8         3.0676    7.7713   11.0960 C.2       1 RES1    0.0000
     13 C9         3.5148    8.4565   10.0176 C.2       1 RES1    0.0000
     14 C10        3.8110    7.9010    8.6834 C.2       1 RES1    0.0000
     15 C11        2.9594    8.7722   12.1094 C.2       1 RES1    0.0000
     16 C12        2.6260    8.5998   13.5609 C.2       1 RES1    0.0000
     17 C13        1.3947    9.4766   15.3880 C.3       1 RES1    0.0000
     18 H5         2.1409    9.7836   15.9612 H         1 RES1    0.0000
     19 H6         1.1574    8.5505   15.6460 H         1 RES1    0.0000
     20 C14        0.2106   10.3823   15.5406 C.3       1 RES1    0.0000
     21 H7         0.4530   11.2881   15.2547 H         1 RES1    0.0000
     22 H8        -0.0684   10.3995   16.4795 H         1 RES1    0.0000
     23 H9        -0.5275   10.0514   14.9866 H         1 RES1    0.0000
     24 N1         3.3090    9.9522   11.6579 N.2       1 RES1    0.0000
     25 O1         2.2575    5.7177   11.9448 O.2       1 RES1    0.0000
     26 O2         4.2624    8.5750    7.7784 O.2       1 RES1    0.0000
     27 O3         3.6780    9.7580   10.3040 O.3       1 RES1    0.0000
     28 O4         3.1043    7.7240   14.2256 O.2       1 RES1    0.0000
     29 O5         1.7804    9.5315   13.9707 O.3       1 RES1    0.0000
@<TRIPOS>BOND
     1    1    2 ar
     2    2    3 1
     3    4    2 ar
     4    5    4 1
     5    6    4 ar
     6    7    6 1
     7    8    6 ar
     8    9    8 1
     9   10    1 ar
    10   11    1 1
    11   12   11 1
    12   13   12 2
    13   14   10 1
    14   15   12 1
    15   16   15 1
    16   17   18 1
    17   19   17 1
    18   20   17 1
    19   21   20 1
    20   22   20 1
    21   23   20 1
    22   24   15 2
    23   25   11 2
    24   26   14 2
    25   27   13 1
    26   28   16 2
    27   29   16 1
    28    8   10 ar
    29   13   14 1
    30   17   29 1
    31   24   27 1
@<TRIPOS>SUBSTRUCTURE
     1 RES1 1

@<TRIPOS>CRYSIN
   7.1485    8.5516   10.1860  79.3150  88.8410  76.3820   2 1

