# MOL2 file generated by ConQuest
# Please check atom types

@<TRIPOS>MOLECULE
BUGZIM
    87    91     2
SMALL
NO_CHARGES
****
Generated from CSD

@<TRIPOS>ATOM
      1 O1        -0.9001    3.3632   10.0517 O.2       1 RES1    0.0000
      2 C1        -0.2119    2.8213    9.2222 C.2       1 RES1    0.0000
      3 O2        -0.7249    1.8900    8.3946 O.3       1 RES1    0.0000
      4 C2         0.3014    1.3769    7.5071 C.3       1 RES1    0.0000
      5 C3         0.3687   -0.1078    7.6417 C.3       1 RES1    0.0000
      6 O3         0.8067   -0.4112    8.9558 O.3       1 RES1    0.0000
      7 C4         1.5715    2.1312    7.8943 C.3       1 RES1    0.0000
      8 N1         1.1086    3.0037    8.9588 N.am      1 RES1    0.0000
      9 C5         1.9282    4.0098    9.5318 C.ar      1 RES1    0.0000
     10 C6         3.2973    3.9370    9.3824 C.ar      1 RES1    0.0000
     11 C7         4.1242    4.8884    9.9603 C.ar      1 RES1    0.0000
     12 C8         3.6087    5.9477   10.6925 C.ar      1 RES1    0.0000
     13 C9         2.2174    6.0285   10.8016 C.ar      1 RES1    0.0000
     14 C10        1.3906    5.0818   10.2355 C.ar      1 RES1    0.0000
     15 C11        4.5039    6.9030   11.3687 C.2       1 RES1    0.0000
     16 C12        4.1113    8.0248   11.9545 C.2       1 RES1    0.0000
     17 C13        4.9107    8.9538   12.7762 C.ar      1 RES1    0.0000
     18 C14        6.2675    8.8089   13.0199 C.ar      1 RES1    0.0000
     19 C15        6.9392    9.7188   13.8278 C.ar      1 RES1    0.0000
     20 C16        6.2754   10.7712   14.4077 C.ar      1 RES1    0.0000
     21 C17        4.9221   10.8836   14.1836 C.ar      1 RES1    0.0000
     22 C18        4.2276   10.0186   13.3708 C.ar      1 RES1    0.0000
     23 C19        0.9354   -1.8197    9.1465 C.3       1 RES1    0.0000
     24 N2         4.1795   11.9697   14.8294 N.pl3     1 RES1    0.0000
     25 O4         3.0050   12.1509   14.5738 O.2       1 RES1    0.0000
     26 O5         4.7799   12.6779   15.6206 O.2       1 RES1    0.0000
     27 H1         0.0071    1.5670    6.5979 H         1 RES1    0.0000
     28 H2         1.0861   -0.4743    6.9744 H         1 RES1    0.0000
     29 H3        -0.5357   -0.5282    7.5405 H         1 RES1    0.0000
     30 H4         1.9940    2.6576    7.2152 H         1 RES1    0.0000
     31 H5         2.2835    1.5296    8.1312 H         1 RES1    0.0000
     32 H6         3.6877    3.2205    8.9116 H         1 RES1    0.0000
     33 H7         5.0772    4.8605    9.8168 H         1 RES1    0.0000
     34 H8         1.7769    6.7558   11.2970 H         1 RES1    0.0000
     35 H9         0.4613    5.1264   10.3662 H         1 RES1    0.0000
     36 H10        5.4732    6.6873   11.2754 H         1 RES1    0.0000
     37 H11        3.1342    8.2165   12.0037 H         1 RES1    0.0000
     38 H12        6.7728    8.0262   12.6356 H         1 RES1    0.0000
     39 H13        7.9035    9.6323   13.9399 H         1 RES1    0.0000
     40 H14        6.6876   11.4380   14.8726 H         1 RES1    0.0000
     41 H15        1.1343   -1.9651   10.0832 H         1 RES1    0.0000
     42 H16        1.4397   -1.7749    8.5450 H         1 RES1    0.0000
     43 H17       -0.0522   -2.2910    9.1288 H         1 RES1    0.0000
     44 O6         0.0643    4.8115    6.7060 O.2       2 RES2    0.0000
     45 C20        0.4063    4.7100    5.5532 C.2       2 RES2    0.0000
     46 O7        -0.2963    3.9354    4.6961 O.3       2 RES2    0.0000
     47 C21        0.3727    3.8828    3.4105 C.3       2 RES2    0.0000
     48 C22        0.7960    2.4689    3.1609 C.3       2 RES2    0.0000
     49 O8         1.8133    2.1723    4.1025 O.3       2 RES2    0.0000
     50 C23        1.4862    4.9217    3.4882 C.3       2 RES2    0.0000
     51 N3         1.4480    5.2988    4.9133 N.am      2 RES2    0.0000
     52 C24        2.3187    6.2671    5.4460 C.ar      2 RES2    0.0000
     53 C25        3.2958    6.8403    4.6470 C.ar      2 RES2    0.0000
     54 C26        4.1522    7.7901    5.1315 C.ar      2 RES2    0.0000
     55 C27        4.0894    8.2222    6.4574 C.ar      2 RES2    0.0000
     56 C28        3.1406    7.6089    7.2722 C.ar      2 RES2    0.0000
     57 C29        2.2749    6.6523    6.7994 C.ar      2 RES2    0.0000
     58 C30        4.9919    9.2738    6.9183 C.2       2 RES2    0.0000
     59 C31        4.8779    9.9374    8.0732 C.2       2 RES2    0.0000
     60 C32        5.7881   10.9808    8.5656 C.ar      2 RES2    0.0000
     61 C33        6.9587   11.3624    7.9022 C.ar      2 RES2    0.0000
     62 C34        7.8072   12.3104    8.4290 C.ar      2 RES2    0.0000
     63 C35        7.5111   12.8975    9.6536 C.ar      2 RES2    0.0000
     64 C36        6.3710   12.5122   10.2994 C.ar      2 RES2    0.0000
     65 C37        5.4877   11.5811    9.7893 C.ar      2 RES2    0.0000
     66 C38        2.1059    0.7949    4.1486 C.3       2 RES2    0.0000
     67 N4         6.0673   13.1182   11.6007 N.pl3     2 RES2    0.0000
     68 O9         4.9336   13.0522   12.0164 O.2       2 RES2    0.0000
     69 O10        6.9812   13.6441   12.2012 O.2       2 RES2    0.0000
     70 H18       -0.2950    4.0800    2.8582 H         2 RES2    0.0000
     71 H19        1.1752    2.3612    2.4493 H         2 RES2    0.0000
     72 H20       -0.0934    1.7571    3.3506 H         2 RES2    0.0000
     73 H21        1.2842    5.7604    3.0144 H         2 RES2    0.0000
     74 H22        2.3899    4.5122    3.2562 H         2 RES2    0.0000
     75 H23        3.3844    6.5490    3.7830 H         2 RES2    0.0000
     76 H24        4.8562    8.1639    4.6204 H         2 RES2    0.0000
     77 H25        3.0421    7.9110    8.1705 H         2 RES2    0.0000
     78 H26        1.6047    6.2762    7.3144 H         2 RES2    0.0000
     79 H27        5.7841    9.4703    6.3503 H         2 RES2    0.0000
     80 H28        4.0408    9.7890    8.6374 H         2 RES2    0.0000
     81 H29        7.2579   10.8514    7.0736 H         2 RES2    0.0000
     82 H30        8.6335   12.5611    7.9415 H         2 RES2    0.0000
     83 H31        4.5817   11.3892   10.2158 H         2 RES2    0.0000
     84 H32        7.9930   13.5491    9.9573 H         2 RES2    0.0000
     85 H33        2.7417    0.5556    4.8121 H         2 RES2    0.0000
     86 H34        2.5141    0.5728    3.2100 H         2 RES2    0.0000
     87 H35        1.2730    0.3375    4.3836 H         2 RES2    0.0000
@<TRIPOS>BOND
     1    1    2 2
     2    2    3 1
     3    3    4 1
     4    4    5 1
     5    5    6 1
     6    6   23 1
     7    7    4 1
     8    8    2 1
     9    9    8 1
    10   10    9 ar
    11   11   10 ar
    12   12   11 ar
    13   13   12 ar
    14   14    9 ar
    15   15   12 1
    16   16   15 2
    17   17   16 1
    18   18   17 ar
    19   19   18 ar
    20   20   19 ar
    21   21   20 ar
    22   22   17 ar
    23   23   41 1
    24   24   21 1
    25   25   24 2
    26   26   24 2
    27   27    4 1
    28   28    5 1
    29   29    5 1
    30   30    7 1
    31   31    7 1
    32   32   10 1
    33   33   11 1
    34   34   13 1
    35   35   14 1
    36   36   15 1
    37   37   16 1
    38   38   18 1
    39   39   19 1
    40   40   20 1
    41   42   23 1
    42   43   23 1
    43   44   45 2
    44   45   46 1
    45   46   47 1
    46   47   48 1
    47   48   49 1
    48   49   66 1
    49   50   47 1
    50   51   45 1
    51   52   51 1
    52   53   52 ar
    53   54   53 ar
    54   55   54 ar
    55   56   55 ar
    56   57   52 ar
    57   58   55 1
    58   59   58 2
    59   60   59 1
    60   61   60 ar
    61   62   61 ar
    62   63   62 ar
    63   64   63 ar
    64   65   60 ar
    65   66   85 1
    66   67   64 1
    67   68   67 2
    68   69   67 2
    69   70   47 1
    70   71   48 1
    71   72   48 1
    72   73   50 1
    73   74   50 1
    74   75   53 1
    75   76   54 1
    76   77   56 1
    77   78   57 1
    78   79   58 1
    79   80   59 1
    80   81   61 1
    81   82   62 1
    82   83   65 1
    83   84   63 1
    84   86   66 1
    85   87   66 1
    86    7    8 1
    87   13   14 ar
    88   21   22 ar
    89   50   51 1
    90   56   57 ar
    91   64   65 ar
@<TRIPOS>SUBSTRUCTURE
     1 RES1 1
     2 RES2 44

@<TRIPOS>CRYSIN
  10.7290   18.2830    9.9820  96.0200  94.4700 116.5900   2 1

