# MOL2 file generated by ConQuest
# Please check atom types

@<TRIPOS>MOLECULE
BUHFUH
    34    36     1
SMALL
NO_CHARGES
****
Generated from CSD

@<TRIPOS>ATOM
      1 C1         4.0491    8.2616   11.9360 C.ar      1 RES1    0.0000
      2 C2         4.9231    5.9968   11.7634 C.ar      1 RES1    0.0000
      3 C3         4.3950    8.2910   13.2924 C.ar      1 RES1    0.0000
      4 H1         4.2265    9.0523   13.7996 H         1 RES1    0.0000
      5 C4         5.2298    4.8129   11.0617 C.ar      1 RES1    0.0000
      6 H2         5.0343    4.7548   10.1539 H         1 RES1    0.0000
      7 C5         3.9922    7.1579    9.7450 C.2       1 RES1    0.0000
      8 H3         4.2377    6.4255    9.2263 H         1 RES1    0.0000
      9 C6         5.2395    6.0396   13.1345 C.ar      1 RES1    0.0000
     10 C7         3.0803    8.1293    7.8269 C.2       1 RES1    0.0000
     11 C8         4.9732    7.2143   13.8634 C.ar      1 RES1    0.0000
     12 H4         5.2017    7.2491   14.7639 H         1 RES1    0.0000
     13 C9         2.5966    9.2315    7.1817 C.2       1 RES1    0.0000
     14 C10        5.8251    4.9161   13.7494 C.ar      1 RES1    0.0000
     15 H5         6.0280    4.9479   14.6572 H         1 RES1    0.0000
     16 C11        5.8083    3.7521   11.6923 C.ar      1 RES1    0.0000
     17 H6         6.0129    2.9872   11.2050 H         1 RES1    0.0000
     18 C12        6.0983    3.7914   13.0508 C.ar      1 RES1    0.0000
     19 H7         6.4764    3.0547   13.4734 H         1 RES1    0.0000
     20 C13        3.1461    7.1237    6.8261 C.2       1 RES1    0.0000
     21 C14        3.5175    5.6937    6.8983 C.3       1 RES1    0.0000
     22 H8         4.4701    5.6155    6.9861 H         1 RES1    0.0000
     23 H9         3.2328    5.2492    6.0972 H         1 RES1    0.0000
     24 H10        3.0914    5.2906    7.6575 H         1 RES1    0.0000
     25 C15        2.2868   10.5940    7.6272 C.3       1 RES1    0.0000
     26 H11        1.3385   10.6835    7.7464 H         1 RES1    0.0000
     27 H12        2.5874   11.2230    6.9673 H         1 RES1    0.0000
     28 H13        2.7314   10.7668    8.4597 H         1 RES1    0.0000
     29 C16        4.3183    7.1526   11.1464 C.ar      1 RES1    0.0000
     30 N1         3.3753    8.1337    9.1818 N.2       1 RES1    0.0000
     31 N2         2.7540    7.5813    5.6705 N.2       1 RES1    0.0000
     32 O1         2.4044    8.9350    5.8819 O.3       1 RES1    0.0000
     33 O2         3.4346    9.3510   11.4364 O.3       1 RES1    0.0000
     34 H14        3.3406    9.2649   10.6266 H         1 RES1    0.0000
@<TRIPOS>BOND
     1    1    3 ar
     2    2    5 ar
     3    3    4 1
     4    5    6 1
     5    7    8 1
     6    9    2 ar
     7   10   13 2
     8   11    3 ar
     9   12   11 1
    10   13   25 1
    11   14    9 ar
    12   15   14 1
    13   16    5 ar
    14   17   16 1
    15   18   14 ar
    16   19   18 1
    17   20   10 1
    18   21   20 1
    19   22   21 1
    20   23   21 1
    21   24   21 1
    22   25   26 1
    23   27   25 1
    24   28   25 1
    25   29    1 ar
    26   30    7 2
    27   31   20 2
    28   32   13 1
    29   33    1 1
    30   34   33 1
    31    2   29 ar
    32    7   29 1
    33    9   11 ar
    34   10   30 1
    35   16   18 ar
    36   31   32 1
@<TRIPOS>SUBSTRUCTURE
     1 RES1 1

@<TRIPOS>CRYSIN
   7.5360    9.0395   10.8864  74.0710  86.6890  69.2270   2 1

