# MOL2 file generated by ConQuest
# Please check atom types

@<TRIPOS>MOLECULE
BUHLUM
    48    49     1
SMALL
NO_CHARGES
****
Generated from CSD

@<TRIPOS>ATOM
      1 C1        20.1386    3.3751    4.0158 C.2       1 RES1    0.0000
      2 C2        21.0918    3.3751    2.9902 C.2       1 RES1    0.0000
      3 C3        22.3528    3.3751    3.5948 C.2       1 RES1    0.0000
      4 C4        20.9299    3.3751    1.5328 C.2       1 RES1    0.0000
      5 C5        18.6566    3.3751    3.9646 C.ar      1 RES1    0.0000
      6 C6        21.0172    0.8253    1.2177 C.3       1 RES1    0.0000
      7 C7        22.4689    0.5563    1.5612 C.3       1 RES1    0.0000
      8 H1        23.0316    0.8991    0.8628 H         1 RES1    0.0000
      9 H2        22.6064   -0.3902    1.6487 H         1 RES1    0.0000
     10 H3        22.6881    0.9896    2.3892 H         1 RES1    0.0000
     11 C8        20.6624    0.0467   -0.0441 C.3       1 RES1    0.0000
     12 H4        19.7398    0.1958   -0.2632 H         1 RES1    0.0000
     13 H5        20.8074   -0.8897    0.1067 H         1 RES1    0.0000
     14 H6        21.2158    0.3443   -0.7696 H         1 RES1    0.0000
     15 C9        20.0866    0.4185    2.3515 C.3       1 RES1    0.0000
     16 H7        20.3803    0.8262    3.1687 H         1 RES1    0.0000
     17 H8        20.0981   -0.5360    2.4475 H         1 RES1    0.0000
     18 H9        19.1939    0.7088    2.1523 H         1 RES1    0.0000
     19 C10       17.9116    3.3751    5.1382 C.ar      1 RES1    0.0000
     20 H10       18.3510    3.3751    5.9576 H         1 RES1    0.0000
     21 C11       16.5351    3.3751    5.1105 C.ar      1 RES1    0.0000
     22 H11       16.0562    3.3751    5.9085 H         1 RES1    0.0000
     23 C12       15.8676    3.3751    3.9191 C.ar      1 RES1    0.0000
     24 H12       14.9385    3.3751    3.9034 H         1 RES1    0.0000
     25 C13       16.5761    3.3751    2.7469 C.ar      1 RES1    0.0000
     26 H13       16.1268    3.3751    1.9325 H         1 RES1    0.0000
     27 C14       17.9578    3.3751    2.7740 C.ar      1 RES1    0.0000
     28 H14       18.4272    3.3751    1.9709 H         1 RES1    0.0000
     29 N1        20.7106    3.3751    5.2037 N.2       1 RES1    0.0000
     30 N2        20.8495    2.2559    0.8431 N.3       1 RES1    0.0000
     31 H15       20.6625    2.3761    0.0121 H         1 RES1    0.0000
     32 O1        22.1157    3.3751    4.9728 O.3       1 RES1    0.0000
     33 O2        23.5125    3.3751    3.1993 O.2       1 RES1    0.0000
     34 C6G       21.0172    5.9249    1.2177 C.3       1 RES1    0.0000
     35 C7G       22.4689    6.1938    1.5612 C.3       1 RES1    0.0000
     36 H1G       23.0316    5.8510    0.8628 H         1 RES1    0.0000
     37 H2G       22.6064    7.1403    1.6487 H         1 RES1    0.0000
     38 H3G       22.6881    5.7606    2.3892 H         1 RES1    0.0000
     39 C8G       20.6624    6.7034   -0.0441 C.3       1 RES1    0.0000
     40 H4G       19.7398    6.5544   -0.2632 H         1 RES1    0.0000
     41 H5G       20.8074    7.6398    0.1067 H         1 RES1    0.0000
     42 H6G       21.2158    6.4059   -0.7696 H         1 RES1    0.0000
     43 C9G       20.0866    6.3316    2.3515 C.3       1 RES1    0.0000
     44 H7G       20.3803    5.9239    3.1687 H         1 RES1    0.0000
     45 H8G       20.0981    7.2861    2.4475 H         1 RES1    0.0000
     46 H9G       19.1939    6.0414    2.1523 H         1 RES1    0.0000
     47 N2G       20.8495    4.4942    0.8431 N.3       1 RES1    0.0000
     48 H15G      20.6625    4.3741    0.0121 H         1 RES1    0.0000
@<TRIPOS>BOND
     1    1    2 1
     2    2    3 1
     3    3   32 1
     4    4    2 2
     5    5    1 1
     6    6    7 1
     7    7    8 1
     8    9    7 1
     9   10    7 1
    10   11    6 1
    11   12   11 1
    12   13   11 1
    13   14   11 1
    14   15    6 1
    15   16   15 1
    16   17   15 1
    17   18   15 1
    18   19    5 ar
    19   20   19 1
    20   21   19 ar
    21   22   21 1
    22   23   21 ar
    23   24   23 1
    24   25   23 ar
    25   26   25 1
    26   27    5 ar
    27   28   27 1
    28   29    1 2
    29   30    4 1
    30   31   30 1
    31   32   29 1
    32   33    3 2
    33   34   35 1
    34   35   36 1
    35   37   35 1
    36   38   35 1
    37   39   34 1
    38   40   39 1
    39   41   39 1
    40   42   39 1
    41   43   34 1
    42   44   43 1
    43   45   43 1
    44   46   43 1
    45   47    4 1
    46   48   47 1
    47    6   30 1
    48   25   27 ar
    49   34   47 1
@<TRIPOS>SUBSTRUCTURE
     1 RES1 1

@<TRIPOS>CRYSIN
  18.5664   13.5003    7.1127  90.0000  90.0000  90.0000  62 1

