# MOL2 file generated by ConQuest
# Please check atom types

@<TRIPOS>MOLECULE
BUHLIA
    34    36     1
SMALL
NO_CHARGES
****
Generated from CSD

@<TRIPOS>ATOM
      1 C1         4.3316    1.2764    8.1919 C.2       1 RES1    0.0000
      2 C2         5.4298    1.1493    9.0806 C.2       1 RES1    0.0000
      3 C3         6.5484    0.8528    8.2693 C.2       1 RES1    0.0000
      4 C4         5.4803    1.1908   10.5125 C.2       1 RES1    0.0000
      5 C5         2.9252    1.6036    8.4970 C.ar      1 RES1    0.0000
      6 C6         3.6542   -0.4237   10.9897 C.3       1 RES1    0.0000
      7 H1         2.7864   -0.0234   11.0817 H         1 RES1    0.0000
      8 H2         3.7197   -1.1830   11.5745 H         1 RES1    0.0000
      9 H3         3.7816   -0.7070   10.0808 H         1 RES1    0.0000
     10 C7         4.9571    0.8806   12.7313 C.3       1 RES1    0.0000
     11 H4         5.0213    0.0844   13.2815 H         1 RES1    0.0000
     12 H5         4.2780    1.4678   13.0988 H         1 RES1    0.0000
     13 C8         6.2916    1.5832   12.6248 C.3       1 RES1    0.0000
     14 H6         6.2983    2.4036   13.1424 H         1 RES1    0.0000
     15 H7         7.0134    1.0111   12.9279 H         1 RES1    0.0000
     16 C9         7.2729    2.8965   10.6917 C.3       1 RES1    0.0000
     17 H8         7.1087    3.0231    9.7543 H         1 RES1    0.0000
     18 H9         8.1880    2.6386   10.8247 H         1 RES1    0.0000
     19 H10        7.0998    3.7158   11.1607 H         1 RES1    0.0000
     20 C10        1.9003    1.0348    7.7518 C.ar      1 RES1    0.0000
     21 H11        2.1002    0.4557    7.0522 H         1 RES1    0.0000
     22 C11        0.5919    1.3274    8.0466 C.ar      1 RES1    0.0000
     23 H12       -0.0905    0.9440    7.5438 H         1 RES1    0.0000
     24 C12        0.2808    2.1839    9.0813 C.ar      1 RES1    0.0000
     25 H13       -0.6082    2.3792    9.2709 H         1 RES1    0.0000
     26 C13        1.2817    2.7483    9.8312 C.ar      1 RES1    0.0000
     27 H14        1.0719    3.3222   10.5323 H         1 RES1    0.0000
     28 C14        2.5999    2.4625    9.5436 C.ar      1 RES1    0.0000
     29 H15        3.2772    2.8461   10.0525 H         1 RES1    0.0000
     30 N1         4.6831    1.1157    6.9386 N.2       1 RES1    0.0000
     31 N2         4.6695    0.5424   11.3395 N.3       1 RES1    0.0000
     32 N3         6.4032    1.8607   11.1963 N.3       1 RES1    0.0000
     33 O1         6.0867    0.8158    6.9677 O.3       1 RES1    0.0000
     34 O2         7.7356    0.6244    8.4873 O.2       1 RES1    0.0000
@<TRIPOS>BOND
     1    1    2 1
     2    2    3 1
     3    3   33 1
     4    4    2 2
     5    5    1 1
     6    6    7 1
     7    8    6 1
     8    9    6 1
     9   10   11 1
    10   12   10 1
    11   13   10 1
    12   14   13 1
    13   15   13 1
    14   16   17 1
    15   18   16 1
    16   19   16 1
    17   20    5 ar
    18   21   20 1
    19   22   20 ar
    20   23   22 1
    21   24   22 ar
    22   25   24 1
    23   26   24 ar
    24   27   26 1
    25   28    5 ar
    26   29   28 1
    27   30    1 2
    28   31    4 1
    29   32    4 1
    30   33   30 1
    31   34    3 2
    32    6   31 1
    33   10   31 1
    34   13   32 1
    35   16   32 1
    36   26   28 ar
@<TRIPOS>SUBSTRUCTURE
     1 RES1 1

@<TRIPOS>CRYSIN
  10.6851   10.1720   12.3094  90.0000 106.7190  90.0000  14 1

