# MOL2 file generated by ConQuest
# Please check atom types

@<TRIPOS>MOLECULE
BUJVEJ
    79    81     2
SMALL
NO_CHARGES
****
Generated from CSD

@<TRIPOS>ATOM
      1 N1         5.3931   14.0638   21.0356 N.pl3     1 RES1    0.0000
      2 N2         2.3412    4.0280   11.5829 N.pl3     1 RES1    0.0000
      3 O1        10.9341    7.5943   14.2358 O.2       1 RES1    0.0000
      4 O2        11.6017   14.2746   11.8447 O.2       1 RES1    0.0000
      5 O3         9.9625   12.7730   11.6202 O.3       1 RES1    0.0000
      6 O4         9.5815   13.2500   16.1323 O.2       1 RES1    0.0000
      7 O5         8.0669   11.6007   15.8709 O.3       1 RES1    0.0000
      8 O6         4.0268    9.5907   14.2948 O.2       1 RES1    0.0000
      9 O7         6.0269    8.8090   13.6047 O.3       1 RES1    0.0000
     10 N3        11.0197   13.9294    5.4281 N.pl3     1 RES1    0.0000
     11 O8        10.0892   13.5358    4.8241 O.2       1 RES1    0.0000
     12 O9        12.0921   14.2504    4.9464 O.2       1 RES1    0.0000
     13 O10        4.5129   13.3086   21.3761 O.2       1 RES1    0.0000
     14 O11        5.6296   15.1172   21.5872 O.2       1 RES1    0.0000
     15 O12        1.1342    3.8969   11.7017 O.2       1 RES1    0.0000
     16 O13        3.0770    3.1961   11.0506 O.2       1 RES1    0.0000
     17 C1         8.8225   11.6745   13.3897 C.3       1 RES1    0.0000
     18 C2         7.4259   12.2578   13.1036 C.3       1 RES1    0.0000
     19 H1         7.4168   12.6502   12.1950 H         1 RES1    0.0000
     20 H2         7.2371   12.9835   13.7506 H         1 RES1    0.0000
     21 C3         6.3147   11.1848   13.2055 C.3       1 RES1    0.0000
     22 H3         5.4849   11.6166   13.5294 H         1 RES1    0.0000
     23 H4         6.1330   10.8285   12.2998 H         1 RES1    0.0000
     24 C4         6.6554   10.0233   14.1293 C.3       1 RES1    0.0000
     25 H5         6.3208   10.2104   15.0531 H         1 RES1    0.0000
     26 C5         8.1599    9.7858   14.1558 C.3       1 RES1    0.0000
     27 C6         8.8701   10.2108   12.8376 C.3       1 RES1    0.0000
     28 H6         8.3268   10.0643   12.0116 H         1 RES1    0.0000
     29 C7        10.2046    9.4434   12.8629 C.3       1 RES1    0.0000
     30 H7        10.3787    9.0223   11.9840 H         1 RES1    0.0000
     31 H8        10.9523   10.0571   13.0739 H         1 RES1    0.0000
     32 C8        10.0677    8.3860   13.9381 C.2       1 RES1    0.0000
     33 C9         8.6912    8.4317   14.6059 C.3       1 RES1    0.0000
     34 H9         8.1243    7.7259   14.1828 H         1 RES1    0.0000
     35 C10        8.7135    8.1738   16.0965 C.3       1 RES1    0.0000
     36 H10        9.0721    7.2783   16.2682 H         1 RES1    0.0000
     37 H11        9.2811    8.8424   16.5360 H         1 RES1    0.0000
     38 H12        7.8024    8.2342   16.4516 H         1 RES1    0.0000
     39 C11        8.8287   11.0375   14.7743 C.3       1 RES1    0.0000
     40 H13        9.7640   10.8318   15.0633 H         1 RES1    0.0000
     41 C12        9.9214   12.6645   13.0552 C.3       1 RES1    0.0000
     42 H14        9.7257   13.5457   13.4610 H         1 RES1    0.0000
     43 H15       10.7907   12.3436   13.4014 H         1 RES1    0.0000
     44 C13       10.8757   13.6289   11.1370 C.2       1 RES1    0.0000
     45 C14       10.8650   13.7248    9.6599 C.ar      1 RES1    0.0000
     46 C15        9.7665   13.3306    8.8828 C.ar      1 RES1    0.0000
     47 H16        8.9928   12.9740    9.3034 H         1 RES1    0.0000
     48 C16        9.8085   13.4580    7.5353 C.ar      1 RES1    0.0000
     49 H17        9.0755   13.1768    6.9983 H         1 RES1    0.0000
     50 C17       10.9437   14.0074    6.9532 C.ar      1 RES1    0.0000
     51 C18       12.0285   14.3958    7.6808 C.ar      1 RES1    0.0000
     52 H18       12.8009   14.7474    7.2530 H         1 RES1    0.0000
     53 C19       11.9784   14.2699    9.0356 C.ar      1 RES1    0.0000
     54 H19       12.7162   14.5589    9.5610 H         1 RES1    0.0000
     55 C20        8.6015   12.6552   16.5072 C.2       1 RES1    0.0000
     56 C21        7.8051   12.9920   17.7232 C.ar      1 RES1    0.0000
     57 C22        8.0050   14.2276   18.3289 C.ar      1 RES1    0.0000
     58 H20        8.6703   14.8225   18.0058 H         1 RES1    0.0000
     59 C23        7.2010   14.5810   19.4334 C.ar      1 RES1    0.0000
     60 H21        7.3139   15.4219   19.8612 H         1 RES1    0.0000
     61 C24        6.2542   13.6952   19.8787 C.ar      1 RES1    0.0000
     62 C25        6.0785   12.4638   19.3170 C.ar      1 RES1    0.0000
     63 H22        5.4326   11.8606   19.6648 H         1 RES1    0.0000
     64 C26        6.8595   12.1126   18.2343 C.ar      1 RES1    0.0000
     65 H23        6.7494   11.2587   17.8326 H         1 RES1    0.0000
     66 C27        4.6918    8.7509   13.7373 C.2       1 RES1    0.0000
     67 C28        4.1211    7.5088   13.1470 C.ar      1 RES1    0.0000
     68 C29        2.7292    7.4244   13.0530 C.ar      1 RES1    0.0000
     69 H24        2.1875    8.1508   13.3388 H         1 RES1    0.0000
     70 C30        2.1418    6.2787   12.5413 C.ar      1 RES1    0.0000
     71 H25        1.1967    6.2017   12.4744 H         1 RES1    0.0000
     72 C31        2.9705    5.2491   12.1277 C.ar      1 RES1    0.0000
     73 C32        4.3425    5.2995   12.2314 C.ar      1 RES1    0.0000
     74 H26        4.8781    4.5611   11.9665 H         1 RES1    0.0000
     75 C33        4.9171    6.4458   12.7305 C.ar      1 RES1    0.0000
     76 H27        5.8633    6.5120   12.7916 H         1 RES1    0.0000
     77 N4        10.9863   14.3150    5.5314 Du        2 SUP2    0.0000
     78 O14        9.8798   14.3558    4.8576 Du        2 SUP2    0.0000
     79 O15       11.9450   14.8127    5.0046 Du        2 SUP2    0.0000
@<TRIPOS>BOND
     1    1   13 2
     2    2   15 2
     3    3   32 2
     4    4   44 2
     5    5   41 1
     6    6   55 2
     7    7   39 1
     8    8   66 2
     9    9   24 1
    10   10   11 2
    11   12   10 2
    12   14    1 2
    13   16    2 2
    14   17   18 1
    15   18   19 1
    16   20   18 1
    17   21   18 1
    18   22   21 1
    19   23   21 1
    20   24   21 1
    21   25   24 1
    22   26   24 1
    23   27   17 1
    24   28   27 1
    25   29   27 1
    26   30   29 1
    27   31   29 1
    28   32   29 1
    29   33   26 1
    30   34   33 1
    31   35   33 1
    32   36   35 1
    33   37   35 1
    34   38   35 1
    35   39   17 1
    36   40   39 1
    37   41   17 1
    38   42   41 1
    39   43   41 1
    40   44    5 1
    41   45   44 1
    42   46   45 ar
    43   47   46 1
    44   48   46 ar
    45   49   48 1
    46   50   10 1
    47   51   50 ar
    48   52   51 1
    49   53   45 ar
    50   54   53 1
    51   55    7 1
    52   56   55 1
    53   57   56 ar
    54   58   57 1
    55   59   57 ar
    56   60   59 1
    57   61    1 1
    58   62   61 ar
    59   63   62 1
    60   64   56 ar
    61   65   64 1
    62   66    9 1
    63   67   66 1
    64   68   67 ar
    65   69   68 1
    66   70   68 ar
    67   71   70 1
    68   72    2 1
    69   73   72 ar
    70   74   73 1
    71   75   67 ar
    72   76   75 1
    73   26   27 1
    74   26   39 1
    75   32   33 1
    76   48   50 ar
    77   51   53 ar
    78   59   61 ar
    79   62   64 ar
    80   70   72 ar
    81   73   75 ar
@<TRIPOS>SUBSTRUCTURE
     1 RES1 1
     2 SUP2 77

@<TRIPOS>CRYSIN
  11.3190   12.6650   14.5970  86.2840  86.3060  68.2070   2 1

