# MOL2 file generated by ConQuest
# Please check atom types

@<TRIPOS>MOLECULE
BUKLEA
    76    78     2
SMALL
NO_CHARGES
****
Generated from CSD

@<TRIPOS>ATOM
      1 C1         2.8188    4.3630    2.8455 C.3       1 RES1    0.0000
      2 H1         2.5085    3.4518    3.0288 H         1 RES1    0.0000
      3 C2         1.7693    5.3329    3.2625 C.2       1 RES1    0.0000
      4 H2         1.3096    5.7552    2.5734 H         1 RES1    0.0000
      5 C3         1.4064    5.6716    4.4951 C.2       1 RES1    0.0000
      6 C4         2.0574    5.0506    5.7086 C.3       1 RES1    0.0000
      7 H3         1.7533    5.5610    6.4761 H         1 RES1    0.0000
      8 H4         1.6788    4.1620    5.7998 H         1 RES1    0.0000
      9 C5         3.3427    4.9185    5.8386 C.3       1 RES1    0.0000
     10 H5         3.4847    4.5617    6.7300 H         1 RES1    0.0000
     11 H6         3.7025    5.8195    5.8463 H         1 RES1    0.0000
     12 C6         4.2460    4.1179    4.9201 C.3       1 RES1    0.0000
     13 H7         5.1616    4.1981    5.2301 H         1 RES1    0.0000
     14 H8         3.9974    3.1819    4.9724 H         1 RES1    0.0000
     15 C7         4.1752    4.5639    3.4768 C.3       1 RES1    0.0000
     16 H9         4.4071    5.5045    3.4280 H         1 RES1    0.0000
     17 H10        4.8353    4.0716    2.9648 H         1 RES1    0.0000
     18 C8         3.2210    3.4980    0.6544 C.2       1 RES1    0.0000
     19 C9         3.2306    3.8007   -0.7991 C.ar      1 RES1    0.0000
     20 C10        3.3534    2.7641   -1.6994 C.ar      1 RES1    0.0000
     21 H11        3.4434    1.8936   -1.3855 H         1 RES1    0.0000
     22 C11        3.3467    2.9945   -3.0491 C.ar      1 RES1    0.0000
     23 H12        3.4135    2.2899   -3.6527 H         1 RES1    0.0000
     24 C12        3.2376    4.2862   -3.4884 C.ar      1 RES1    0.0000
     25 C13        3.1419    5.3442   -2.6277 C.ar      1 RES1    0.0000
     26 H13        3.0853    6.2147   -2.9493 H         1 RES1    0.0000
     27 C14        3.1304    5.0924   -1.2679 C.ar      1 RES1    0.0000
     28 H14        3.0554    5.7981   -0.6666 H         1 RES1    0.0000
     29 C15        0.3213    6.6461    4.6635 C.2       1 RES1    0.0000
     30 H15       -0.0753    6.9475    3.8775 H         1 RES1    0.0000
     31 C16       -0.1551    7.1406    5.7591 C.2       1 RES1    0.0000
     32 H16        0.1985    6.8798    6.5788 H         1 RES1    0.0000
     33 H17       -0.8506    7.7571    5.7262 H         1 RES1    0.0000
     34 N1         3.2282    4.5312   -4.9290 N.pl3     1 RES1    0.0000
     35 O1         2.9223    4.5565    1.3944 O.3       1 RES1    0.0000
     36 O2         3.4539    2.4344    1.1185 O.2       1 RES1    0.0000
     37 O3         3.2864    5.6874   -5.3165 O.2       1 RES1    0.0000
     38 O4         3.1749    3.5839   -5.6803 O.2       1 RES1    0.0000
     39 C17        6.1226    4.9998   11.6113 C.3       2 RES2    0.0000
     40 H18        5.8409    5.8681   11.2547 H         2 RES2    0.0000
     41 C18        7.5232    4.6848   11.1328 C.3       2 RES2    0.0000
     42 H19        7.7497    3.7792   11.3981 H         2 RES2    0.0000
     43 H20        8.1471    5.2855   11.5686 H         2 RES2    0.0000
     44 C19        7.6874    4.8135    9.6250 C.3       2 RES2    0.0000
     45 H21        7.3713    5.6874    9.3499 H         2 RES2    0.0000
     46 H22        8.6314    4.7582    9.4080 H         2 RES2    0.0000
     47 C20        6.9689    3.7916    8.8693 C.3       2 RES2    0.0000
     48 H23        7.2581    3.8594    7.9450 H         2 RES2    0.0000
     49 H24        7.2658    2.9278    9.1948 H         2 RES2    0.0000
     50 C21        5.5804    3.7781    8.8674 C.3       2 RES2    0.0000
     51 H25        5.2991    3.1638    8.1717 H         2 RES2    0.0000
     52 H26        5.2841    4.6622    8.6019 H         2 RES2    0.0000
     53 C22        4.8067    3.4021   10.1482 C.2       2 RES2    0.0000
     54 C23        5.0965    3.9791   11.3030 C.2       2 RES2    0.0000
     55 H27        4.5806    3.7035   12.0260 H         2 RES2    0.0000
     56 C24        6.2910    6.2384   13.6626 C.2       2 RES2    0.0000
     57 C25        6.2784    6.1210   15.1559 C.ar      2 RES2    0.0000
     58 C26        6.1609    4.9140   15.7992 C.ar      2 RES2    0.0000
     59 H28        6.1044    4.1315   15.2989 H         2 RES2    0.0000
     60 C27        6.1254    4.8440   17.1809 C.ar      2 RES2    0.0000
     61 H29        6.0515    4.0276   17.6184 H         2 RES2    0.0000
     62 C28        6.2040    6.0262   17.8855 C.ar      2 RES2    0.0000
     63 C29        6.3440    7.2343   17.2844 C.ar      2 RES2    0.0000
     64 H30        6.4108    8.0123   17.7909 H         2 RES2    0.0000
     65 C30        6.3850    7.2851   15.9043 C.ar      2 RES2    0.0000
     66 H31        6.4843    8.1038   15.4752 H         2 RES2    0.0000
     67 C31        3.7338    2.4400   10.0940 C.2       2 RES2    0.0000
     68 H32        3.2899    2.2797   10.8962 H         2 RES2    0.0000
     69 C32        3.3019    1.7569    9.0476 C.2       2 RES2    0.0000
     70 H33        3.7057    1.8744    8.2182 H         2 RES2    0.0000
     71 H34        2.5951    1.1607    9.1406 H         2 RES2    0.0000
     72 N2         6.1436    5.9618   19.3578 N.pl3     2 RES2    0.0000
     73 O5         6.1603    5.0585   13.0832 O.3       2 RES2    0.0000
     74 O6         6.4054    7.2795   13.0883 O.2       2 RES2    0.0000
     75 O7         5.9530    4.8824   19.8806 O.2       2 RES2    0.0000
     76 O8         6.2830    6.9938   19.9781 O.2       2 RES2    0.0000
@<TRIPOS>BOND
     1    1    2 1
     2    3    1 1
     3    4    3 1
     4    5    3 2
     5    6    5 1
     6    7    6 1
     7    8    6 1
     8    9    6 1
     9   10    9 1
    10   11    9 1
    11   12    9 1
    12   13   12 1
    13   14   12 1
    14   15    1 1
    15   16   15 1
    16   17   15 1
    17   18   19 1
    18   19   20 ar
    19   20   21 1
    20   22   20 ar
    21   23   22 1
    22   24   22 ar
    23   25   24 ar
    24   26   25 1
    25   27   19 ar
    26   28   27 1
    27   29    5 1
    28   30   29 1
    29   31   29 2
    30   32   31 1
    31   33   31 1
    32   34   24 1
    33   35    1 1
    34   36   18 2
    35   37   34 2
    36   38   34 2
    37   39   40 1
    38   41   39 1
    39   42   41 1
    40   43   41 1
    41   44   41 1
    42   45   44 1
    43   46   44 1
    44   47   44 1
    45   48   47 1
    46   49   47 1
    47   50   47 1
    48   51   50 1
    49   52   50 1
    50   53   50 1
    51   54   39 1
    52   55   54 1
    53   56   57 1
    54   57   58 ar
    55   58   59 1
    56   60   58 ar
    57   61   60 1
    58   62   60 ar
    59   63   62 ar
    60   64   63 1
    61   65   57 ar
    62   66   65 1
    63   67   53 1
    64   68   67 1
    65   69   67 2
    66   70   69 1
    67   71   69 1
    68   72   62 1
    69   73   39 1
    70   74   56 2
    71   75   72 2
    72   76   72 2
    73   12   15 1
    74   18   35 1
    75   25   27 ar
    76   53   54 2
    77   56   73 1
    78   63   65 ar
@<TRIPOS>SUBSTRUCTURE
     1 RES1 1
     2 RES2 39

@<TRIPOS>CRYSIN
   6.9082   11.2913   19.3834  90.0000  91.3570  90.0000   4 1

