# MOL2 file generated by ConQuest
# Please check atom types

@<TRIPOS>MOLECULE
BUKNEA
    78    80     2
SMALL
NO_CHARGES
****
Generated from CSD

@<TRIPOS>ATOM
      1 N1        -2.2328    7.5913    2.0298 N.2       1 RES1    0.0000
      2 O1        -2.5939    8.7291    1.3411 O.3       1 RES1    0.0000
      3 O2        -0.3923    7.5367    5.0135 O.3       1 RES1    0.0000
      4 O3        -1.2669    5.7773    3.9402 O.2       1 RES1    0.0000
      5 O4         0.3381    8.5803    7.4456 O.3       1 RES1    0.0000
      6 O5         0.1991   11.3775    6.5384 O.3       1 RES1    0.0000
      7 O6        -0.8058   13.7774    4.0933 O.3       1 RES1    0.0000
      8 O7        -2.0609   11.9935    2.4713 O.3       1 RES1    0.0000
      9 O8        -2.8395   11.3926    0.4704 O.2       1 RES1    0.0000
     10 C1        -2.1371    9.7745    2.0420 C.2       1 RES1    0.0000
     11 C2        -1.4805    9.3469    3.1647 C.2       1 RES1    0.0000
     12 C3        -1.5629    7.9963    3.1143 C.2       1 RES1    0.0000
     13 C4        -1.0664    6.9320    4.0550 C.2       1 RES1    0.0000
     14 C5         0.1735    6.6702    6.0634 C.3       1 RES1    0.0000
     15 C6         1.0848    7.5386    6.8483 C.3       1 RES1    0.0000
     16 C7         1.1142    9.6766    7.9010 C.3       1 RES1    0.0000
     17 C8         1.3829   10.6956    6.8604 C.3       1 RES1    0.0000
     18 C9         0.3832   12.3081    5.4680 C.3       1 RES1    0.0000
     19 C10       -0.9568   12.9128    5.2085 C.3       1 RES1    0.0000
     20 C11       -2.0516   14.1221    3.4633 C.3       1 RES1    0.0000
     21 C12       -2.1813   13.4157    2.1568 C.3       1 RES1    0.0000
     22 C13       -2.4031   11.1232    1.5427 C.2       1 RES1    0.0000
     23 H1        -1.0019    9.9459    3.9197 H         1 RES1    0.0000
     24 H2         0.7166    5.8395    5.6276 H         1 RES1    0.0000
     25 H3        -0.6086    6.2916    6.7008 H         1 RES1    0.0000
     26 H4         1.8201    7.9681    6.1782 H         1 RES1    0.0000
     27 H5         1.5816    6.9697    7.6154 H         1 RES1    0.0000
     28 H6         0.5905   10.1531    8.7260 H         1 RES1    0.0000
     29 H7         2.0673    9.3055    8.2501 H         1 RES1    0.0000
     30 H8         1.7656   10.2097    5.9729 H         1 RES1    0.0000
     31 H9         2.1133   11.3964    7.2235 H         1 RES1    0.0000
     32 H10        1.0935   13.0729    5.7582 H         1 RES1    0.0000
     33 H11        0.7421   11.7920    4.5823 H         1 RES1    0.0000
     34 H12       -1.2837   13.4873    6.0662 H         1 RES1    0.0000
     35 H13       -1.6811   12.1499    4.9930 H         1 RES1    0.0000
     36 H14       -2.8628   13.8264    4.1064 H         1 RES1    0.0000
     37 H15       -2.0870   15.1826    3.3038 H         1 RES1    0.0000
     38 H16       -1.3884   13.7133    1.4839 H         1 RES1    0.0000
     39 H17       -3.1392   13.6192    1.7079 H         1 RES1    0.0000
     40 N2         6.1452   -0.9305    1.0229 N.2       2 RES2    0.0000
     41 O9         5.4631   -2.0871    1.3952 O.3       2 RES2    0.0000
     42 O10        5.2973    2.2642    2.1045 O.3       2 RES2    0.0000
     43 O11        6.7759    1.8065    0.5170 O.2       2 RES2    0.0000
     44 O12        3.2274    3.8427    2.6841 O.3       2 RES2    0.0000
     45 O13        1.0424    2.1964    4.1922 O.3       2 RES2    0.0000
     46 O14        0.4130   -0.6386    4.0466 O.3       2 RES2    0.0000
     47 O15        2.5519   -2.0419    3.3560 O.3       2 RES2    0.0000
     48 O16        3.4979   -3.8541    2.4685 O.2       2 RES2    0.0000
     49 C14        4.4337   -1.6784    2.1437 C.2       2 RES2    0.0000
     50 C15        4.4183   -0.3391    2.2697 C.2       2 RES2    0.0000
     51 C16        5.4883    0.0867    1.5604 C.2       2 RES2    0.0000
     52 C17        5.9917    1.4825    1.3066 C.2       2 RES2    0.0000
     53 C18        5.4473    3.7128    1.9533 C.3       2 RES2    0.0000
     54 C19        4.5312    4.2892    2.9836 C.3       2 RES2    0.0000
     55 C20        2.2681    4.1667    3.6687 C.3       2 RES2    0.0000
     56 C21        1.0399    3.3925    3.5147 C.3       2 RES2    0.0000
     57 C22       -0.2449    1.5277    4.1325 C.3       2 RES2    0.0000
     58 C23       -0.2166    0.2863    4.8595 C.3       2 RES2    0.0000
     59 C24        0.5966   -1.8347    4.5665 C.3       2 RES2    0.0000
     60 C25        1.4007   -2.7483    3.7797 C.3       2 RES2    0.0000
     61 C26        3.4740   -2.6899    2.6430 C.2       2 RES2    0.0000
     62 H18        3.7075    0.2637    2.8185 H         2 RES2    0.0000
     63 H19        6.4707    4.0123    2.1465 H         2 RES2    0.0000
     64 H20        5.1659    4.0311    0.9613 H         2 RES2    0.0000
     65 H21        4.5633    5.3685    2.9304 H         2 RES2    0.0000
     66 H22        4.8221    3.9746    3.9757 H         2 RES2    0.0000
     67 H23        2.6902    3.9558    4.6383 H         2 RES2    0.0000
     68 H24        2.0385    5.2178    3.6117 H         2 RES2    0.0000
     69 H25        0.8869    3.2023    2.4638 H         2 RES2    0.0000
     70 H26        0.2204    3.9934    3.8917 H         2 RES2    0.0000
     71 H27       -0.4707    1.2998    3.0984 H         2 RES2    0.0000
     72 H28       -1.0106    2.1663    4.5357 H         2 RES2    0.0000
     73 H29       -1.2189   -0.0377    5.0956 H         2 RES2    0.0000
     74 H30        0.3502    0.4144    5.7676 H         2 RES2    0.0000
     75 H31        1.0416   -1.7142    5.5436 H         2 RES2    0.0000
     76 H32       -0.3839   -2.2793    4.6663 H         2 RES2    0.0000
     77 H33        0.8537   -3.1081    2.9211 H         2 RES2    0.0000
     78 H34        1.6960   -3.5790    4.4050 H         2 RES2    0.0000
@<TRIPOS>BOND
     1    1    2 1
     2    2   10 1
     3    3   13 1
     4    4   13 2
     5    5   15 1
     6    6   17 1
     7    7   19 1
     8    8   21 1
     9    9   22 2
    10   10   11 2
    11   11   12 1
    12   12    1 2
    13   13   12 1
    14   14    3 1
    15   15   14 1
    16   16    5 1
    17   17   16 1
    18   18    6 1
    19   19   18 1
    20   20    7 1
    21   21   20 1
    22   22    8 1
    23   23   11 1
    24   24   14 1
    25   25   14 1
    26   26   15 1
    27   27   15 1
    28   28   16 1
    29   29   16 1
    30   30   17 1
    31   31   17 1
    32   32   18 1
    33   33   18 1
    34   34   19 1
    35   35   19 1
    36   36   20 1
    37   37   20 1
    38   38   21 1
    39   39   21 1
    40   40   41 1
    41   41   49 1
    42   42   52 1
    43   43   52 2
    44   44   54 1
    45   45   56 1
    46   46   58 1
    47   47   60 1
    48   48   61 2
    49   49   50 2
    50   50   51 1
    51   51   40 2
    52   52   51 1
    53   53   42 1
    54   54   53 1
    55   55   44 1
    56   56   55 1
    57   57   45 1
    58   58   57 1
    59   59   46 1
    60   60   59 1
    61   61   47 1
    62   62   50 1
    63   63   53 1
    64   64   53 1
    65   65   54 1
    66   66   54 1
    67   67   55 1
    68   68   55 1
    69   69   56 1
    70   70   56 1
    71   71   57 1
    72   72   57 1
    73   73   58 1
    74   74   58 1
    75   75   59 1
    76   76   59 1
    77   77   60 1
    78   78   60 1
    79   10   22 1
    80   49   61 1
@<TRIPOS>SUBSTRUCTURE
     1 RES1 1
     2 RES2 40

@<TRIPOS>CRYSIN
   8.6130   18.8370    9.6910  90.0000 105.6300  90.0000   7 1

