# MOL2 file generated by ConQuest
# Please check atom types

@<TRIPOS>MOLECULE
BUKQUU
   120   124     4
SMALL
NO_CHARGES
****
Generated from CSD

@<TRIPOS>ATOM
      1 O1         5.3226    5.3102    2.9020 O.3       1 RES1    0.0000
      2 O2         4.5971    2.8972    6.5792 O.3       1 RES1    0.0000
      3 O3         3.6872    5.5953    6.7609 O.2       1 RES1    0.0000
      4 O4         6.8011    2.6062    8.3003 O.2       1 RES1    0.0000
      5 N1         5.7979    4.4096    3.8604 N.2       1 RES1    0.0000
      6 N2         5.2144    3.9283    7.2644 N.am      1 RES1    0.0000
      7 C1         6.4046    6.1320    2.4553 C.3       1 RES1    0.0000
      8 H1         6.0951    6.7113    1.7274 H         1 RES1    0.0000
      9 H2         7.1338    5.5630    2.1330 H         1 RES1    0.0000
     10 H3         6.7239    6.6826    3.1995 H         1 RES1    0.0000
     11 C2         4.8388    3.6653    4.2955 C.2       1 RES1    0.0000
     12 C3         3.4283    3.7144    3.8702 C.3       1 RES1    0.0000
     13 H4         3.3818    3.9419    2.9182 H         1 RES1    0.0000
     14 H5         2.9536    4.3958    4.3904 H         1 RES1    0.0000
     15 H6         3.0119    2.8407    4.0174 H         1 RES1    0.0000
     16 C4         5.2837    2.6712    5.3097 C.3       1 RES1    0.0000
     17 H7         5.0888    1.7558    4.9842 H         1 RES1    0.0000
     18 H8         6.2617    2.7482    5.4422 H         1 RES1    0.0000
     19 C5         4.6481    5.1894    7.3871 C.2       1 RES1    0.0000
     20 C6         6.2358    3.6751    8.1903 C.2       1 RES1    0.0000
     21 C7         5.4754    5.8534    8.4193 C.ar      1 RES1    0.0000
     22 C8         6.4109    4.9554    8.9051 C.ar      1 RES1    0.0000
     23 C9         5.4040    7.1516    8.8953 C.ar      1 RES1    0.0000
     24 H9         4.7721    7.7740    8.5534 H         1 RES1    0.0000
     25 C10        7.3120    5.3088    9.8914 C.ar      1 RES1    0.0000
     26 H10        7.9598    4.6925   10.2121 H         1 RES1    0.0000
     27 C11        6.3046    7.5025    9.9013 C.ar      1 RES1    0.0000
     28 H11        6.2813    8.3821   10.2595 H         1 RES1    0.0000
     29 C12        7.2300    6.6020   10.3920 C.ar      1 RES1    0.0000
     30 H12        7.8226    6.8727   11.0839 H         1 RES1    0.0000
     31 O5        10.6322    9.0706   -0.7960 O.3       2 RES2    0.0000
     32 O6         9.7524    6.0902    2.4574 O.3       2 RES2    0.0000
     33 O7         9.1682    8.7593    3.3183 O.2       2 RES2    0.0000
     34 O8        12.0214    5.2166    3.8473 O.2       2 RES2    0.0000
     35 N3        11.0207    7.9116   -0.0949 N.2       2 RES2    0.0000
     36 N4        10.5426    6.8863    3.2552 N.am      2 RES2    0.0000
     37 C13       11.8091    9.7047   -1.3266 C.3       2 RES2    0.0000
     38 H13       12.2808    9.0775   -1.9138 H         2 RES2    0.0000
     39 H14       12.3994    9.9679   -0.5889 H         2 RES2    0.0000
     40 H15       11.5488   10.4996   -1.8386 H         2 RES2    0.0000
     41 C14        9.9969    7.2937    0.3517 C.2       2 RES2    0.0000
     42 C15        8.5900    7.7450    0.1718 C.3       2 RES2    0.0000
     43 H16        8.3690    7.7527   -0.7819 H         2 RES2    0.0000
     44 H17        8.4871    8.6480    0.5382 H         2 RES2    0.0000
     45 H18        7.9882    7.1308    0.6429 H         2 RES2    0.0000
     46 C16       10.2760    6.0412    1.0943 C.3       2 RES2    0.0000
     47 H19        9.8655    5.2786    0.6150 H         2 RES2    0.0000
     48 H20       11.2533    5.8901    1.1254 H         2 RES2    0.0000
     49 C17       10.1417    8.1489    3.7148 C.2       2 RES2    0.0000
     50 C18       11.5819    6.3290    3.9945 C.2       2 RES2    0.0000
     51 C19       11.1442    8.4936    4.7519 C.ar      2 RES2    0.0000
     52 C20       11.9900    7.4097    4.9269 C.ar      2 RES2    0.0000
     53 C21       11.3115    9.6719    5.4618 C.ar      2 RES2    0.0000
     54 H21       10.7337   10.4142    5.3326 H         2 RES2    0.0000
     55 C22       13.0277    7.4403    5.8348 C.ar      2 RES2    0.0000
     56 H22       13.5992    6.6907    5.9574 H         2 RES2    0.0000
     57 C23       12.3614    9.7185    6.3713 C.ar      2 RES2    0.0000
     58 H23       12.5093   10.5154    6.8686 H         2 RES2    0.0000
     59 C24       13.2059    8.6235    6.5708 C.ar      2 RES2    0.0000
     60 H24       13.9052    8.6794    7.2104 H         2 RES2    0.0000
     61 O9         3.8186    9.8372    9.5406 O.3       3 RES3    0.0000
     62 O10        4.7269   11.9633    5.6619 O.3       3 RES3    0.0000
     63 O11        2.7621   12.4540    3.7269 O.2       3 RES3    0.0000
     64 O12        5.2861    9.1445    5.6470 O.2       3 RES3    0.0000
     65 N5         3.3812   10.6974    8.5190 N.2       3 RES3    0.0000
     66 N6         4.0658   10.9827    4.9449 N.am      3 RES3    0.0000
     67 C25        2.6714    9.3733   10.2677 C.3       3 RES3    0.0000
     68 H25        2.0171    9.0005    9.6412 H         3 RES3    0.0000
     69 H26        2.2685   10.1224   10.7535 H         3 RES3    0.0000
     70 H27        2.9468    8.6812   10.9040 H         3 RES3    0.0000
     71 C26        4.3845   11.3057    7.9776 C.2       3 RES3    0.0000
     72 C27        5.7981   11.1598    8.3473 C.3       3 RES3    0.0000
     73 H28        5.8711   11.0207    9.3140 H         3 RES3    0.0000
     74 H29        6.2869   11.9711    8.0954 H         3 RES3    0.0000
     75 H30        6.1806   10.3897    7.8762 H         3 RES3    0.0000
     76 C28        4.0005   12.2644    6.8996 C.3       3 RES3    0.0000
     77 H31        3.0266   12.2047    6.7344 H         3 RES3    0.0000
     78 H32        4.2078   13.1885    7.1892 H         3 RES3    0.0000
     79 C29        3.1552   11.3369    3.9405 C.2       3 RES3    0.0000
     80 C30        4.4547    9.6452    4.9285 C.2       3 RES3    0.0000
     81 C31        2.8371   10.0429    3.2911 C.ar      3 RES3    0.0000
     82 C32        3.6016    9.0402    3.8751 C.ar      3 RES3    0.0000
     83 C33        1.9380    9.7485    2.2786 C.ar      3 RES3    0.0000
     84 H33        1.4107   10.4277    1.8746 H         3 RES3    0.0000
     85 C34        3.4864    7.7270    3.4825 C.ar      3 RES3    0.0000
     86 H34        3.9971    7.0417    3.8964 H         3 RES3    0.0000
     87 C35        1.8376    8.4207    1.8729 C.ar      3 RES3    0.0000
     88 H35        1.2329    8.1880    1.1794 H         3 RES3    0.0000
     89 C36        2.5987    7.4450    2.4618 C.ar      3 RES3    0.0000
     90 H36        2.5143    6.5480    2.1592 H         3 RES3    0.0000
     91 O13        8.4875    0.0410    5.0242 O.3       4 RES4    0.0000
     92 O14        9.7256    2.6831    1.5383 O.3       4 RES4    0.0000
     93 O15        7.7328    3.9599    0.0275 O.2       4 RES4    0.0000
     94 O16        9.7062   -0.0773    0.8442 O.2       4 RES4    0.0000
     95 N7         8.3030    1.2357    4.2985 N.2       4 RES4    0.0000
     96 N8         8.7548    2.0330    0.7950 N.am      4 RES4    0.0000
     97 C37        7.3227   -0.1922    5.8429 C.3       4 RES4    0.0000
     98 H37        7.2258    0.5380    6.4891 H         4 RES4    0.0000
     99 H38        7.4241   -1.0411    6.3222 H         4 RES4    0.0000
    100 H39        6.5251   -0.2324    5.2737 H         4 RES4    0.0000
    101 C38        9.3890    1.5715    3.6985 C.2       4 RES4    0.0000
    102 C39       10.6720    0.8258    3.7688 C.3       4 RES4    0.0000
    103 H40       11.3374    1.2646    3.2012 H         4 RES4    0.0000
    104 H41       10.5323   -0.0933    3.4596 H         4 RES4    0.0000
    105 H42       10.9910    0.8121    4.6963 H         4 RES4    0.0000
    106 C40        9.3044    2.8462    2.9296 C.3       4 RES4    0.0000
    107 H43        8.3722    3.1765    2.9509 H         4 RES4    0.0000
    108 H44        9.8776    3.5267    3.3648 H         4 RES4    0.0000
    109 C41        7.8847    2.7613   -0.0311 C.2       4 RES4    0.0000
    110 C42        8.8954    0.6928    0.3975 C.2       4 RES4    0.0000
    111 C43        7.2691    1.7369   -0.8915 C.ar      4 RES4    0.0000
    112 C44        7.8479    0.5128   -0.6330 C.ar      4 RES4    0.0000
    113 C45        6.2417    1.8807   -1.8157 C.ar      4 RES4    0.0000
    114 H45        5.8616    2.7300   -2.0071 H         4 RES4    0.0000
    115 C46        7.4305   -0.6437   -1.2677 C.ar      4 RES4    0.0000
    116 H46        7.8371   -1.4843   -1.0927 H         4 RES4    0.0000
    117 C47        5.7930    0.7218   -2.4504 C.ar      4 RES4    0.0000
    118 H47        5.0784    0.7740   -3.0752 H         4 RES4    0.0000
    119 C48        6.3782   -0.5072   -2.1805 C.ar      4 RES4    0.0000
    120 H48        6.0552   -1.2798   -2.6270 H         4 RES4    0.0000
@<TRIPOS>BOND
     1    1    5 1
     2    2    6 1
     3    3   19 2
     4    4   20 2
     5    5   11 2
     6    6   19 1
     7    7    1 1
     8    8    7 1
     9    9    7 1
    10   10    7 1
    11   11   12 1
    12   12   13 1
    13   14   12 1
    14   15   12 1
    15   16    2 1
    16   17   16 1
    17   18   16 1
    18   19   21 1
    19   20    6 1
    20   21   22 ar
    21   22   20 1
    22   23   21 ar
    23   24   23 1
    24   25   22 ar
    25   26   25 1
    26   27   23 ar
    27   28   27 1
    28   29   25 ar
    29   30   29 1
    30   31   35 1
    31   32   36 1
    32   33   49 2
    33   34   50 2
    34   35   41 2
    35   36   49 1
    36   37   31 1
    37   38   37 1
    38   39   37 1
    39   40   37 1
    40   41   42 1
    41   42   43 1
    42   44   42 1
    43   45   42 1
    44   46   32 1
    45   47   46 1
    46   48   46 1
    47   49   51 1
    48   50   36 1
    49   51   52 ar
    50   52   50 1
    51   53   51 ar
    52   54   53 1
    53   55   52 ar
    54   56   55 1
    55   57   53 ar
    56   58   57 1
    57   59   55 ar
    58   60   59 1
    59   61   65 1
    60   62   66 1
    61   63   79 2
    62   64   80 2
    63   65   71 2
    64   66   79 1
    65   67   61 1
    66   68   67 1
    67   69   67 1
    68   70   67 1
    69   71   72 1
    70   72   73 1
    71   74   72 1
    72   75   72 1
    73   76   62 1
    74   77   76 1
    75   78   76 1
    76   79   81 1
    77   80   66 1
    78   81   82 ar
    79   82   80 1
    80   83   81 ar
    81   84   83 1
    82   85   82 ar
    83   86   85 1
    84   87   83 ar
    85   88   87 1
    86   89   85 ar
    87   90   89 1
    88   91   95 1
    89   92   96 1
    90   93  109 2
    91   94  110 2
    92   95  101 2
    93   96  109 1
    94   97   91 1
    95   98   97 1
    96   99   97 1
    97  100   97 1
    98  101  102 1
    99  102  103 1
   100  104  102 1
   101  105  102 1
   102  106   92 1
   103  107  106 1
   104  108  106 1
   105  109  111 1
   106  110   96 1
   107  111  112 ar
   108  112  110 1
   109  113  111 ar
   110  114  113 1
   111  115  112 ar
   112  116  115 1
   113  117  113 ar
   114  118  117 1
   115  119  115 ar
   116  120  119 1
   117   11   16 1
   118   27   29 ar
   119   41   46 1
   120   57   59 ar
   121   71   76 1
   122   87   89 ar
   123  101  106 1
   124  117  119 ar
@<TRIPOS>SUBSTRUCTURE
     1 RES1 1
     2 RES2 31
     3 RES3 61
     4 RES4 91

@<TRIPOS>CRYSIN
  11.9651   12.3116   16.5940  89.5011  80.3186  86.0787   2 1

