# MOL2 file generated by ConQuest
# Please check atom types

@<TRIPOS>MOLECULE
BUKXUA
    66    66     1
SMALL
NO_CHARGES
****
Generated from CSD

@<TRIPOS>ATOM
      1 C1         0.2915    6.7608   12.7786 C.ar      1 RES1    0.0000
      2 C2         1.4065    7.3187   13.4372 C.ar      1 RES1    0.0000
      3 C3         1.2485    8.1835   14.5139 C.ar      1 RES1    0.0000
      4 C4        -0.0175    8.5019   14.9211 C.ar      1 RES1    0.0000
      5 C5        -1.1500    8.0205   14.2625 C.ar      1 RES1    0.0000
      6 C6        -1.0031    7.1646   13.2213 C.ar      1 RES1    0.0000
      7 N1         2.7718    7.0270   13.0054 N.pl3     1 RES1    0.0000
      8 N2        -0.1715    9.4254   16.0443 N.pl3     1 RES1    0.0000
      9 O1         2.9783    6.1864   12.1391 O.2       1 RES1    0.0000
     10 O2         3.6692    7.6639   13.5520 O.2       1 RES1    0.0000
     11 O3         0.8228    9.8126   16.6346 O.2       1 RES1    0.0000
     12 O4        -1.3231    9.7718   16.3558 O.2       1 RES1    0.0000
     13 C7        -2.0173    4.1433    9.6386 C.3       1 RES1    0.0000
     14 O5        -2.1443    4.5637    8.2640 O.3       1 RES1    0.0000
     15 C8        -1.9093    3.6453    7.3048 C.2       1 RES1    0.0000
     16 O6        -1.5598    2.5321    7.5371 O.2       1 RES1    0.0000
     17 C9        -2.0935    4.2491    5.9548 C.3       1 RES1    0.0000
     18 C10       -0.6814    4.5968   10.1742 C.2       1 RES1    0.0000
     19 N3         0.4177    5.9125   11.6964 N.pl3     1 RES1    0.0000
     20 N4        -0.7529    5.4540   11.1225 N.2       1 RES1    0.0000
     21 C11        0.5647    3.9306    9.5593 C.3       1 RES1    0.0000
     22 O7         1.6734    4.8388    9.5265 O.3       1 RES1    0.0000
     23 C12        1.7639    5.6259    8.4116 C.2       1 RES1    0.0000
     24 O8         0.9387    5.5444    7.5425 O.2       1 RES1    0.0000
     25 C13        2.9052    6.5379    8.4580 C.3       1 RES1    0.0000
     26 C14        0.9515    2.6671   10.2945 C.3       1 RES1    0.0000
     27 O9         1.3255    3.0136   11.6472 O.3       1 RES1    0.0000
     28 C15        0.6997    2.3423   12.6447 C.2       1 RES1    0.0000
     29 O10        0.0111    1.3947   12.4370 O.2       1 RES1    0.0000
     30 C16        1.0841    2.8862   13.9728 C.3       1 RES1    0.0000
     31 C17        2.1261    1.9449    9.6331 C.3       1 RES1    0.0000
     32 O11        1.6766    1.5819    8.3132 O.3       1 RES1    0.0000
     33 C18        2.2635    2.1500    7.2474 C.2       1 RES1    0.0000
     34 O12        3.1649    2.9257    7.3512 O.2       1 RES1    0.0000
     35 C19        1.6353    1.7004    5.9739 C.3       1 RES1    0.0000
     36 C20        2.4993    0.6700   10.3628 C.3       1 RES1    0.0000
     37 O13        3.6065    0.0166    9.7014 O.3       1 RES1    0.0000
     38 C21        4.8383    0.4012   10.1059 C.2       1 RES1    0.0000
     39 O14        5.0233    1.2202   10.9531 O.2       1 RES1    0.0000
     40 C22        5.9041   -0.3388    9.3735 C.3       1 RES1    0.0000
     41 H1         2.0411    8.5593   14.9757 H         1 RES1    0.0000
     42 H2        -2.1126    8.3300   14.5385 H         1 RES1    0.0000
     43 H3        -1.8425    7.0054   12.5709 H         1 RES1    0.0000
     44 H4        -2.7479    4.5344   10.1933 H         1 RES1    0.0000
     45 H5        -2.0649    3.1333    9.6741 H         1 RES1    0.0000
     46 H6        -1.6678    3.5281    5.4656 H         1 RES1    0.0000
     47 H7        -3.0338    4.4197    5.6842 H         1 RES1    0.0000
     48 H8        -1.5725    5.1330    5.8482 H         1 RES1    0.0000
     49 H9         1.0483    5.4132   11.8330 H         1 RES1    0.0000
     50 H10        0.3574    3.6937    8.5537 H         1 RES1    0.0000
     51 H11        3.0577    7.0436    7.5972 H         1 RES1    0.0000
     52 H12        2.8035    7.2474    9.2095 H         1 RES1    0.0000
     53 H13        3.7804    6.0246    8.6356 H         1 RES1    0.0000
     54 H14        0.0794    2.0761   10.2480 H         1 RES1    0.0000
     55 H15        1.5884    3.7319   13.8553 H         1 RES1    0.0000
     56 H16        0.2621    3.0951   14.5112 H         1 RES1    0.0000
     57 H17        1.6519    2.2417   14.4565 H         1 RES1    0.0000
     58 H18        2.9147    2.5601    9.6468 H         1 RES1    0.0000
     59 H19        0.9928    2.3818    5.7935 H         1 RES1    0.0000
     60 H20        2.3032    1.6558    5.1377 H         1 RES1    0.0000
     61 H21        1.1357    0.7642    6.0122 H         1 RES1    0.0000
     62 H22        2.7479    0.8916   11.3411 H         1 RES1    0.0000
     63 H23        1.6440    0.0382   10.3300 H         1 RES1    0.0000
     64 H24        5.7182   -1.2737    9.1549 H         1 RES1    0.0000
     65 H25        6.1153    0.1019    8.4444 H         1 RES1    0.0000
     66 H26        6.8063   -0.3312    9.8381 H         1 RES1    0.0000
@<TRIPOS>BOND
     1    1    2 ar
     2    2    3 ar
     3    3    4 ar
     4    4    5 ar
     5    5    6 ar
     6    6    1 ar
     7    7    2 1
     8    8    4 1
     9    9    7 2
    10   10    7 2
    11   11    8 2
    12   12    8 2
    13   13   14 1
    14   14   15 1
    15   15   16 2
    16   17   15 1
    17   18   13 1
    18   19    1 1
    19   20   18 2
    20   21   18 1
    21   22   21 1
    22   23   22 1
    23   24   23 2
    24   25   23 1
    25   26   21 1
    26   27   26 1
    27   28   27 1
    28   29   28 2
    29   30   28 1
    30   31   26 1
    31   32   31 1
    32   33   32 1
    33   34   33 2
    34   35   33 1
    35   36   31 1
    36   37   36 1
    37   38   37 1
    38   39   38 2
    39   40   38 1
    40   41    3 1
    41   42    5 1
    42   43    6 1
    43   44   13 1
    44   45   13 1
    45   46   17 1
    46   47   17 1
    47   48   17 1
    48   49   19 1
    49   50   21 1
    50   51   25 1
    51   52   25 1
    52   53   25 1
    53   54   26 1
    54   55   30 1
    55   56   30 1
    56   57   30 1
    57   58   31 1
    58   59   35 1
    59   60   35 1
    60   61   35 1
    61   62   36 1
    62   63   36 1
    63   64   40 1
    64   65   40 1
    65   66   40 1
    66   19   20 1
@<TRIPOS>SUBSTRUCTURE
     1 RES1 1

@<TRIPOS>CRYSIN
   7.9420   12.7370   27.3280  90.0000  90.0000  90.0000  19 1

