# MOL2 file generated by ConQuest
# Please check atom types

@<TRIPOS>MOLECULE
BULJEX
    17    18     1
SMALL
NO_CHARGES
****
Generated from CSD

@<TRIPOS>ATOM
      1 N1         7.5910    3.0631    4.4551 N.2       1 RES1    0.0000
      2 N2         8.7326    2.5581    4.5319 N.2       1 RES1    0.0000
      3 N3         9.1256    1.7327    3.5170 N.am      1 RES1    0.0000
      4 O1        10.3462    1.1604    3.7376 O.3       1 RES1    0.0000
      5 C1         8.4165    1.3496    2.4168 C.2       1 RES1    0.0000
      6 O2         8.8670    0.5358    1.6247 O.2       1 RES1    0.0000
      7 C2         7.1268    1.9489    2.3432 C.ar      1 RES1    0.0000
      8 C3         6.2506    1.7482    1.2697 C.ar      1 RES1    0.0000
      9 C4         5.0434    2.3368    1.2740 C.ar      1 RES1    0.0000
     10 C5         4.6555    3.1772    2.3123 C.ar      1 RES1    0.0000
     11 C6         5.4973    3.3882    3.3720 C.ar      1 RES1    0.0000
     12 C7         6.7401    2.8018    3.3762 C.ar      1 RES1    0.0000
     13 H1         6.5402    1.1068    0.4584 H         1 RES1    0.0000
     14 H2         4.3769    2.1622    0.4477 H         1 RES1    0.0000
     15 H3         3.6911    3.6680    2.2814 H         1 RES1    0.0000
     16 H4         5.1787    3.9940    4.2110 H         1 RES1    0.0000
     17 H5        11.1268    1.7289    3.7312 H         1 RES1    0.0000
@<TRIPOS>BOND
     1    1    2 2
     2    2    3 1
     3    3    4 1
     4    4   17 1
     5    5    3 1
     6    6    5 2
     7    7    5 1
     8    8    7 ar
     9    9    8 ar
    10   10    9 ar
    11   11   10 ar
    12   12    1 1
    13   13    8 1
    14   14    9 1
    15   15   10 1
    16   16   11 1
    17    7   12 ar
    18   11   12 ar
@<TRIPOS>SUBSTRUCTURE
     1 RES1 1

@<TRIPOS>CRYSIN
  15.0400    4.2900   10.9500  90.0000 103.2000  90.0000 231 1

