# MOL2 file generated by ConQuest
# Please check atom types

@<TRIPOS>MOLECULE
BUMDOX
    44    45     1
SMALL
NO_CHARGES
****
Generated from CSD

@<TRIPOS>ATOM
      1 O1        -1.0541    5.3275    6.6971 O.3       1 RES1    0.0000
      2 N1        -0.0318    4.8889    5.8190 N.2       1 RES1    0.0000
      3 C1        -0.0542    3.6343    5.5843 C.2       1 RES1    0.0000
      4 C2        -1.0822    2.7034    6.1583 C.3       1 RES1    0.0000
      5 C3        -1.6279    1.7711    5.0784 C.3       1 RES1    0.0000
      6 C4        -0.5028    1.0640    4.3609 C.3       1 RES1    0.0000
      7 C5         1.6129    1.2711    2.9880 C.3       1 RES1    0.0000
      8 C6         2.6409    0.6215    3.9183 C.3       1 RES1    0.0000
      9 C7         3.1829    1.6842    4.8595 C.3       1 RES1    0.0000
     10 C8         2.0933    2.4080    5.6245 C.3       1 RES1    0.0000
     11 C9         1.0560    3.0742    4.7039 C.3       1 RES1    0.0000
     12 C10        0.4897    2.0218    3.7115 C.3       1 RES1    0.0000
     13 C11        1.6989    4.2175    3.9061 C.3       1 RES1    0.0000
     14 C12        3.7268   -0.2084    3.1740 C.3       1 RES1    0.0000
     15 C13        4.7117   -0.8005    4.1895 C.3       1 RES1    0.0000
     16 C14        4.4931    0.6432    2.1634 C.3       1 RES1    0.0000
     17 C15        3.0577   -1.3785    2.4504 C.3       1 RES1    0.0000
     18 H1        -0.8728    6.3224    6.9245 H         1 RES1    0.0000
     19 H2        -0.6280    2.1126    6.9403 H         1 RES1    0.0000
     20 H3        -1.8952    3.2827    6.5706 H         1 RES1    0.0000
     21 H4        -2.1942    2.3504    4.3634 H         1 RES1    0.0000
     22 H5        -2.2727    1.0358    5.5369 H         1 RES1    0.0000
     23 H6         0.0318    0.4540    5.0760 H         1 RES1    0.0000
     24 H7        -0.9233    0.4335    3.5924 H         1 RES1    0.0000
     25 H8         2.1307    1.9706    2.3483 H         1 RES1    0.0000
     26 H9         1.1663    0.4949    2.3848 H         1 RES1    0.0000
     27 H10        2.1437   -0.1279    4.5166 H         1 RES1    0.0000
     28 H11        3.8557    1.2085    5.5697 H         1 RES1    0.0000
     29 H12        3.7492    2.4067    4.2807 H         1 RES1    0.0000
     30 H13        1.7625    1.6931    6.2532 H         1 RES1    0.0000
     31 H14        2.5456    3.1842    6.2398 H         1 RES1    0.0000
     32 H15       -0.0710    2.5742    2.9709 H         1 RES1    0.0000
     33 H16        2.4858    3.8223    3.2823 H         1 RES1    0.0000
     34 H17        2.1120    4.9438    4.5896 H         1 RES1    0.0000
     35 H18        0.9513    4.6894    3.2871 H         1 RES1    0.0000
     36 H19        5.2033   -0.0013    4.7221 H         1 RES1    0.0000
     37 H20        5.4481   -1.3952    3.6714 H         1 RES1    0.0000
     38 H21        4.1753   -1.4233    4.8912 H         1 RES1    0.0000
     39 H22        3.8034    1.0614    1.4472 H         1 RES1    0.0000
     40 H23        5.2164    0.0256    1.6502 H         1 RES1    0.0000
     41 H24        4.9996    1.4412    2.6803 H         1 RES1    0.0000
     42 H25        2.3549   -0.9987    1.7244 H         1 RES1    0.0000
     43 H26        2.5362   -1.9962    3.1679 H         1 RES1    0.0000
     44 H27        3.8109   -1.9681    1.9482 H         1 RES1    0.0000
@<TRIPOS>BOND
     1    1    2 1
     2    2    3 2
     3    3    4 1
     4    4    5 1
     5    5    6 1
     6    6   12 1
     7    7    8 1
     8    8    9 1
     9    9   10 1
    10   10   11 1
    11   11    3 1
    12   12    7 1
    13   13   11 1
    14   14    8 1
    15   15   14 1
    16   16   14 1
    17   17   14 1
    18   18    1 1
    19   19    4 1
    20   20    4 1
    21   21    5 1
    22   22    5 1
    23   23    6 1
    24   24    6 1
    25   25    7 1
    26   26    7 1
    27   27    8 1
    28   28    9 1
    29   29    9 1
    30   30   10 1
    31   31   10 1
    32   32   12 1
    33   33   13 1
    34   34   13 1
    35   35   13 1
    36   36   15 1
    37   37   15 1
    38   38   15 1
    39   39   16 1
    40   40   16 1
    41   41   16 1
    42   42   17 1
    43   43   17 1
    44   44   17 1
    45   11   12 1
@<TRIPOS>SUBSTRUCTURE
     1 RES1 1

@<TRIPOS>CRYSIN
  18.6900   12.7880   12.1610  90.0000  90.0000  90.0000  56 1

