# MOL2 file generated by ConQuest
# Please check atom types

@<TRIPOS>MOLECULE
BUMJAU
    27    29     1
SMALL
NO_CHARGES
****
Generated from CSD

@<TRIPOS>ATOM
      1 C1         3.4734   -0.8229    1.3180 C.ar      1 RES1    0.0000
      2 C2         2.4319   -1.4586    0.7270 C.ar      1 RES1    0.0000
      3 C3         1.1248   -1.1653    1.1085 C.ar      1 RES1    0.0000
      4 C4         0.9120   -0.2713    2.0761 C.ar      1 RES1    0.0000
      5 C5         2.2152    2.8381    5.3589 C.ar      1 RES1    0.0000
      6 C6         3.1681    3.5779    6.0105 C.ar      1 RES1    0.0000
      7 C7         4.5030    3.3897    5.7502 C.ar      1 RES1    0.0000
      8 C8         4.9167    2.4867    4.8300 C.ar      1 RES1    0.0000
      9 C9         4.3695    0.7618    3.0847 C.ar      1 RES1    0.0000
     10 N1         1.6178    1.2273    3.7167 N.ar      1 RES1    0.0000
     11 C10        3.3465    0.1141    2.3643 C.ar      1 RES1    0.0000
     12 C11        1.9733    0.3774    2.7425 C.ar      1 RES1    0.0000
     13 C12        3.9823    1.7079    4.0867 C.ar      1 RES1    0.0000
     14 C13        2.6024    1.8951    4.3650 C.ar      1 RES1    0.0000
     15 N2         4.7806   -1.1803    0.7188 N.pl3     1 RES1    0.0000
     16 N3         5.6754    0.5396    2.8735 N.3       1 RES1    0.0000
     17 O1         5.3846   -0.2162    0.2292 O.2       1 RES1    0.0000
     18 O2         5.1150   -2.3386    0.6828 O.2       1 RES1    0.0000
     19 H1         2.5773   -2.1023   -0.0327 H         1 RES1    0.0000
     20 H2         0.2115   -1.5717    0.8350 H         1 RES1    0.0000
     21 H3         0.1454   -0.0400    2.3413 H         1 RES1    0.0000
     22 H4         1.1763    2.9332    5.5996 H         1 RES1    0.0000
     23 H5         2.8681    4.2847    6.5492 H         1 RES1    0.0000
     24 H6         5.0225    3.9644    6.2054 H         1 RES1    0.0000
     25 H7         5.9080    2.2425    4.7645 H         1 RES1    0.0000
     26 H8         6.3309    0.9410    3.3565 H         1 RES1    0.0000
     27 H9         5.9477    0.0300    2.1285 H         1 RES1    0.0000
@<TRIPOS>BOND
     1    1    2 ar
     2    2    3 ar
     3    3    4 ar
     4    4   12 ar
     5    5    6 ar
     6    6    7 ar
     7    7    8 ar
     8    8   13 ar
     9    9   11 ar
    10   10   12 ar
    11   11    1 ar
    12   12   11 ar
    13   13    9 ar
    14   14    5 ar
    15   15    1 1
    16   16    9 1
    17   17   15 2
    18   18   15 2
    19   19    2 1
    20   20    3 1
    21   21    4 1
    22   22    5 1
    23   23    6 1
    24   24    7 1
    25   25    8 1
    26   26   16 1
    27   27   16 1
    28   10   14 ar
    29   13   14 ar
@<TRIPOS>SUBSTRUCTURE
     1 RES1 1

@<TRIPOS>CRYSIN
  13.2170   10.0110   16.3730  90.0000  90.0000  90.0000  61 1

