# MOL2 file generated by ConQuest
# Please check atom types

@<TRIPOS>MOLECULE
BUNCIW
    35    35     1
SMALL
NO_CHARGES
****
Generated from CSD

@<TRIPOS>ATOM
      1 C1        -1.6112    1.8711    6.3048 C.2       1 RES1    0.0000
      2 C2        -2.2277    2.7547    5.0819 C.3       1 RES1    0.0000
      3 C3        -1.5628    4.1061    5.0344 C.2       1 RES1    0.0000
      4 C4        -0.4110    4.3920    5.6162 C.2       1 RES1    0.0000
      5 C5         0.3404    3.4174    6.5423 C.3       1 RES1    0.0000
      6 C6        -0.0522    1.9491    6.3761 C.3       1 RES1    0.0000
      7 C7         0.6198    1.3644    5.1769 C.3       1 RES1    0.0000
      8 C8         0.3091    1.2214    7.7297 C.3       1 RES1    0.0000
      9 C9        -2.2691    1.9361    3.7876 C.3       1 RES1    0.0000
     10 C10        1.7954    3.7033    6.4948 C.3       1 RES1    0.0000
     11 N1        -3.6348    2.9886    5.6162 N.pl3     1 RES1    0.0000
     12 N2        -2.2436    5.0807    4.1557 N.pl3     1 RES1    0.0000
     13 N3         0.3072    5.7044    5.3787 N.pl3     1 RES1    0.0000
     14 N4        -0.2498    3.9269    7.9433 N.pl3     1 RES1    0.0000
     15 O1        -2.3069    1.1825    6.8748 O.2       1 RES1    0.0000
     16 O2        -4.5299    2.1570    5.4143 O.2       1 RES1    0.0000
     17 O3        -3.8713    3.9762    6.2811 O.2       1 RES1    0.0000
     18 O4        -2.9899    4.6519    3.3246 O.2       1 RES1    0.0000
     19 O5        -2.0608    6.2371    4.3457 O.2       1 RES1    0.0000
     20 O6         0.7392    5.8993    4.3813 O.2       1 RES1    0.0000
     21 O7         0.1738    6.3151    6.3998 O.2       1 RES1    0.0000
     22 O8        -1.4394    3.8583    8.1338 O.2       1 RES1    0.0000
     23 O9         0.5845    4.2231    8.8576 O.2       1 RES1    0.0000
     24 H1         0.3293    0.3307    5.0592 H         1 RES1    0.0000
     25 H2         1.6980    1.4236    5.2655 H         1 RES1    0.0000
     26 H3         0.3037    1.9271    4.3101 H         1 RES1    0.0000
     27 H4         1.2060    1.1103    8.3214 H         1 RES1    0.0000
     28 H5         0.0823    0.2753    7.2488 H         1 RES1    0.0000
     29 H6        -0.5108    1.5125    8.3571 H         1 RES1    0.0000
     30 H7        -1.4016    1.4846    3.3381 H         1 RES1    0.0000
     31 H8        -2.8772    2.3970    3.0211 H         1 RES1    0.0000
     32 H9        -2.8492    1.1821    4.2992 H         1 RES1    0.0000
     33 H10        2.1214    3.0211    7.2640 H         1 RES1    0.0000
     34 H11        1.9861    4.7175    6.8010 H         1 RES1    0.0000
     35 H12        2.3299    3.4943    5.5778 H         1 RES1    0.0000
@<TRIPOS>BOND
     1    1    2 1
     2    2    3 1
     3    3    4 2
     4    4    5 1
     5    5    6 1
     6    6    1 1
     7    7    6 1
     8    8    6 1
     9    9    2 1
    10   10    5 1
    11   11    2 1
    12   12    3 1
    13   13    4 1
    14   14    5 1
    15   15    1 2
    16   16   11 2
    17   17   11 2
    18   18   12 2
    19   19   12 2
    20   20   13 2
    21   21   13 2
    22   22   14 2
    23   23   14 2
    24   24    7 1
    25   25    7 1
    26   26    7 1
    27   27    8 1
    28   28    8 1
    29   29    8 1
    30   30    9 1
    31   31    9 1
    32   32    9 1
    33   33   10 1
    34   34   10 1
    35   35   10 1
@<TRIPOS>SUBSTRUCTURE
     1 RES1 1

@<TRIPOS>CRYSIN
   9.0810   12.9940   12.8970  90.0000 112.9800  90.0000  14 1

