# MOL2 file generated by ConQuest
# Please check atom types

@<TRIPOS>MOLECULE
BUNYIU
    42    45     1
SMALL
USER_CHARGES
****
Generated from CSD

@<TRIPOS>ATOM
      1 O1         0.6059   10.4615   10.5026 O.2       1 RES1   -1.0000
      2 O2        -1.7667    7.1728   12.0201 O.3       1 RES1    0.0000
      3 H1        -1.4538    6.5101   11.6528 H         1 RES1    0.0000
      4 O3        -3.6726   11.2045   12.3638 O.2       1 RES1    0.0000
      5 N1         1.0027    9.1300   10.4119 N.4       1 RES1    1.0000
      6 N2        -2.5175    9.8350   10.9827 N.am      1 RES1    0.0000
      7 C1         1.6553    8.8955    9.0794 C.3       1 RES1    0.0000
      8 H2         1.9715    7.9803    9.0306 H         1 RES1    0.0000
      9 H3         2.4214    9.4833    8.9868 H         1 RES1    0.0000
     10 C2         0.6860    9.1516    7.9567 C.3       1 RES1    0.0000
     11 H4         1.1252    8.9926    7.1064 H         1 RES1    0.0000
     12 H5         0.4001   10.0778    7.9795 H         1 RES1    0.0000
     13 C3        -0.5239    8.2430    8.0821 C.3       1 RES1    0.0000
     14 H6        -0.2471    7.3235    7.9442 H         1 RES1    0.0000
     15 H7        -1.1641    8.4679    7.3889 H         1 RES1    0.0000
     16 C4        -1.2022    8.3638    9.4495 C.3       1 RES1    0.0000
     17 H8        -1.8222    7.6080    9.5194 H         1 RES1    0.0000
     18 C5        -2.0509    9.6378    9.5908 C.3       1 RES1    0.0000
     19 H9        -1.5053   10.4088    9.3301 H         1 RES1    0.0000
     20 C6        -3.2621    9.5633    8.6730 C.3       1 RES1    0.0000
     21 H10       -2.9672    9.5986    7.7492 H         1 RES1    0.0000
     22 H11       -3.7158    8.7165    8.8088 H         1 RES1    0.0000
     23 C7        -4.2116   10.6734    8.9265 C.2       1 RES1    0.0000
     24 H12       -4.7632   10.9715    8.2394 H         1 RES1    0.0000
     25 C8        -4.2845   11.2399   10.1051 C.2       1 RES1    0.0000
     26 H13       -4.8636   11.9573   10.2301 H         1 RES1    0.0000
     27 C9        -3.4703   10.7666   11.2373 C.2       1 RES1    0.0000
     28 C10       -1.6412    9.5214   12.1124 C.3       1 RES1    0.0000
     29 H14       -2.1824    9.4379   12.9130 H         1 RES1    0.0000
     30 H15       -1.0292   10.2618   12.2476 H         1 RES1    0.0000
     31 C11       -0.8351    8.2495   11.9338 C.3       1 RES1    0.0000
     32 C12        0.2059    8.1187   13.0368 C.3       1 RES1    0.0000
     33 H16       -0.2127    8.3146   13.8892 H         1 RES1    0.0000
     34 H17        0.5205    7.2019   13.0656 H         1 RES1    0.0000
     35 C13        1.4003    9.0434   12.8504 C.3       1 RES1    0.0000
     36 H18        1.1170    9.9656   12.9526 H         1 RES1    0.0000
     37 H19        2.0657    8.8551   13.5304 H         1 RES1    0.0000
     38 C14        2.0018    8.8520   11.4930 C.3       1 RES1    0.0000
     39 H20        2.3218    7.9402   11.4084 H         1 RES1    0.0000
     40 H21        2.7609    9.4474   11.3900 H         1 RES1    0.0000
     41 C15       -0.1754    8.1798   10.5521 C.3       1 RES1    0.0000
     42 H22        0.1819    7.2727   10.4561 H         1 RES1    0.0000
@<TRIPOS>BOND
     1    1    5 1
     2    2    3 1
     3    4   27 2
     4    5    7 1
     5    6   18 1
     6    7    8 1
     7    9    7 1
     8   10    7 1
     9   11   10 1
    10   12   10 1
    11   13   10 1
    12   14   13 1
    13   15   13 1
    14   16   13 1
    15   17   16 1
    16   18   16 1
    17   19   18 1
    18   20   18 1
    19   21   20 1
    20   22   20 1
    21   23   20 1
    22   24   23 1
    23   25   23 2
    24   26   25 1
    25   27    6 1
    26   28    6 1
    27   29   28 1
    28   30   28 1
    29   31    2 1
    30   32   31 1
    31   33   32 1
    32   34   32 1
    33   35   32 1
    34   36   35 1
    35   37   35 1
    36   38    5 1
    37   39   38 1
    38   40   38 1
    39   41    5 1
    40   42   41 1
    41   16   41 1
    42   25   27 1
    43   28   31 1
    44   31   41 1
    45   35   38 1
@<TRIPOS>SUBSTRUCTURE
     1 RES1 1

@<TRIPOS>CRYSIN
   9.0520   10.5770   14.1280  90.0000  90.0000  90.0000  19 1

