# MOL2 file generated by ConQuest
# Please check atom types

@<TRIPOS>MOLECULE
BUPPOT
    72    74     1
SMALL
NO_CHARGES
****
Generated from CSD

@<TRIPOS>ATOM
      1 O1         2.6244    3.3038    2.2258 O.3       1 RES1    0.0000
      2 O2         4.2798    4.8823    2.5663 O.3       1 RES1    0.0000
      3 O3        -1.3171    5.7289    0.3124 O.2       1 RES1    0.0000
      4 O4        -0.6340    7.5930   -0.2889 O.2       1 RES1    0.0000
      5 O5         4.1892   11.8776    3.1676 O.2       1 RES1    0.0000
      6 O6         4.1204    9.6602    3.6281 O.3       1 RES1    0.0000
      7 O7         1.5113    9.4170    5.2836 O.2       1 RES1    0.0000
      8 O8         0.2302    8.0541    3.9877 O.3       1 RES1    0.0000
      9 O9        -0.6253   13.4159    0.7215 O.2       1 RES1    0.0000
     10 O10       -2.3723   12.9915    1.9822 O.3       1 RES1    0.0000
     11 N1        -0.4365    6.5227    0.2370 N.pl3     1 RES1    0.0000
     12 N2         1.5757    9.4973    2.9999 N.am      1 RES1    0.0000
     13 N3         2.2588   10.7293    2.9888 N.am      1 RES1    0.0000
     14 C1         0.8719    6.1981    0.8140 C.ar      1 RES1    0.0000
     15 C2         1.8387    7.1835    1.0080 C.ar      1 RES1    0.0000
     16 C3         3.0380    6.7957    1.6212 C.ar      1 RES1    0.0000
     17 H1         3.7112    7.4163    1.7826 H         1 RES1    0.0000
     18 C4         3.1962    5.4753    1.9808 C.ar      1 RES1    0.0000
     19 C5         2.2108    4.5358    1.7614 C.ar      1 RES1    0.0000
     20 C6         1.0148    4.8593    1.1886 C.ar      1 RES1    0.0000
     21 H2         0.3405    4.2318    1.0569 H         1 RES1    0.0000
     22 C7         3.9655    3.4713    2.5976 C.3       1 RES1    0.0000
     23 H3         4.5427    2.9895    1.9846 H         1 RES1    0.0000
     24 H4         4.1084    3.1202    3.4900 H         1 RES1    0.0000
     25 C8         1.6794    8.6587    0.6712 C.3       1 RES1    0.0000
     26 H5         1.2560    8.7447   -0.1973 H         1 RES1    0.0000
     27 H6         2.5556    9.0705    0.6177 H         1 RES1    0.0000
     28 C9         0.8359    9.3963    1.7215 C.3       1 RES1    0.0000
     29 H7        -0.0076    8.9179    1.8648 H         1 RES1    0.0000
     30 C10        1.1229    9.0418    4.2047 C.2       1 RES1    0.0000
     31 C11       -0.2543    7.1915    5.0753 C.3       1 RES1    0.0000
     32 C12        0.8872    6.4665    5.6977 C.3       1 RES1    0.0000
     33 H8         1.3520    5.9617    5.0260 H         1 RES1    0.0000
     34 H9         0.5576    5.8711    6.3741 H         1 RES1    0.0000
     35 H10        1.4895    7.0997    6.0946 H         1 RES1    0.0000
     36 C13       -1.2080    6.2772    4.3379 C.3       1 RES1    0.0000
     37 H11       -1.8136    6.8037    3.8118 H         1 RES1    0.0000
     38 H12       -1.7045    5.7553    4.9720 H         1 RES1    0.0000
     39 H13       -0.7093    5.6922    3.7625 H         1 RES1    0.0000
     40 C14       -1.0378    8.0392    6.0946 C.3       1 RES1    0.0000
     41 H14       -0.4343    8.3811    6.7569 H         1 RES1    0.0000
     42 H15       -1.7045    7.4932    6.5174 H         1 RES1    0.0000
     43 H16       -1.4644    8.7700    5.6413 H         1 RES1    0.0000
     44 C15        3.5934   10.8291    3.2599 C.2       1 RES1    0.0000
     45 C16        5.4386    9.6005    4.3026 C.3       1 RES1    0.0000
     46 C17        6.5440    9.9389    3.3421 C.3       1 RES1    0.0000
     47 H17        6.4360    9.4273    2.5365 H         1 RES1    0.0000
     48 H18        7.3919    9.7290    3.7437 H         1 RES1    0.0000
     49 H19        6.5113   10.8750    3.1330 H         1 RES1    0.0000
     50 C18        5.4103   10.5171    5.5357 C.3       1 RES1    0.0000
     51 H20        5.3677   11.4325    5.2515 H         1 RES1    0.0000
     52 H21        6.2069   10.3794    6.0547 H         1 RES1    0.0000
     53 H22        4.6399   10.3106    6.0688 H         1 RES1    0.0000
     54 C19        5.4845    8.1539    4.7559 C.3       1 RES1    0.0000
     55 H23        4.7097    7.9601    5.2890 H         1 RES1    0.0000
     56 H24        6.2767    8.0071    5.2773 H         1 RES1    0.0000
     57 H25        5.4976    7.5792    3.9879 H         1 RES1    0.0000
     58 C20        0.5434   10.8784    1.3547 C.3       1 RES1    0.0000
     59 H26        0.6678   11.0081    0.3922 H         1 RES1    0.0000
     60 C21        1.5986   11.6768    2.1161 C.3       1 RES1    0.0000
     61 H27        2.2348   12.0749    1.5008 H         1 RES1    0.0000
     62 H28        1.1829   12.3846    2.6351 H         1 RES1    0.0000
     63 C22       -0.8730   11.2570    1.7359 C.3       1 RES1    0.0000
     64 H29       -1.4862   10.6582    1.2823 H         1 RES1    0.0000
     65 H30       -0.9832   11.1228    2.6891 H         1 RES1    0.0000
     66 C23       -1.2451   12.6577    1.4068 C.2       1 RES1    0.0000
     67 C24       -2.8863   14.3646    1.7145 C.3       1 RES1    0.0000
     68 H31       -2.1813   14.9175    1.3434 H         1 RES1    0.0000
     69 H32       -3.6141   14.3279    1.0757 H         1 RES1    0.0000
     70 C25       -3.3228   14.8934    2.8794 C.3       1 RES1    0.0000
     71 H33       -3.2671   14.3979    3.6638 H         1 RES1    0.0000
     72 H34       -3.6785   15.7527    2.8958 H         1 RES1    0.0000
@<TRIPOS>BOND
     1    1   19 1
     2    2   18 1
     3    3   11 2
     4    4   11 2
     5    5   44 2
     6    6   44 1
     7    7   30 2
     8    8   30 1
     9    9   66 2
    10   10   66 1
    11   11   14 1
    12   12   13 1
    13   13   44 1
    14   14   15 ar
    15   15   16 ar
    16   16   17 1
    17   18   16 ar
    18   19   18 ar
    19   20   14 ar
    20   21   20 1
    21   22    1 1
    22   23   22 1
    23   24   22 1
    24   25   15 1
    25   26   25 1
    26   27   25 1
    27   28   12 1
    28   29   28 1
    29   30   12 1
    30   31    8 1
    31   32   31 1
    32   33   32 1
    33   34   32 1
    34   35   32 1
    35   36   31 1
    36   37   36 1
    37   38   36 1
    38   39   36 1
    39   40   31 1
    40   41   40 1
    41   42   40 1
    42   43   40 1
    43   45    6 1
    44   46   45 1
    45   47   46 1
    46   48   46 1
    47   49   46 1
    48   50   45 1
    49   51   50 1
    50   52   50 1
    51   53   50 1
    52   54   45 1
    53   55   54 1
    54   56   54 1
    55   57   54 1
    56   58   28 1
    57   59   58 1
    58   60   13 1
    59   61   60 1
    60   62   60 1
    61   63   58 1
    62   64   63 1
    63   65   63 1
    64   66   63 1
    65   67   10 1
    66   68   67 1
    67   69   67 1
    68   70   67 1
    69   71   70 1
    70   72   70 1
    71    2   22 1
    72   19   20 ar
    73   25   28 1
    74   58   60 1
@<TRIPOS>SUBSTRUCTURE
     1 RES1 1

@<TRIPOS>CRYSIN
  10.9122   11.4715   23.4860  90.0000  90.0000  90.0000  19 1

