# MOL2 file generated by ConQuest
# Please check atom types

@<TRIPOS>MOLECULE
BUPREJ
    17    16     1
SMALL
NO_CHARGES
****
Generated from CSD

@<TRIPOS>ATOM
      1 O1         4.5242    1.6580    3.2741 O.2       1 RES1    0.0000
      2 N1         3.6201    1.6580    4.1079 N.2       1 RES1    0.0000
      3 N2         2.3891    1.6580    3.5704 N.3       1 RES1    0.0000
      4 C1         1.3148    1.6580    4.4843 C.2       1 RES1    0.0000
      5 N3         0.1410    1.6580    3.9193 N.2       1 RES1    0.0000
      6 C2        -0.9989    1.6580    4.5594 C.1       1 RES1    0.0000
      7 N4        -2.0768    1.6580    4.9700 N.1       1 RES1    0.0000
      8 N5         1.6357    1.6580    5.7571 N.3       1 RES1    0.0000
      9 C3         0.6951    1.6580    6.8638 C.3       1 RES1    0.0000
     10 C4         2.1789    1.6580    2.1199 C.3       1 RES1    0.0000
     11 H1         2.4304    1.6580    5.9340 H         1 RES1    0.0000
     12 H2         0.0851    0.9882    6.8103 H         1 RES1    0.0000
     13 H3         1.1058    1.6580    7.6616 H         1 RES1    0.0000
     14 H4         2.6856    0.9815    1.8361 H         1 RES1    0.0000
     15 H5         1.2760    1.6580    2.0030 H         1 RES1    0.0000
     16 H2G        0.0851    2.3278    6.8103 H         1 RES1    0.0000
     17 H4G        2.6856    2.3345    1.8361 H         1 RES1    0.0000
@<TRIPOS>BOND
     1    1    2 2
     2    2    3 1
     3    3    4 1
     4    4    5 2
     5    5    6 1
     6    6    7 3
     7    8    4 1
     8    9    8 1
     9   10    3 1
    10   11    8 1
    11   12    9 1
    12   13    9 1
    13   14   10 1
    14   15   10 1
    15   16    9 1
    16   17   10 1
@<TRIPOS>SUBSTRUCTURE
     1 RES1 1

@<TRIPOS>CRYSIN
  12.1520    6.6320    8.3460  90.0000  90.0000  90.0000  62 1

