# MOL2 file generated by ConQuest
# Please check atom types

@<TRIPOS>MOLECULE
BUQWOZ
    75    79     1
SMALL
NO_CHARGES
****
Generated from CSD

@<TRIPOS>ATOM
      1 O1         1.5662    9.7725    4.5304 O.2       1 RES1    0.0000
      2 O2         8.4260    1.7900    7.7008 O.2       1 RES1    0.0000
      3 N1         2.8522    9.6676    4.4830 N.pl3     1 RES1    0.0000
      4 N2         7.1712    1.9913    7.8598 N.3       1 RES1    0.0000
      5 C1         3.6625   10.9212    4.7522 C.3       1 RES1    0.0000
      6 C2         4.6232   11.1546    3.5895 C.3       1 RES1    0.0000
      7 H1         5.2482   10.4022    3.5262 H         1 RES1    0.0000
      8 H2         5.1239   11.9832    3.7407 H         1 RES1    0.0000
      9 H3         4.1150   11.2273    2.7545 H         1 RES1    0.0000
     10 C3         2.6822   12.0836    4.8436 C.3       1 RES1    0.0000
     11 H4         2.1533   12.1299    4.0193 H         1 RES1    0.0000
     12 H5         3.1780   12.9212    4.9605 H         1 RES1    0.0000
     13 H6         2.0847   11.9480    5.6093 H         1 RES1    0.0000
     14 C4         4.3953   10.7900    6.0841 C.3       1 RES1    0.0000
     15 H7         3.7488   10.5964    6.7945 H         1 RES1    0.0000
     16 H8         4.8596   11.6294    6.2859 H         1 RES1    0.0000
     17 H9         5.0478   10.0605    6.0281 H         1 RES1    0.0000
     18 C5         3.3679    8.3962    4.1380 C.ar      1 RES1    0.0000
     19 C6         4.6970    8.0035    4.3475 C.ar      1 RES1    0.0000
     20 H10        5.3303    8.6291    4.6802 H         1 RES1    0.0000
     21 C7         5.0856    6.7077    4.0698 C.ar      1 RES1    0.0000
     22 H11        5.9821    6.4505    4.2511 H         1 RES1    0.0000
     23 C8         4.2109    5.7624    3.5341 C.ar      1 RES1    0.0000
     24 C9         2.8983    6.1765    3.3121 C.ar      1 RES1    0.0000
     25 H12        2.2741    5.5606    2.9466 H         1 RES1    0.0000
     26 C10        2.4820    7.4556    3.6096 C.ar      1 RES1    0.0000
     27 H13        1.5778    7.7013    3.4518 H         1 RES1    0.0000
     28 C11        4.6518    4.3573    3.2834 C.2       1 RES1    0.0000
     29 C12        5.2755    3.6917    4.4723 C.ar      1 RES1    0.0000
     30 C13        4.6333    3.6711    5.7057 C.ar      1 RES1    0.0000
     31 H14        3.7707    4.0628    5.7806 H         1 RES1    0.0000
     32 C14        5.2064    3.1011    6.8238 C.ar      1 RES1    0.0000
     33 H15        4.7314    3.0920    7.6458 H         1 RES1    0.0000
     34 C15        6.4780    2.5400    6.7523 C.ar      1 RES1    0.0000
     35 C16        7.1437    2.5566    5.5216 C.ar      1 RES1    0.0000
     36 H16        8.0103    2.1744    5.4467 H         1 RES1    0.0000
     37 C17        6.5443    3.1269    4.4136 C.ar      1 RES1    0.0000
     38 H17        7.0141    3.1329    3.5885 H         1 RES1    0.0000
     39 C18        6.6125    1.6910    9.2265 C.3       1 RES1    0.0000
     40 C19        5.3225    0.8992    9.1390 C.3       1 RES1    0.0000
     41 H18        4.6403    1.4352    8.6822 H         1 RES1    0.0000
     42 H19        5.0127    0.6781   10.0421 H         1 RES1    0.0000
     43 H20        5.4797    0.0733    8.6355 H         1 RES1    0.0000
     44 C20        6.4124    3.0026    9.9721 C.3       1 RES1    0.0000
     45 H21        7.2733    3.4624   10.0612 H         1 RES1    0.0000
     46 H22        6.0454    2.8192   10.8623 H         1 RES1    0.0000
     47 H23        5.7894    3.5699    9.4729 H         1 RES1    0.0000
     48 C21        7.6254    0.8694    9.9679 C.3       1 RES1    0.0000
     49 H24        7.8309    0.0614    9.4539 H         1 RES1    0.0000
     50 H25        7.2638    0.6162   10.8432 H         1 RES1    0.0000
     51 H26        8.4439    1.3950   10.0923 H         1 RES1    0.0000
     52 C22        4.5082    3.7469    2.0951 C.2       1 RES1    0.0000
     53 C23        4.7540    2.2679    1.8570 C.3       1 RES1    0.0000
     54 H27        4.9972    1.8203    2.7182 H         1 RES1    0.0000
     55 C24        5.8874    2.0856    0.8350 C.3       1 RES1    0.0000
     56 H28        6.7288    2.4623    1.1973 H         1 RES1    0.0000
     57 H29        6.0297    1.1209    0.6609 H         1 RES1    0.0000
     58 C25        5.5216    2.7981   -0.4689 C.3       1 RES1    0.0000
     59 H30        6.2696    2.7011   -1.1246 H         1 RES1    0.0000
     60 C26        5.2696    4.2821   -0.1952 C.3       1 RES1    0.0000
     61 H31        5.0469    4.7429   -1.0433 H         1 RES1    0.0000
     62 H32        6.0901    4.6957    0.1730 H         1 RES1    0.0000
     63 C27        4.1098    4.4512    0.8058 C.3       1 RES1    0.0000
     64 H33        3.9486    5.4221    0.9810 H         1 RES1    0.0000
     65 C28        2.8547    3.8099    0.2145 C.3       1 RES1    0.0000
     66 H34        2.6195    4.2590   -0.6367 H         1 RES1    0.0000
     67 H35        2.0964    3.9207    0.8426 H         1 RES1    0.0000
     68 C29        3.1014    2.3168   -0.0400 C.3       1 RES1    0.0000
     69 H36        2.2725    1.8979   -0.4101 H         1 RES1    0.0000
     70 C30        4.2497    2.1547   -1.0400 C.3       1 RES1    0.0000
     71 H37        4.0111    2.5880   -1.8980 H         1 RES1    0.0000
     72 H38        4.4096    1.1935   -1.2129 H         1 RES1    0.0000
     73 C31        3.4709    1.6444    1.2888 C.3       1 RES1    0.0000
     74 H39        3.6089    0.6743    1.1437 H         1 RES1    0.0000
     75 H40        2.7311    1.7574    1.9361 H         1 RES1    0.0000
@<TRIPOS>BOND
     1    1    3 1
     2    2    4 1
     3    3    5 1
     4    4   34 1
     5    5    6 1
     6    6    7 1
     7    8    6 1
     8    9    6 1
     9   10    5 1
    10   11   10 1
    11   12   10 1
    12   13   10 1
    13   14    5 1
    14   15   14 1
    15   16   14 1
    16   17   14 1
    17   18    3 1
    18   19   18 ar
    19   20   19 1
    20   21   19 ar
    21   22   21 1
    22   23   21 ar
    23   24   23 ar
    24   25   24 1
    25   26   18 ar
    26   27   26 1
    27   28   23 1
    28   29   28 1
    29   30   29 ar
    30   31   30 1
    31   32   30 ar
    32   33   32 1
    33   34   32 ar
    34   35   34 ar
    35   36   35 1
    36   37   29 ar
    37   38   37 1
    38   39    4 1
    39   40   39 1
    40   41   40 1
    41   42   40 1
    42   43   40 1
    43   44   39 1
    44   45   44 1
    45   46   44 1
    46   47   44 1
    47   48   39 1
    48   49   48 1
    49   50   48 1
    50   51   48 1
    51   52   28 2
    52   53   52 1
    53   54   53 1
    54   55   53 1
    55   56   55 1
    56   57   55 1
    57   58   55 1
    58   59   58 1
    59   60   58 1
    60   61   60 1
    61   62   60 1
    62   63   52 1
    63   64   63 1
    64   65   63 1
    65   66   65 1
    66   67   65 1
    67   68   65 1
    68   69   68 1
    69   70   58 1
    70   71   70 1
    71   72   70 1
    72   73   53 1
    73   74   73 1
    74   75   73 1
    75   24   26 ar
    76   35   37 ar
    77   60   63 1
    78   68   70 1
    79   68   73 1
@<TRIPOS>SUBSTRUCTURE
     1 RES1 1

@<TRIPOS>CRYSIN
   6.2271   12.1700   17.8820  99.8720  99.6590  95.6310   2 1

