# MOL2 file generated by ConQuest
# Please check atom types

@<TRIPOS>MOLECULE
BUQWUF
    68    71     1
SMALL
NO_CHARGES
****
Generated from CSD

@<TRIPOS>ATOM
      1 O1         2.5938    1.5207    7.6548 O.2       1 RES1    0.0000
      2 N1         1.3176    1.3080    7.6373 N.3       1 RES1    0.0000
      3 C1        -0.8754    3.1393    1.7042 C.2       1 RES1    0.0000
      4 C2        -1.0543    3.5952    2.9449 C.2       1 RES1    0.0000
      5 C3        -0.5150    2.9114    4.1539 C.ar      1 RES1    0.0000
      6 C4         0.7927    2.3878    4.1587 C.ar      1 RES1    0.0000
      7 C5         1.3525    1.8427    5.2856 C.ar      1 RES1    0.0000
      8 C6         0.6302    1.7832    6.4819 C.ar      1 RES1    0.0000
      9 C7        -0.6847    2.2814    6.5144 C.ar      1 RES1    0.0000
     10 C8        -1.2209    2.8410    5.3563 C.ar      1 RES1    0.0000
     11 C9        -0.3188    1.8279    1.1714 C.3       1 RES1    0.0000
     12 C10       -1.4042    1.4508    0.1473 C.3       1 RES1    0.0000
     13 C11        0.9193    2.3234    0.3956 C.3       1 RES1    0.0000
     14 C12        0.6998    0.6211    8.8205 C.3       1 RES1    0.0000
     15 C13        0.2931    1.6806    9.8414 C.3       1 RES1    0.0000
     16 C14        1.7924   -0.2830    9.4165 C.3       1 RES1    0.0000
     17 C15       -0.4690   -0.2491    8.3848 C.3       1 RES1    0.0000
     18 O2        -5.0715    8.4346    3.9562 O.2       1 RES1    0.0000
     19 N2        -3.7815    8.5461    3.9240 N.3       1 RES1    0.0000
     20 C16       -1.7459    4.9046    3.1915 C.ar      1 RES1    0.0000
     21 C17       -3.0210    5.1625    2.6539 C.ar      1 RES1    0.0000
     22 C18       -3.6681    6.3676    2.8966 C.ar      1 RES1    0.0000
     23 C19       -3.0516    7.3572    3.6696 C.ar      1 RES1    0.0000
     24 C20       -1.7929    7.0995    4.2269 C.ar      1 RES1    0.0000
     25 C21       -1.1703    5.8886    3.9884 C.ar      1 RES1    0.0000
     26 C22       -0.9947    3.8260    0.3546 C.3       1 RES1    0.0000
     27 C23       -1.7904    2.8227   -0.4913 C.3       1 RES1    0.0000
     28 C24        0.4759    3.7482   -0.1012 C.3       1 RES1    0.0000
     29 C25       -3.2613    9.9527    4.1239 C.3       1 RES1    0.0000
     30 C26       -4.0548   10.8538    3.1683 C.3       1 RES1    0.0000
     31 C27       -3.5429   10.3210    5.5658 C.3       1 RES1    0.0000
     32 C28       -1.7841   10.0997    3.7885 C.3       1 RES1    0.0000
     33 H1         1.3409    2.4948    3.3838 H         1 RES1    0.0000
     34 H2         2.2774    1.5726    5.3178 H         1 RES1    0.0000
     35 H3        -1.2331    2.2537    7.3331 H         1 RES1    0.0000
     36 H4        -2.1035    3.2117    5.3941 H         1 RES1    0.0000
     37 H5        -0.1388    1.1606    1.8578 H         1 RES1    0.0000
     38 H6        -1.0844    0.8206   -0.4744 H         1 RES1    0.0000
     39 H7        -2.1299    0.9879    0.5590 H         1 RES1    0.0000
     40 H8         1.7401    2.3647    0.9571 H         1 RES1    0.0000
     41 H9         1.0757    1.7191   -0.3301 H         1 RES1    0.0000
     42 H10       -0.0716    1.2518   10.6489 H         1 RES1    0.0000
     43 H11        1.0920    2.1731   10.1015 H         1 RES1    0.0000
     44 H12       -0.3504    2.3391    9.4712 H         1 RES1    0.0000
     45 H13        2.0772   -0.9345    8.6916 H         1 RES1    0.0000
     46 H14        2.5873    0.2076    9.6387 H         1 RES1    0.0000
     47 H15        1.3810   -0.7226   10.2176 H         1 RES1    0.0000
     48 H16       -1.2394    0.3445    8.0945 H         1 RES1    0.0000
     49 H17       -0.2015   -0.8813    7.6483 H         1 RES1    0.0000
     50 H18       -0.7957   -0.7331    9.1561 H         1 RES1    0.0000
     51 H19       -3.4223    4.4536    2.0800 H         1 RES1    0.0000
     52 H20       -4.5373    6.5238    2.5776 H         1 RES1    0.0000
     53 H21       -1.4072    7.7433    4.7555 H         1 RES1    0.0000
     54 H22       -0.2920    5.7575    4.4055 H         1 RES1    0.0000
     55 H23       -1.3325    4.6981    0.3566 H         1 RES1    0.0000
     56 H24       -2.7882    3.0024   -0.4545 H         1 RES1    0.0000
     57 H25       -1.5242    2.8733   -1.4199 H         1 RES1    0.0000
     58 H26        0.5922    3.8485   -1.0599 H         1 RES1    0.0000
     59 H27        0.9934    4.4595    0.3500 H         1 RES1    0.0000
     60 H28       -3.7349   11.8195    3.3340 H         1 RES1    0.0000
     61 H29       -3.9311   10.5872    2.2193 H         1 RES1    0.0000
     62 H30       -4.9678   10.8103    3.3390 H         1 RES1    0.0000
     63 H31       -4.5464   10.2493    5.7391 H         1 RES1    0.0000
     64 H32       -3.0577    9.6953    6.1206 H         1 RES1    0.0000
     65 H33       -3.2164   11.2260    5.7275 H         1 RES1    0.0000
     66 H34       -1.1964    9.7062    4.4951 H         1 RES1    0.0000
     67 H35       -1.6299    9.7051    2.9525 H         1 RES1    0.0000
     68 H36       -1.5570   11.0629    3.8250 H         1 RES1    0.0000
@<TRIPOS>BOND
     1    1    2 1
     2    2    8 1
     3    3    4 2
     4    4    5 1
     5    5    6 ar
     6    6    7 ar
     7    7    8 ar
     8    8    9 ar
     9    9   10 ar
    10   10    5 ar
    11   11    3 1
    12   12   11 1
    13   13   11 1
    14   14    2 1
    15   15   14 1
    16   16   14 1
    17   17   14 1
    18   18   19 1
    19   19   23 1
    20   20    4 1
    21   21   20 ar
    22   22   21 ar
    23   23   22 ar
    24   24   23 ar
    25   25   20 ar
    26   26    3 1
    27   27   12 1
    28   28   13 1
    29   29   19 1
    30   30   29 1
    31   31   29 1
    32   32   29 1
    33   33    6 1
    34   34    7 1
    35   35    9 1
    36   36   10 1
    37   37   11 1
    38   38   12 1
    39   39   12 1
    40   40   13 1
    41   41   13 1
    42   42   15 1
    43   43   15 1
    44   44   15 1
    45   45   16 1
    46   46   16 1
    47   47   16 1
    48   48   17 1
    49   49   17 1
    50   50   17 1
    51   51   21 1
    52   52   22 1
    53   53   24 1
    54   54   25 1
    55   55   26 1
    56   56   27 1
    57   57   27 1
    58   58   28 1
    59   59   28 1
    60   60   30 1
    61   61   30 1
    62   62   30 1
    63   63   31 1
    64   64   31 1
    65   65   31 1
    66   66   32 1
    67   67   32 1
    68   68   32 1
    69   24   25 ar
    70   26   27 1
    71   26   28 1
@<TRIPOS>SUBSTRUCTURE
     1 RES1 1

@<TRIPOS>CRYSIN
   6.1933   11.4950   17.4780 104.5770  99.6350  94.9420   2 1

