# MOL2 file generated by ConQuest
# Please check atom types

@<TRIPOS>MOLECULE
BURBUN
    12    10     2
SMALL
NO_CHARGES
****
Generated from CSD

@<TRIPOS>ATOM
      1 O1         0.1053    1.4836   -3.1947 O.2       1 RES1    0.0000
      2 O2         2.7241    1.4836   -0.2536 O.2       1 RES1    0.0000
      3 O3         0.8913    1.4836    1.0706 O.3       1 RES1    0.0000
      4 N1         0.5881    1.4836   -1.1076 N.am      1 RES1    0.0000
      5 H1        -0.2722    1.4836   -0.9226 H         1 RES1    0.0000
      6 N2         1.0189    1.4836   -2.3916 N.2       1 RES1    0.0000
      7 C1         1.5292    1.4836   -0.0917 C.2       1 RES1    0.0000
      8 C2         1.7277    1.4836    2.2575 C.3       1 RES1    0.0000
      9 H2         1.1608    1.4836    3.0568 H         1 RES1    0.0000
     10 H3         2.2936    0.6837    2.2583 H         1 RES1    0.0000
     11 H4         2.2936    0.6837    2.2583 Du        2 SUP2    0.0000
     12 H3C        2.2936    2.2836    2.2583 H         1 RES1    0.0000
@<TRIPOS>BOND
     1    1    6 2
     2    2    7 2
     3    3    7 1
     4    4    5 1
     5    6    4 1
     6    7    4 1
     7    8    3 1
     8    9    8 1
     9   10    8 1
    10   12    8 1
@<TRIPOS>SUBSTRUCTURE
     1 RES1 1
     2 SUP2 11

@<TRIPOS>CRYSIN
   4.8755    5.9345    7.8080  90.0000  99.2050  90.0000  11 1

