# MOL2 file generated by ConQuest
# Please check atom types

@<TRIPOS>MOLECULE
BURCAU
    18    13     2
SMALL
NO_CHARGES
****
Generated from CSD

@<TRIPOS>ATOM
      1 O1        -0.5918    1.5085    1.9530 O.2       1 RES1    0.0000
      2 O2         1.9402    1.5085    4.9667 O.2       1 RES1    0.0000
      3 O3         0.0823    1.5085    6.2347 O.3       1 RES1    0.0000
      4 N1        -0.1631    1.5085    4.0533 N.am      1 RES1    0.0000
      5 H1        -1.0276    1.5085    4.2172 H         1 RES1    0.0000
      6 N2         0.2923    1.5085    2.7822 N.2       1 RES1    0.0000
      7 C1         0.7481    1.5085    5.0935 C.2       1 RES1    0.0000
      8 C2         0.8985    1.5085    7.4436 C.3       1 RES1    0.0000
      9 H2         1.4761    2.3122    7.4686 H         1 RES1    0.0000
     10 C3        -0.0450    1.5085    8.6099 C.3       1 RES1    0.0000
     11 H3         0.4680    1.5085    9.4456 H         1 RES1    0.0000
     12 H4        -0.6097    2.3085    8.5739 H         1 RES1    0.0000
     13 O4        -0.8032    1.6291    2.1239 Du        2 SUP2    0.0000
     14 O5         1.3017    1.6593    2.5671 Du        2 SUP2    0.0000
     15 H5         1.4761    2.3122    7.4686 Du        2 SUP2    0.0000
     16 H6        -0.6097    2.3085    8.5739 Du        2 SUP2    0.0000
     17 H2C        1.4761    0.7047    7.4686 H         1 RES1    0.0000
     18 H4C       -0.6097    0.7084    8.5739 H         1 RES1    0.0000
@<TRIPOS>BOND
     1    1    6 2
     2    2    7 2
     3    3    7 1
     4    4    5 1
     5    6    4 1
     6    7    4 1
     7    8    3 1
     8    9    8 1
     9   10    8 1
    10   11   10 1
    11   12   10 1
    12   17    8 1
    13   18   10 1
@<TRIPOS>SUBSTRUCTURE
     1 RES1 1
     2 SUP2 13

@<TRIPOS>CRYSIN
   4.7863    6.0338    9.3750  90.0000  99.9450  90.0000  11 1

