# MOL2 file generated by ConQuest
# Please check atom types

@<TRIPOS>MOLECULE
BURFIF
    43    45     1
SMALL
NO_CHARGES
****
Generated from CSD

@<TRIPOS>ATOM
      1 O1        -1.1330   -6.8401   -4.4778 O.2       1 RES1    0.0000
      2 N1        -3.2577   -6.9411   -5.1824 N.am      1 RES1    0.0000
      3 H1        -4.0609   -7.1810   -4.9910 H         1 RES1    0.0000
      4 O2        -4.1389   -8.1788   -7.3924 O.3       1 RES1    0.0000
      5 H2        -4.3494   -8.5605   -8.0873 H         1 RES1    0.0000
      6 C1        -2.9981   -6.3148   -6.4542 C.3       1 RES1    0.0000
      7 H3        -2.1119   -5.8969   -6.4372 H         1 RES1    0.0000
      8 N2        -4.0089   -5.3021   -6.7550 N.am      1 RES1    0.0000
      9 C2        -3.0118   -2.3384   -6.4772 C.ar      1 RES1    0.0000
     10 H4        -3.4314   -2.3532   -7.3086 H         1 RES1    0.0000
     11 C3        -2.2886   -7.1597   -4.2921 C.2       1 RES1    0.0000
     12 C4        -2.6664   -7.8471   -3.0106 C.ar      1 RES1    0.0000
     13 C5        -3.3720   -3.2713   -5.5113 C.ar      1 RES1    0.0000
     14 C6        -4.3023   -5.2651   -8.0672 C.2       1 RES1    0.0000
     15 O3        -5.0958   -4.4730   -8.5801 O.2       1 RES1    0.0000
     16 C7        -4.4417   -4.2895   -5.7975 C.3       1 RES1    0.0000
     17 H5        -4.6954   -4.7240   -4.9688 H         1 RES1    0.0000
     18 H6        -5.2248   -3.8365   -6.1479 H         1 RES1    0.0000
     19 C8        -3.0962   -7.2570   -7.6575 C.3       1 RES1    0.0000
     20 H7        -2.2454   -7.7082   -7.8388 H         1 RES1    0.0000
     21 C9        -3.1119   -9.1905   -0.6634 C.ar      1 RES1    0.0000
     22 C10       -2.0452   -1.3962   -6.2247 C.ar      1 RES1    0.0000
     23 H8        -1.8249   -0.7708   -6.8784 H         1 RES1    0.0000
     24 C11       -3.4790   -6.2999   -8.7684 C.3       1 RES1    0.0000
     25 H9        -2.6919   -5.9034   -9.1737 H         1 RES1    0.0000
     26 H10       -3.9957   -6.7511   -9.4555 H         1 RES1    0.0000
     27 C12       -2.7292   -3.2343   -4.2961 C.ar      1 RES1    0.0000
     28 H11       -2.9559   -3.8467   -3.6339 H         1 RES1    0.0000
     29 C13       -1.4112   -1.3739   -5.0259 C.ar      1 RES1    0.0000
     30 H12       -0.7508   -0.7393   -4.8613 H         1 RES1    0.0000
     31 C14       -1.7434   -2.2884   -4.0522 C.ar      1 RES1    0.0000
     32 H13       -1.3077   -2.2726   -3.2297 H         1 RES1    0.0000
     33 C15       -1.9348   -7.5507   -1.8833 C.ar      1 RES1    0.0000
     34 H14       -1.2733   -6.8984   -1.9208 H         1 RES1    0.0000
     35 N3        -3.3391   -9.9224    0.6066 N.pl3     1 RES1    0.0000
     36 C16       -3.6110   -8.8181   -2.9390 C.ar      1 RES1    0.0000
     37 H15       -4.1120   -9.0293   -3.6932 H         1 RES1    0.0000
     38 C17       -3.8406   -9.5055   -1.7432 C.ar      1 RES1    0.0000
     39 H16       -4.4888  -10.1707   -1.6983 H         1 RES1    0.0000
     40 C18       -2.1747   -8.2122   -0.7030 C.ar      1 RES1    0.0000
     41 H17       -1.6973   -7.9898    0.0630 H         1 RES1    0.0000
     42 O4        -4.2008  -10.7775    0.6215 O.2       1 RES1    0.0000
     43 O5        -2.6389   -9.6361    1.5526 O.2       1 RES1    0.0000
@<TRIPOS>BOND
     1    1   11 2
     2    2    3 1
     3    4    5 1
     4    6    2 1
     5    7    6 1
     6    8    6 1
     7    9   10 1
     8   11    2 1
     9   12   11 1
    10   13    9 ar
    11   14    8 1
    12   15   14 2
    13   16    8 1
    14   17   16 1
    15   18   16 1
    16   19    4 1
    17   20   19 1
    18   21   35 1
    19   22    9 ar
    20   23   22 1
    21   24   14 1
    22   25   24 1
    23   26   24 1
    24   27   13 ar
    25   28   27 1
    26   29   22 ar
    27   30   29 1
    28   31   27 ar
    29   32   31 1
    30   33   12 ar
    31   34   33 1
    32   35   42 2
    33   36   12 ar
    34   37   36 1
    35   38   21 ar
    36   39   38 1
    37   40   21 ar
    38   41   40 1
    39   43   35 2
    40    6   19 1
    41   13   16 1
    42   19   24 1
    43   29   31 ar
    44   33   40 ar
    45   36   38 ar
@<TRIPOS>SUBSTRUCTURE
     1 RES1 1

@<TRIPOS>CRYSIN
   4.9069    9.2646   37.0805  90.0000  90.0000  90.0000  19 1

