# MOL2 file generated by ConQuest
# Please check atom types

@<TRIPOS>MOLECULE
BURJED
    40    41     1
SMALL
NO_CHARGES
****
Generated from CSD

@<TRIPOS>ATOM
      1 C1        -0.0165    2.5696   12.8363 C.2       1 RES1    0.0000
      2 O1        -0.9892    1.6905   12.7937 O.3       1 RES1    0.0000
      3 O2         0.4995    2.9936   13.8270 O.2       1 RES1    0.0000
      4 C2         0.3747    3.0001   11.4523 C.ar      1 RES1    0.0000
      5 C3         1.0614    4.1950   11.3021 C.ar      1 RES1    0.0000
      6 H1         1.2907    4.7316   12.0646 H         1 RES1    0.0000
      7 C4         1.4060    4.5916   10.0294 C.ar      1 RES1    0.0000
      8 C5         1.1357    3.8388    8.9144 C.ar      1 RES1    0.0000
      9 H2         1.3912    4.1332    8.0369 H         1 RES1    0.0000
     10 C6         0.4862    2.6530    9.1092 C.ar      1 RES1    0.0000
     11 C7         0.0791    2.2115   10.3522 C.ar      1 RES1    0.0000
     12 H3        -0.3960    1.3825   10.4524 H         1 RES1    0.0000
     13 N1         2.0804    5.8940    9.8327 N.pl3     1 RES1    0.0000
     14 O3         2.3986    6.2105    8.7066 O.2       1 RES1    0.0000
     15 O4         2.2539    6.5771   10.8197 O.2       1 RES1    0.0000
     16 N2         0.1981    1.8064    7.9404 N.pl3     1 RES1    0.0000
     17 O5         0.6117    2.1770    6.8606 O.2       1 RES1    0.0000
     18 O6        -0.4572    0.7958    8.1092 O.2       1 RES1    0.0000
     19 C8        -2.1899    0.4448   16.9141 C.2       1 RES1    0.0000
     20 O7        -1.5249    1.1982   17.5802 O.2       1 RES1    0.0000
     21 C9        -3.5665    0.8264   16.5023 C.3       1 RES1    0.0000
     22 H4        -4.0279    0.0332   16.2184 H         1 RES1    0.0000
     23 H5        -4.0147    1.2041   17.2611 H         1 RES1    0.0000
     24 C10       -3.6081    1.8253   15.3873 C.3       1 RES1    0.0000
     25 H6        -4.5332    2.0330   15.2352 H         1 RES1    0.0000
     26 H7        -3.1508    2.6113   15.6934 H         1 RES1    0.0000
     27 C11       -3.0119    1.4515   14.0460 C.3       1 RES1    0.0000
     28 H8        -3.1604    2.1854   13.4449 H         1 RES1    0.0000
     29 H9        -3.4721    0.6740   13.7213 H         1 RES1    0.0000
     30 C12       -1.5327    1.1487   14.0478 C.3       1 RES1    0.0000
     31 H10       -1.1986    1.5271   14.8641 H         1 RES1    0.0000
     32 C13       -1.1415   -0.3061   14.0460 C.3       1 RES1    0.0000
     33 H11       -0.1937   -0.3497   14.1925 H         1 RES1    0.0000
     34 H12       -1.3468   -0.6564   13.1758 H         1 RES1    0.0000
     35 C14       -1.7969   -1.2054   15.0552 C.3       1 RES1    0.0000
     36 H13       -1.4257   -2.0825   14.9346 H         1 RES1    0.0000
     37 H14       -2.7350   -1.2236   14.8530 H         1 RES1    0.0000
     38 C15       -1.6636   -0.8694   16.5023 C.3       1 RES1    0.0000
     39 H15       -0.7293   -0.8941   16.7249 H         1 RES1    0.0000
     40 H16       -2.1298   -1.5427   17.0032 H         1 RES1    0.0000
@<TRIPOS>BOND
     1    1    2 1
     2    2   30 1
     3    3    1 2
     4    4    1 1
     5    5    4 ar
     6    6    5 1
     7    7    5 ar
     8    8    7 ar
     9    9    8 1
    10   10    8 ar
    11   11    4 ar
    12   12   11 1
    13   13    7 1
    14   14   13 2
    15   15   13 2
    16   16   10 1
    17   17   16 2
    18   18   16 2
    19   19   20 2
    20   21   19 1
    21   22   21 1
    22   23   21 1
    23   24   21 1
    24   25   24 1
    25   26   24 1
    26   27   24 1
    27   28   27 1
    28   29   27 1
    29   30   27 1
    30   31   30 1
    31   32   30 1
    32   33   32 1
    33   34   32 1
    34   35   32 1
    35   36   35 1
    36   37   35 1
    37   38   19 1
    38   39   38 1
    39   40   38 1
    40   10   11 ar
    41   35   38 1
@<TRIPOS>SUBSTRUCTURE
     1 RES1 1

@<TRIPOS>CRYSIN
  12.9890    6.5120   18.7010  90.0000  97.2300  90.0000 231 1

