# MOL2 file generated by ConQuest
# Please check atom types

@<TRIPOS>MOLECULE
BURXIW
    45    47     1
SMALL
NO_CHARGES
****
Generated from CSD

@<TRIPOS>ATOM
      1 O1         6.6443    2.0761    2.8730 O.2       1 RES1    0.0000
      2 O2         7.9927   -2.2021    3.8876 O.2       1 RES1    0.0000
      3 N1         6.8182    0.9928    3.5203 N.3       1 RES1    0.0000
      4 N2         7.4366   -1.0330    3.9606 N.pl3     1 RES1    0.0000
      5 N3        12.3237    1.4641   -1.0815 N.ar      1 RES1    0.0000
      6 N4        14.1244    0.3473   -2.1957 N.ar      1 RES1    0.0000
      7 N5        12.4404   -0.9047   -1.0370 N.ar      1 RES1    0.0000
      8 N6        13.9857    2.6449   -2.1085 N.3       1 RES1    0.0000
      9 N7        14.1130   -1.9504   -2.1828 N.3       1 RES1    0.0000
     10 C1         7.6437   -0.0091    3.1426 C.2       1 RES1    0.0000
     11 C2         6.2223    0.7833    4.8716 C.3       1 RES1    0.0000
     12 C3         6.4294   -0.7428    5.0440 C.3       1 RES1    0.0000
     13 C4         4.7633    1.2428    4.8378 C.3       1 RES1    0.0000
     14 C5         7.0167    1.6358    5.8327 C.3       1 RES1    0.0000
     15 C6         5.2091   -1.5992    4.7367 C.3       1 RES1    0.0000
     16 C7         7.0315   -1.1554    6.3677 C.3       1 RES1    0.0000
     17 C8         8.6398    0.0757    2.0800 C.ar      1 RES1    0.0000
     18 C9         9.2594    1.2820    1.7993 C.ar      1 RES1    0.0000
     19 C10       10.2879    1.3512    0.8630 C.ar      1 RES1    0.0000
     20 C11       10.6958    0.2063    0.1954 C.ar      1 RES1    0.0000
     21 C12       10.0427   -0.9987    0.4384 C.ar      1 RES1    0.0000
     22 C13        9.0226   -1.0731    1.3643 C.ar      1 RES1    0.0000
     23 C14       11.8878    0.2546   -0.7143 C.ar      1 RES1    0.0000
     24 C15       13.4729    1.4452   -1.7952 C.ar      1 RES1    0.0000
     25 C16       13.5564   -0.8042   -1.8088 C.ar      1 RES1    0.0000
     26 H1        14.7917    2.7011   -2.6075 H         1 RES1    0.0000
     27 H2        14.8937   -1.9426   -2.7240 H         1 RES1    0.0000
     28 H3        13.5416    3.4387   -1.8333 H         1 RES1    0.0000
     29 H4        13.7324   -2.7781   -1.9115 H         1 RES1    0.0000
     30 H5        10.7093    2.1828    0.6806 H         1 RES1    0.0000
     31 H6         8.9839    2.0705    2.2518 H         1 RES1    0.0000
     32 H7         8.5793   -1.8995    1.5160 H         1 RES1    0.0000
     33 H8        10.3030   -1.7781   -0.0383 H         1 RES1    0.0000
     34 H9         4.4130    1.1149    3.9641 H         1 RES1    0.0000
     35 H10        4.7124    2.1632    5.0693 H         1 RES1    0.0000
     36 H11        4.2584    0.7324    5.4602 H         1 RES1    0.0000
     37 H12        7.3506    2.3995    5.3774 H         1 RES1    0.0000
     38 H13        6.4575    1.9126    6.5485 H         1 RES1    0.0000
     39 H14        7.7437    1.1293    6.1761 H         1 RES1    0.0000
     40 H15        4.6153   -1.1110    4.1787 H         1 RES1    0.0000
     41 H16        4.7683   -1.8251    5.5476 H         1 RES1    0.0000
     42 H17        5.4821   -2.3930    4.2937 H         1 RES1    0.0000
     43 H18        7.9756   -1.0548    6.3293 H         1 RES1    0.0000
     44 H19        6.6828   -0.6044    7.0590 H         1 RES1    0.0000
     45 H20        6.8177   -2.0640    6.5485 H         1 RES1    0.0000
@<TRIPOS>BOND
     1    1    3 1
     2    2    4 1
     3    3   10 1
     4    4   10 2
     5    5   23 ar
     6    6   24 ar
     7    7   23 ar
     8    8   24 1
     9    9   25 1
    10   10   17 1
    11   11    3 1
    12   12    4 1
    13   13   11 1
    14   14   11 1
    15   15   12 1
    16   16   12 1
    17   17   18 ar
    18   18   19 ar
    19   19   20 ar
    20   20   21 ar
    21   21   22 ar
    22   22   17 ar
    23   23   20 1
    24   24    5 ar
    25   25    6 ar
    26   26    8 1
    27   27    9 1
    28   28    8 1
    29   29    9 1
    30   30   19 1
    31   31   18 1
    32   32   22 1
    33   33   21 1
    34   34   13 1
    35   35   13 1
    36   36   13 1
    37   37   14 1
    38   38   14 1
    39   39   14 1
    40   40   15 1
    41   41   15 1
    42   42   15 1
    43   43   16 1
    44   44   16 1
    45   45   16 1
    46    7   25 ar
    47   11   12 1
@<TRIPOS>SUBSTRUCTURE
     1 RES1 1

@<TRIPOS>CRYSIN
  16.4480   13.0550   15.3290  90.0000  90.0000  90.0000  56 1

