# MOL2 file generated by ConQuest
# Please check atom types

@<TRIPOS>MOLECULE
BUSJIJ
    48    48     1
SMALL
NO_CHARGES
****
Generated from CSD

@<TRIPOS>ATOM
      1 C1         6.5965    6.2975    6.3238 C.2       1 RES1    0.0000
      2 C2         7.5763    5.8511    7.2279 C.2       1 RES1    0.0000
      3 C3         7.5955    6.2929    8.5212 C.2       1 RES1    0.0000
      4 C4         6.6344    7.2035    8.9668 C.2       1 RES1    0.0000
      5 C5         5.6199    7.6987    8.0678 C.2       1 RES1    0.0000
      6 C6         5.6568    7.1835    6.7306 C.2       1 RES1    0.0000
      7 C7         6.6774    7.5982   10.3331 C.2       1 RES1    0.0000
      8 C8         5.7806    8.7334   12.3171 C.3       1 RES1    0.0000
      9 C9         6.9479    8.2267   13.1271 C.3       1 RES1    0.0000
     10 C10        6.7788    8.5601   14.6018 C.3       1 RES1    0.0000
     11 C11        8.0167    8.2256   15.4139 C.3       1 RES1    0.0000
     12 C12        7.8544    8.3835   16.9033 C.3       1 RES1    0.0000
     13 C13        9.1329    8.2020   17.6808 C.3       1 RES1    0.0000
     14 C14        8.9973    8.3107   19.1724 C.3       1 RES1    0.0000
     15 C15       10.2972    8.2670   19.9299 C.3       1 RES1    0.0000
     16 C16       10.1873    8.3509   21.4246 C.3       1 RES1    0.0000
     17 C17       11.4982    8.3883   22.1235 C.3       1 RES1    0.0000
     18 N1         8.5640    4.8968    6.7976 N.pl3     1 RES1    0.0000
     19 N2         5.8227    8.3785   10.8943 N.3       1 RES1    0.0000
     20 O1         4.7623    8.5384    8.4424 O.2       1 RES1    0.0000
     21 O2         9.3507    4.4412    7.6269 O.2       1 RES1    0.0000
     22 O3         8.5908    4.5620    5.6203 O.2       1 RES1    0.0000
     23 H1         6.5995    5.9963    5.4617 H         1 RES1    0.0000
     24 H2         8.2612    6.0024    9.0869 H         1 RES1    0.0000
     25 H3         4.9969    7.5015    6.1241 H         1 RES1    0.0000
     26 H4         7.3481    7.2756   10.8756 H         1 RES1    0.0000
     27 H5         5.7440    9.7029   12.3532 H         1 RES1    0.0000
     28 H6         4.9616    8.3419   12.6548 H         1 RES1    0.0000
     29 H7         7.7918    8.6260   12.7961 H         1 RES1    0.0000
     30 H8         7.0250    7.2146   13.0061 H         1 RES1    0.0000
     31 H9         6.5743    9.5128   14.6707 H         1 RES1    0.0000
     32 H10        5.9749    8.0321   14.9323 H         1 RES1    0.0000
     33 H11        5.1863    8.7006   10.3487 H         1 RES1    0.0000
     34 H12        8.7860    8.8479   15.1289 H         1 RES1    0.0000
     35 H13        8.3361    7.3032   15.1747 H         1 RES1    0.0000
     36 H14        7.1804    7.6879   17.2097 H         1 RES1    0.0000
     37 H15        7.4633    9.2040   17.1295 H         1 RES1    0.0000
     38 H16        9.8016    8.9654   17.4159 H         1 RES1    0.0000
     39 H17        9.5971    7.3494   17.4197 H         1 RES1    0.0000
     40 H18        8.3594    7.5873   19.4929 H         1 RES1    0.0000
     41 H19        8.4558    9.1061   19.4394 H         1 RES1    0.0000
     42 H20       10.7934    7.4345   19.6361 H         1 RES1    0.0000
     43 H21       10.8980    9.0166   19.6284 H         1 RES1    0.0000
     44 H22        9.5891    9.0475   21.7245 H         1 RES1    0.0000
     45 H23        9.6466    7.5508   21.6672 H         1 RES1    0.0000
     46 H24       12.0270    9.0681   21.8429 H         1 RES1    0.0000
     47 H25       11.9848    7.4445   21.6100 H         1 RES1    0.0000
     48 H26       11.3843    8.3935   23.0226 H         1 RES1    0.0000
@<TRIPOS>BOND
     1    1    2 1
     2    2    3 2
     3    3    4 1
     4    4    5 1
     5    5    6 1
     6    6    1 2
     7    7    4 2
     8    8    9 1
     9    9   10 1
    10   10   11 1
    11   11   12 1
    12   12   13 1
    13   13   14 1
    14   14   15 1
    15   15   16 1
    16   16   17 1
    17   17   46 1
    18   18    2 1
    19   19    7 1
    20   20    5 2
    21   21   18 2
    22   22   18 2
    23   23    1 1
    24   24    3 1
    25   25    6 1
    26   26    7 1
    27   27    8 1
    28   28    8 1
    29   29    9 1
    30   30    9 1
    31   31   10 1
    32   32   10 1
    33   33   19 1
    34   34   11 1
    35   35   11 1
    36   36   12 1
    37   37   12 1
    38   38   13 1
    39   39   13 1
    40   40   14 1
    41   41   14 1
    42   42   15 1
    43   43   15 1
    44   44   16 1
    45   45   16 1
    46   47   17 1
    47   48   17 1
    48    8   19 1
@<TRIPOS>SUBSTRUCTURE
     1 RES1 1

@<TRIPOS>CRYSIN
   5.4032    8.3939   19.2767  83.8170  84.5760  86.1940   2 1

