# MOL2 file generated by ConQuest
# Please check atom types

@<TRIPOS>MOLECULE
BUSLUY
    30    32     1
SMALL
NO_CHARGES
****
Generated from CSD

@<TRIPOS>ATOM
      1 N1         1.6462    0.2326    1.4151 N.pl3     1 RES1    0.0000
      2 N2        -0.1197    2.6732    2.9351 N.1       1 RES1    0.0000
      3 O1         0.7194   -0.4337    1.8075 O.2       1 RES1    0.0000
      4 O2         2.2597   -0.0336    0.4320 O.2       1 RES1    0.0000
      5 C1         4.3088    2.2731    2.7514 C.3       1 RES1    0.0000
      6 H1         4.9699    2.9963    2.7339 H         1 RES1    0.0000
      7 C2         4.8669    0.8624    2.6733 C.2       1 RES1    0.0000
      8 H2         5.7030    0.6224    2.3434 H         1 RES1    0.0000
      9 C3         3.9488    0.0306    3.1593 C.2       1 RES1    0.0000
     10 H3         4.0195   -0.8960    3.2118 H         1 RES1    0.0000
     11 C4         2.7696    0.8634    3.6121 C.3       1 RES1    0.0000
     12 H4         2.1739    0.4505    4.2708 H         1 RES1    0.0000
     13 C5         2.0835    1.4183    2.2980 C.3       1 RES1    0.0000
     14 C6         3.1867    2.3403    1.6494 C.3       1 RES1    0.0000
     15 H5         3.5239    1.8879    0.8478 H         1 RES1    0.0000
     16 C7         3.4683    2.1576    4.0447 C.3       1 RES1    0.0000
     17 H6         4.0126    2.0449    4.8392 H         1 RES1    0.0000
     18 H7         2.8521    2.8985    4.1612 H         1 RES1    0.0000
     19 C8         0.8373    2.1250    2.6293 C.1       1 RES1    0.0000
     20 C9         2.6982    3.7214    1.2365 C.ar      1 RES1    0.0000
     21 C10        2.0999    3.8636   -0.0057 C.ar      1 RES1    0.0000
     22 H8         2.0052    3.1178   -0.5541 H         1 RES1    0.0000
     23 C11        1.6387    5.0985   -0.4477 C.ar      1 RES1    0.0000
     24 H9         1.2386    5.1706   -1.2844 H         1 RES1    0.0000
     25 C12        1.7708    6.2049    0.3402 C.ar      1 RES1    0.0000
     26 H10        1.4623    7.0308    0.0445 H         1 RES1    0.0000
     27 C13        2.3601    6.0894    1.5699 C.ar      1 RES1    0.0000
     28 H11        2.4503    6.8411    2.1100 H         1 RES1    0.0000
     29 C14        2.8269    4.8584    2.0220 C.ar      1 RES1    0.0000
     30 H12        3.2276    4.7962    2.8594 H         1 RES1    0.0000
@<TRIPOS>BOND
     1    1    3 2
     2    2   19 3
     3    4    1 2
     4    5    6 1
     5    7    5 1
     6    8    7 1
     7    9    7 2
     8   10    9 1
     9   11    9 1
    10   12   11 1
    11   13    1 1
    12   14    5 1
    13   15   14 1
    14   16    5 1
    15   17   16 1
    16   18   16 1
    17   19   13 1
    18   20   14 1
    19   21   20 ar
    20   22   21 1
    21   23   21 ar
    22   24   23 1
    23   25   23 ar
    24   26   25 1
    25   27   25 ar
    26   28   27 1
    27   29   20 ar
    28   30   29 1
    29   11   13 1
    30   11   16 1
    31   13   14 1
    32   27   29 ar
@<TRIPOS>SUBSTRUCTURE
     1 RES1 1

@<TRIPOS>CRYSIN
   7.9551    9.8789   16.2881  90.0000 102.9070  90.0000 231 1

