# MOL2 file generated by ConQuest
# Please check atom types

@<TRIPOS>MOLECULE
BUSSIS
    26    26     1
SMALL
NO_CHARGES
****
Generated from CSD

@<TRIPOS>ATOM
      1 C1         0.9772    3.6470    3.6635 C.3       1 RES1    0.0000
      2 H1         1.3629    4.5577    3.8128 H         1 RES1    0.0000
      3 C2         2.0694    2.6870    3.2557 C.3       1 RES1    0.0000
      4 H2         1.6811    1.7696    3.1651 H         1 RES1    0.0000
      5 C3         2.7070    3.0968    1.9226 C.3       1 RES1    0.0000
      6 H3         3.1550    3.9737    2.0227 H         1 RES1    0.0000
      7 H4         3.3887    2.4293    1.6591 H         1 RES1    0.0000
      8 C4         1.6311    3.1877    0.8423 C.3       1 RES1    0.0000
      9 H5         2.0388    3.5097    0.0000 H         1 RES1    0.0000
     10 H6         1.2558    2.2867    0.6757 H         1 RES1    0.0000
     11 C5         0.5104    4.1343    1.2557 C.3       1 RES1    0.0000
     12 H7        -0.1935    4.1359    0.5594 H         1 RES1    0.0000
     13 H8         0.8675    5.0542    1.3323 H         1 RES1    0.0000
     14 C6        -0.0987    3.7096    2.5958 C.3       1 RES1    0.0000
     15 H9        -0.7961    4.3591    2.8647 H         1 RES1    0.0000
     16 H10       -0.5246    2.8205    2.5011 H         1 RES1    0.0000
     17 O1         0.4395    3.1270    4.9108 O.3       1 RES1    0.0000
     18 C7        -0.1156    4.0321    5.7413 C.2       1 RES1    0.0000
     19 O2        -0.1847    5.2063    5.4836 O.2       1 RES1    0.0000
     20 C8        -0.5798    3.4055    7.0138 C.3       1 RES1    0.0000
     21 H11       -1.4356    3.8027    7.2796 H         1 RES1    0.0000
     22 H12        0.0851    3.5618    7.7169 H         1 RES1    0.0000
     23 H13       -0.6948    2.4411    6.8807 H         1 RES1    0.0000
     24 N1         3.1536    2.6617    4.3026 N.pl3     1 RES1    0.0000
     25 O3         3.4503    3.6986    4.8733 O.2       1 RES1    0.0000
     26 O4         3.7176    1.5958    4.5059 O.2       1 RES1    0.0000
@<TRIPOS>BOND
     1    1    2 1
     2    3    1 1
     3    4    3 1
     4    5    3 1
     5    6    5 1
     6    7    5 1
     7    8    5 1
     8    9    8 1
     9   10    8 1
    10   11    8 1
    11   12   11 1
    12   13   11 1
    13   14    1 1
    14   15   14 1
    15   16   14 1
    16   17    1 1
    17   18   17 1
    18   19   18 2
    19   20   18 1
    20   21   20 1
    21   22   20 1
    22   23   20 1
    23   24    3 1
    24   25   24 2
    25   26   24 2
    26   11   14 1
@<TRIPOS>SUBSTRUCTURE
     1 RES1 1

@<TRIPOS>CRYSIN
   6.4931    9.8311   14.7212  90.0000  90.0000  90.0000  19 1

