# MOL2 file generated by ConQuest
# Please check atom types

@<TRIPOS>MOLECULE
BUTBAV
    88    90     2
SMALL
NO_CHARGES
****
Generated from CSD

@<TRIPOS>ATOM
      1 C1         8.7125    8.1678   16.0279 C.2       1 RES1    0.0000
      2 N1         9.2649    7.1463   15.2726 N.am      1 RES1    0.0000
      3 C2         9.5230    7.5687   13.9492 C.2       1 RES1    0.0000
      4 C3         8.9273    8.9052   13.9007 C.2       1 RES1    0.0000
      5 C4         8.4169    9.2547   15.0994 C.2       1 RES1    0.0000
      6 C5         7.7037   10.5502   15.3211 C.3       1 RES1    0.0000
      7 H1         8.3021   11.1692   15.7888 H         1 RES1    0.0000
      8 C6         7.3379   11.1519   13.9250 C.3       1 RES1    0.0000
      9 C7         8.5669   11.0354   13.0052 C.3       1 RES1    0.0000
     10 H2         9.3266   11.4669   13.4504 H         1 RES1    0.0000
     11 C8         8.3980   11.6608   11.6368 C.3       1 RES1    0.0000
     12 H3         8.0373   12.5548   11.7424 H         1 RES1    0.0000
     13 H4         7.7557   11.1401   11.1310 H         1 RES1    0.0000
     14 C9         9.6943   11.7427   10.8504 C.3       1 RES1    0.0000
     15 H5        10.0829   10.8551   10.7932 H         1 RES1    0.0000
     16 H6        10.3184   12.3072   11.3336 H         1 RES1    0.0000
     17 C10        9.5175   12.2935    9.4473 C.3       1 RES1    0.0000
     18 H7         8.9170   11.7109    8.9571 H         1 RES1    0.0000
     19 H8         9.0995   13.1666    9.5045 H         1 RES1    0.0000
     20 C11       10.8085   12.4228    8.6730 C.3       1 RES1    0.0000
     21 H9        11.2494   11.5589    8.6574 H         1 RES1    0.0000
     22 H10       11.3905   13.0418    9.1424 H         1 RES1    0.0000
     23 C12       10.6338   12.9044    7.2526 C.3       1 RES1    0.0000
     24 H11       10.0578   12.2999    6.7780 H         1 RES1    0.0000
     25 H12       11.4897   12.9371    6.8179 H         1 RES1    0.0000
     26 H13       10.2437   13.7810    7.2561 H         1 RES1    0.0000
     27 C13       10.1479    6.8887   13.0052 C.2       1 RES1    0.0000
     28 H14       10.4698    6.0348   13.1836 H         1 RES1    0.0000
     29 H15       10.2650    7.2638   12.1616 H         1 RES1    0.0000
     30 C14        6.1013   10.4764   13.3464 C.3       1 RES1    0.0000
     31 H16        6.2952    9.5542   13.1646 H         1 RES1    0.0000
     32 H17        5.8470   10.9170   12.5323 H         1 RES1    0.0000
     33 H18        5.3802   10.5329   13.9787 H         1 RES1    0.0000
     34 C15        9.3724    4.9223   15.9499 C.3       1 RES1    0.0000
     35 H19        9.1043    4.6456   15.0717 H         1 RES1    0.0000
     36 H20        8.5955    5.0261   16.5042 H         1 RES1    0.0000
     37 H21        9.9507    4.2587   16.3327 H         1 RES1    0.0000
     38 O1         8.9116    9.6207   12.7691 O.3       1 RES1    0.0000
     39 O2         7.1509   12.5530   14.0514 O.3       1 RES1    0.0000
     40 H22        6.4666   12.7004   14.4793 H         1 RES1    0.0000
     41 O3         6.5575   10.3117   16.1300 O.3       1 RES1    0.0000
     42 H23        6.2449   11.0281   16.3795 H         1 RES1    0.0000
     43 O4         8.5105    8.0849   17.2426 O.2       1 RES1    0.0000
     44 O5        10.0763    6.1850   15.8650 O.3       1 RES1    0.0000
     45 C16        2.0833   17.9487   15.5827 C.2       2 RES2    0.0000
     46 N2         1.8149   18.7880   14.5139 N.am      2 RES2    0.0000
     47 C17        2.5574   18.4539   13.3672 C.2       2 RES2    0.0000
     48 C18        3.1721   17.1740   13.7500 C.2       2 RES2    0.0000
     49 C19        2.9063   16.8599   15.0318 C.2       2 RES2    0.0000
     50 C20        3.3914   15.5817   15.6450 C.3       2 RES2    0.0000
     51 H24        2.6620   14.9281   15.6243 H         2 RES2    0.0000
     52 C21        4.5440   15.0619   14.7668 C.3       2 RES2    0.0000
     53 C22        4.0558   15.0783   13.2962 C.3       2 RES2    0.0000
     54 H25        3.1929   14.6158   13.2616 H         2 RES2    0.0000
     55 C23        4.9775   14.4201   12.2915 C.3       2 RES2    0.0000
     56 H26        5.2530   13.5562   12.6380 H         2 RES2    0.0000
     57 H27        5.7734   14.9654   12.1911 H         2 RES2    0.0000
     58 C24        4.3383   14.2207   10.9162 C.3       2 RES2    0.0000
     59 H28        3.4794   13.7820   11.0236 H         2 RES2    0.0000
     60 H29        4.1826   15.0865   10.5074 H         2 RES2    0.0000
     61 C25        5.2226   13.3796    9.9964 C.3       2 RES2    0.0000
     62 H30        6.0674   13.8393    9.8717 H         2 RES2    0.0000
     63 H31        5.4098   12.5339   10.4329 H         2 RES2    0.0000
     64 C26        4.6088   13.1019    8.6314 C.3       2 RES2    0.0000
     65 H32        4.4148   13.9449    8.1932 H         2 RES2    0.0000
     66 H33        3.7714   12.6276    8.7492 H         2 RES2    0.0000
     67 C27        5.5293   12.2744    7.7359 C.3       2 RES2    0.0000
     68 H34        5.0927   12.1051    6.8975 H         2 RES2    0.0000
     69 H35        5.7286   11.4396    8.1672 H         2 RES2    0.0000
     70 H36        6.3439   12.7569    7.5817 H         2 RES2    0.0000
     71 C28        2.6720   19.1522   12.2552 C.2       2 RES2    0.0000
     72 H37        2.2309   19.9660   12.1703 H         2 RES2    0.0000
     73 H38        3.1952   18.8308   11.5554 H         2 RES2    0.0000
     74 C29        5.8267   15.8603   14.9764 C.3       2 RES2    0.0000
     75 H39        5.6558   16.7907   14.8101 H         2 RES2    0.0000
     76 H40        6.5025   15.5462   14.3702 H         2 RES2    0.0000
     77 H41        6.1297   15.7474   15.8806 H         2 RES2    0.0000
     78 C30        2.3823   20.9401   15.1600 C.3       2 RES2    0.0000
     79 H42        3.0885   20.9365   14.5087 H         2 RES2    0.0000
     80 H43        2.7229   20.6315   16.0019 H         2 RES2    0.0000
     81 H44        2.0442   21.8332   15.2588 H         2 RES2    0.0000
     82 O6         3.8471   16.4448   12.8431 O.3       2 RES2    0.0000
     83 O7         4.7687   13.6773   15.0512 O.3       2 RES2    0.0000
     84 H45        4.6663   13.5434   15.8529 H         2 RES2    0.0000
     85 O8         3.8179   15.7465   16.9911 O.3       2 RES2    0.0000
     86 H46        3.3105   15.3396   17.4898 H         2 RES2    0.0000
     87 O9         1.6476   18.1244   16.7155 O.2       2 RES2    0.0000
     88 O10        1.3212   20.0689   14.7218 O.3       2 RES2    0.0000
@<TRIPOS>BOND
     1    1    2 1
     2    2    3 1
     3    3    4 1
     4    4    5 2
     5    5    1 1
     6    6    5 1
     7    7    6 1
     8    8    6 1
     9    9    8 1
    10   10    9 1
    11   11    9 1
    12   12   11 1
    13   13   11 1
    14   14   11 1
    15   15   14 1
    16   16   14 1
    17   17   14 1
    18   18   17 1
    19   19   17 1
    20   20   17 1
    21   21   20 1
    22   22   20 1
    23   23   20 1
    24   24   23 1
    25   25   23 1
    26   26   23 1
    27   27    3 2
    28   28   27 1
    29   29   27 1
    30   30    8 1
    31   31   30 1
    32   32   30 1
    33   33   30 1
    34   34   35 1
    35   36   34 1
    36   37   34 1
    37   38    4 1
    38   39    8 1
    39   40   39 1
    40   41    6 1
    41   42   41 1
    42   43    1 2
    43   44    2 1
    44   45   46 1
    45   46   47 1
    46   47   48 1
    47   48   49 2
    48   49   45 1
    49   50   49 1
    50   51   50 1
    51   52   50 1
    52   53   52 1
    53   54   53 1
    54   55   53 1
    55   56   55 1
    56   57   55 1
    57   58   55 1
    58   59   58 1
    59   60   58 1
    60   61   58 1
    61   62   61 1
    62   63   61 1
    63   64   61 1
    64   65   64 1
    65   66   64 1
    66   67   64 1
    67   68   67 1
    68   69   67 1
    69   70   67 1
    70   71   47 2
    71   72   71 1
    72   73   71 1
    73   74   52 1
    74   75   74 1
    75   76   74 1
    76   77   74 1
    77   78   79 1
    78   80   78 1
    79   81   78 1
    80   82   48 1
    81   83   52 1
    82   84   83 1
    83   85   50 1
    84   86   85 1
    85   87   45 2
    86   88   46 1
    87    9   38 1
    88   34   44 1
    89   53   82 1
    90   78   88 1
@<TRIPOS>SUBSTRUCTURE
     1 RES1 1
     2 RES2 45

@<TRIPOS>CRYSIN
  10.1408    9.1036   17.5991  90.0000 100.1847  90.0000   4 1

