# MOL2 file generated by ConQuest
# Please check atom types

@<TRIPOS>MOLECULE
BUTDID
    28    29     1
SMALL
NO_CHARGES
****
Generated from CSD

@<TRIPOS>ATOM
      1 O1         6.3616   -0.7432    2.0224 O.2       1 RES1    0.0000
      2 O2        11.2173    2.9696    5.9996 O.2       1 RES1    0.0000
      3 O3        12.0818    1.2623    4.9959 O.2       1 RES1    0.0000
      4 N1         6.4611    1.5369    2.1471 N.am      1 RES1    0.0000
      5 N2        11.1762    2.0627    5.1756 N.pl3     1 RES1    0.0000
      6 C1         5.8700    0.3552    1.7595 C.2       1 RES1    0.0000
      7 C2         7.6684    1.6400    2.8833 C.ar      1 RES1    0.0000
      8 C3         7.7786    2.6926    3.7834 C.ar      1 RES1    0.0000
      9 C4         8.9423    2.8488    4.5328 C.ar      1 RES1    0.0000
     10 C5         9.9568    1.9463    4.3516 C.ar      1 RES1    0.0000
     11 C6         9.8861    0.9060    3.4483 C.ar      1 RES1    0.0000
     12 C7         8.7260    0.7537    2.7043 C.ar      1 RES1    0.0000
     13 C8         4.5852    0.4892    1.0233 C.ar      1 RES1    0.0000
     14 C9         4.2592    1.5812    0.2229 C.ar      1 RES1    0.0000
     15 C10        3.0517    1.6050   -0.4630 C.ar      1 RES1    0.0000
     16 C11        2.1588    0.5532   -0.3484 C.ar      1 RES1    0.0000
     17 C12        2.4772   -0.5366    0.4434 C.ar      1 RES1    0.0000
     18 C13        3.6815   -0.5774    1.1293 C.ar      1 RES1    0.0000
     19 H1         5.9013    2.3508    2.0953 H         1 RES1    0.0000
     20 H2         6.9588    3.3924    3.9003 H         1 RES1    0.0000
     21 H3         9.0475    3.6599    5.2423 H         1 RES1    0.0000
     22 H4        10.7179    0.2292    3.3196 H         1 RES1    0.0000
     23 H5         8.6550   -0.0441    1.9855 H         1 RES1    0.0000
     24 H6         4.9404    2.4087    0.1413 H         1 RES1    0.0000
     25 H7         2.8148    2.4467   -1.0987 H         1 RES1    0.0000
     26 H8         1.2393    0.5878   -0.8240 H         1 RES1    0.0000
     27 H9         1.7796   -1.3573    0.5336 H         1 RES1    0.0000
     28 H10        3.9307   -1.4303    1.7422 H         1 RES1    0.0000
@<TRIPOS>BOND
     1    1    6 2
     2    2    5 2
     3    3    5 2
     4    4    6 1
     5    5   10 1
     6    6   13 1
     7    7    4 1
     8    8    7 ar
     9    9    8 ar
    10   10    9 ar
    11   11   10 ar
    12   12    7 ar
    13   13   14 ar
    14   14   15 ar
    15   15   16 ar
    16   16   17 ar
    17   17   18 ar
    18   18   13 ar
    19   19    4 1
    20   20    8 1
    21   21    9 1
    22   22   11 1
    23   23   12 1
    24   24   14 1
    25   25   15 1
    26   26   16 1
    27   27   17 1
    28   28   18 1
    29   11   12 ar
@<TRIPOS>SUBSTRUCTURE
     1 RES1 1

@<TRIPOS>CRYSIN
  13.4440    5.3340    8.0740  91.9300 103.0900  97.3100   2 1

