# MOL2 file generated by ConQuest
# Please check atom types

@<TRIPOS>MOLECULE
BUTMOU
    36    37     1
SMALL
NO_CHARGES
****
Generated from CSD

@<TRIPOS>ATOM
      1 O1         5.8562    8.5148    1.2266 O.3       1 RES1    0.0000
      2 C1         7.1447    8.9190    1.5572 C.2       1 RES1    0.0000
      3 O2         7.4015   10.0818    1.3272 O.2       1 RES1    0.0000
      4 C2         8.0326    7.9194    2.1149 C.2       1 RES1    0.0000
      5 C3         9.3270    8.4172    2.6468 C.ar      1 RES1    0.0000
      6 C4         9.3628    9.5878    3.4190 C.ar      1 RES1    0.0000
      7 H1         8.5589   10.0705    3.5742 H         1 RES1    0.0000
      8 C5        10.5496   10.0490    3.9593 C.ar      1 RES1    0.0000
      9 H2        10.5692   10.8483    4.4723 H         1 RES1    0.0000
     10 C6        11.7069    9.3248    3.7370 C.ar      1 RES1    0.0000
     11 N1        12.9708    9.7898    4.3339 N.pl3     1 RES1    0.0000
     12 O3        12.9978   10.9265    4.8008 O.2       1 RES1    0.0000
     13 O4        13.9239    9.0178    4.3507 O.2       1 RES1    0.0000
     14 C7        11.7169    8.1844    2.9703 C.ar      1 RES1    0.0000
     15 H3        12.5275    7.7132    2.8173 H         1 RES1    0.0000
     16 C8        10.5261    7.7346    2.4245 C.ar      1 RES1    0.0000
     17 H4        10.5240    6.9495    1.8905 H         1 RES1    0.0000
     18 C9         7.6367    6.6073    2.1393 C.2       1 RES1    0.0000
     19 C10        8.4697    5.4617    2.6482 C.3       1 RES1    0.0000
     20 H5         7.8820    4.7666    3.0123 H         1 RES1    0.0000
     21 H6         9.0715    5.7821    3.3526 H         1 RES1    0.0000
     22 H7         8.9976    5.0901    1.9115 H         1 RES1    0.0000
     23 C11        6.3271    6.2622    1.6879 C.2       1 RES1    0.0000
     24 H8         6.0673    5.3489    1.6613 H         1 RES1    0.0000
     25 C12        5.4517    7.2155    1.2986 C.2       1 RES1    0.0000
     26 C13        4.0591    6.9544    0.9931 C.2       1 RES1    0.0000
     27 H9         3.8348    6.0325    0.9414 H         1 RES1    0.0000
     28 C14        3.0320    7.7900    0.7716 C.2       1 RES1    0.0000
     29 C15        3.0696    9.2812    0.7269 C.3       1 RES1    0.0000
     30 H10        3.9806    9.5909    0.9121 H         1 RES1    0.0000
     31 H11        2.4575    9.6430    1.4013 H         1 RES1    0.0000
     32 H12        2.7943    9.5881   -0.1621 H         1 RES1    0.0000
     33 C16        1.6491    7.2138    0.5584 C.3       1 RES1    0.0000
     34 H13        1.7039    6.2364    0.5270 H         1 RES1    0.0000
     35 H14        1.2826    7.5473   -0.2873 H         1 RES1    0.0000
     36 H15        1.0656    7.4854    1.2972 H         1 RES1    0.0000
@<TRIPOS>BOND
     1    1    2 1
     2    2    3 2
     3    4    2 1
     4    5    4 1
     5    6    5 ar
     6    7    6 1
     7    8    6 ar
     8    9    8 1
     9   10    8 ar
    10   11   10 1
    11   12   11 2
    12   13   11 2
    13   14   10 ar
    14   15   14 1
    15   16    5 ar
    16   17   16 1
    17   18    4 2
    18   19   18 1
    19   20   19 1
    20   21   19 1
    21   22   19 1
    22   23   18 1
    23   24   23 1
    24   25    1 1
    25   26   25 1
    26   27   26 1
    27   28   26 2
    28   29   28 1
    29   30   29 1
    30   31   29 1
    31   32   29 1
    32   33   28 1
    33   34   33 1
    34   35   33 1
    35   36   33 1
    36   14   16 ar
    37   23   25 2
@<TRIPOS>SUBSTRUCTURE
     1 RES1 1

@<TRIPOS>CRYSIN
  13.9040   14.0650    7.1090  90.0000 100.5400  90.0000  14 1

