# MOL2 file generated by ConQuest
# Please check atom types

@<TRIPOS>MOLECULE
BUTQAK
   116    98     3
SMALL
NO_CHARGES
****
Generated from CSD

@<TRIPOS>ATOM
      1 N1         4.4292    5.0167   10.4474 N.pl3     1 RES1    0.0000
      2 O1         4.9376    3.5028    6.9276 O.3       1 RES1    0.0000
      3 O2         4.7337    5.6605    7.4513 O.2       1 RES1    0.0000
      4 O3         4.0844    4.5561    4.6622 O.2       1 RES1    0.0000
      5 O4         5.5385    4.6761   10.0832 O.2       1 RES1    0.0000
      6 O5         4.2226    5.8391   11.3113 O.2       1 RES1    0.0000
      7 C1         5.4466    5.3945    2.4138 C.3       1 RES1    0.0000
      8 H1         5.1473    4.5445    2.0573 H         1 RES1    0.0000
      9 H2         4.6648    5.9452    2.5776 H         1 RES1    0.0000
     10 C2         6.3564    6.0863    1.3982 C.3       1 RES1    0.0000
     11 H3         5.8655    6.2277    0.5613 H         1 RES1    0.0000
     12 C3         7.5695    5.2102    1.1330 C.3       1 RES1    0.0000
     13 H4         7.2847    4.3512    0.7829 H         1 RES1    0.0000
     14 H5         8.1418    5.6319    0.4722 H         1 RES1    0.0000
     15 C4         8.3381    5.0110    2.4278 C.3       1 RES1    0.0000
     16 H6         9.1270    4.4577    2.2524 H         1 RES1    0.0000
     17 C5         8.7776    6.3442    2.9845 C.3       1 RES1    0.0000
     18 H7         9.3677    6.7845    2.3512 H         1 RES1    0.0000
     19 H8         9.2671    6.2089    3.8111 H         1 RES1    0.0000
     20 C6         7.5645    7.2174    3.2452 C.3       1 RES1    0.0000
     21 H9         7.8548    8.0852    3.5943 H         1 RES1    0.0000
     22 C7         6.6590    6.5264    4.2748 C.3       1 RES1    0.0000
     23 H10        5.8874    7.0841    4.4591 H         1 RES1    0.0000
     24 H11        7.1450    6.3977    5.1047 H         1 RES1    0.0000
     25 C8         6.1960    5.1642    3.7268 C.3       1 RES1    0.0000
     26 C9         7.4435    4.3083    3.4574 C.3       1 RES1    0.0000
     27 H12        7.9354    4.1767    4.2832 H         1 RES1    0.0000
     28 H13        7.1778    3.4379    3.1221 H         1 RES1    0.0000
     29 C10        6.8010    7.4214    1.9552 C.3       1 RES1    0.0000
     30 H14        7.3669    7.8729    1.3081 H         1 RES1    0.0000
     31 H15        6.0260    7.9808    2.1199 H         1 RES1    0.0000
     32 C11        5.2769    4.5369    4.7494 C.2       1 RES1    0.0000
     33 C12        5.9176    3.8591    5.9440 C.3       1 RES1    0.0000
     34 H16        6.3829    3.0609    5.6491 H         1 RES1    0.0000
     35 H17        6.5702    4.4564    6.3405 H         1 RES1    0.0000
     36 C13        4.4048    4.5229    7.5889 C.2       1 RES1    0.0000
     37 C14        3.2999    4.0629    8.4778 C.ar      1 RES1    0.0000
     38 C15        3.2752    4.3610    9.8269 C.ar      1 RES1    0.0000
     39 C16        2.2271    4.0019   10.6462 C.ar      1 RES1    0.0000
     40 H18        2.2456    4.1996   11.5537 H         1 RES1    0.0000
     41 C17        1.1602    3.3509   10.0960 C.ar      1 RES1    0.0000
     42 H19        0.4435    3.1026   10.6334 H         1 RES1    0.0000
     43 C18        1.1380    3.0630    8.7573 C.ar      1 RES1    0.0000
     44 H20        0.4009    2.6317    8.3882 H         1 RES1    0.0000
     45 C19        2.2057    3.4072    7.9519 C.ar      1 RES1    0.0000
     46 H21        2.1870    3.1959    7.0464 H         1 RES1    0.0000
     47 N2         3.2816   10.3477    1.5543 N.pl3     2 RES2    0.0000
     48 O6         3.9989    8.7931    5.0616 O.3       2 RES2    0.0000
     49 O7         3.7509   10.1913    7.2695 O.2       2 RES2    0.0000
     50 O8         2.5966   10.4237    4.5270 O.2       2 RES2    0.0000
     51 O9         2.7123    9.3364    1.8769 O.2       2 RES2    0.0000
     52 O10        2.8663   11.0953    0.7131 O.2       2 RES2    0.0000
     53 C20        1.9373    9.0077    8.2646 C.3       2 RES2    0.0000
     54 C21        2.3663    9.6019    9.6016 C.3       2 RES2    0.0000
     55 H22        2.5453   10.5496    9.4988 H         2 RES2    0.0000
     56 H23        3.1790    9.1695    9.9083 H         2 RES2    0.0000
     57 C22        1.2496    9.3925   10.6228 C.3       2 RES2    0.0000
     58 H24        1.5227    9.7718   11.4838 H         2 RES2    0.0000
     59 C23        0.0110   10.1184   10.1203 C.3       2 RES2    0.0000
     60 H25       -0.6990   10.0516   10.7779 H         2 RES2    0.0000
     61 H26        0.2128   11.0573    9.9854 H         2 RES2    0.0000
     62 C24       -0.4261    9.5145    8.8505 C.3       2 RES2    0.0000
     63 H27       -1.2373    9.9722    8.5448 H         2 RES2    0.0000
     64 C25       -0.7163    8.0858    9.0001 C.3       2 RES2    0.0000
     65 H28       -1.0059    7.7207    8.1497 H         2 RES2    0.0000
     66 H29       -1.4336    7.9640    9.6409 H         2 RES2    0.0000
     67 C26        0.5379    7.3489    9.4795 C.3       2 RES2    0.0000
     68 H30        0.3351    6.3959    9.5927 H         2 RES2    0.0000
     69 C27        1.6372    7.5172    8.4316 C.3       2 RES2    0.0000
     70 H31        1.3475    7.1412    7.5860 H         2 RES2    0.0000
     71 H32        2.4383    7.0484    8.7158 H         2 RES2    0.0000
     72 C28        0.6754    9.7101    7.8043 C.3       2 RES2    0.0000
     73 H33        0.3891    9.3441    6.9524 H         2 RES2    0.0000
     74 H34        0.8512   10.6564    7.6848 H         2 RES2    0.0000
     75 C29        0.9851    7.9204   10.7876 C.3       2 RES2    0.0000
     76 H35        1.7923    7.4717   11.0839 H         2 RES2    0.0000
     77 H36        0.2979    7.7830   11.4597 H         2 RES2    0.0000
     78 C30        2.9953    9.2570    7.2189 C.2       2 RES2    0.0000
     79 C31        3.0625    8.3307    6.0399 C.3       2 RES2    0.0000
     80 H37        3.3248    7.4462    6.3405 H         2 RES2    0.0000
     81 H38        2.1841    8.2601    5.6347 H         2 RES2    0.0000
     82 C32        3.6468    9.8710    4.4013 C.2       2 RES2    0.0000
     83 C33        4.7559   10.3571    3.5275 C.ar      2 RES2    0.0000
     84 C34        4.5667   10.6544    2.1927 C.ar      2 RES2    0.0000
     85 C35        5.5545   11.1750    1.3929 C.ar      2 RES2    0.0000
     86 H39        5.3883   11.3582    0.4963 H         2 RES2    0.0000
     87 C36        6.7753   11.4190    1.9308 C.ar      2 RES2    0.0000
     88 H40        7.4574   11.7598    1.3972 H         2 RES2    0.0000
     89 C37        7.0064   11.1654    3.2517 C.ar      2 RES2    0.0000
     90 H41        7.8391   11.3560    3.6183 H         2 RES2    0.0000
     91 C38        6.0021   10.6233    4.0563 C.ar      2 RES2    0.0000
     92 H42        6.1734   10.4420    4.9529 H         2 RES2    0.0000
     93 C39        2.6687    8.4651    9.5084 Du        3 SUP3    0.0000
     94 H43        3.4103    9.0473    9.7252 Du        3 SUP3    0.0000
     95 H44        3.0217    7.5830    9.3133 Du        3 SUP3    0.0000
     96 C40        1.6649    8.3779   10.7755 Du        3 SUP3    0.0000
     97 H45        2.1079    7.9607   11.5464 Du        3 SUP3    0.0000
     98 C41        1.2119    9.6266   11.0670 Du        3 SUP3    0.0000
     99 H46        0.8032    9.6136   11.9439 Du        3 SUP3    0.0000
    100 H47        1.9695   10.2348   11.1032 Du        3 SUP3    0.0000
    101 C42        0.4898    9.9899   10.3371 Du        3 SUP3    0.0000
    102 H48        0.1588   10.8448   10.6912 Du        3 SUP3    0.0000
    103 C43       -0.7684    9.2808    9.6144 Du        3 SUP3    0.0000
    104 H49       -1.0262    9.7567    8.8050 Du        3 SUP3    0.0000
    105 H50       -1.5357    9.2354   10.2094 Du        3 SUP3    0.0000
    106 C44       -0.1734    7.7802    9.2723 Du        3 SUP3    0.0000
    107 H51       -0.8635    7.1070    9.0965 Du        3 SUP3    0.0000
    108 C45        0.6584    8.2695    7.9257 Du        3 SUP3    0.0000
    109 H52        0.8815    7.4874    7.3909 Du        3 SUP3    0.0000
    110 H53        0.0942    8.8424    7.3909 Du        3 SUP3    0.0000
    111 C46        1.3179   10.3863    8.8411 Du        3 SUP3    0.0000
    112 H54        0.7004   10.7674    8.2027 Du        3 SUP3    0.0000
    113 H55        2.0295   11.0256    9.0073 Du        3 SUP3    0.0000
    114 C47        0.5119    7.5636   10.3034 Du        3 SUP3    0.0000
    115 H56        0.8514    6.6542   10.2046 Du        3 SUP3    0.0000
    116 H57       -0.1125    7.5363   11.0429 Du        3 SUP3    0.0000
@<TRIPOS>BOND
     1    1    5 2
     2    2   33 1
     3    3   36 2
     4    4   32 2
     5    6    1 2
     6    7    8 1
     7    9    7 1
     8   10    7 1
     9   11   10 1
    10   12   10 1
    11   13   12 1
    12   14   12 1
    13   15   12 1
    14   16   15 1
    15   17   15 1
    16   18   17 1
    17   19   17 1
    18   20   17 1
    19   21   20 1
    20   22   20 1
    21   23   22 1
    22   24   22 1
    23   25    7 1
    24   26   15 1
    25   27   26 1
    26   28   26 1
    27   29   10 1
    28   30   29 1
    29   31   29 1
    30   32   25 1
    31   33   32 1
    32   34   33 1
    33   35   33 1
    34   36    2 1
    35   37   36 1
    36   38    1 1
    37   39   38 ar
    38   40   39 1
    39   41   39 ar
    40   42   41 1
    41   43   41 ar
    42   44   43 1
    43   45   37 ar
    44   46   45 1
    45   47   51 2
    46   48   79 1
    47   49   78 2
    48   50   82 2
    49   52   47 2
    50   53   54 1
    51   54   55 1
    52   56   54 1
    53   57   54 1
    54   58   57 1
    55   59   57 1
    56   60   59 1
    57   61   59 1
    58   62   59 1
    59   63   62 1
    60   64   62 1
    61   65   64 1
    62   66   64 1
    63   67   64 1
    64   68   67 1
    65   69   53 1
    66   70   69 1
    67   71   69 1
    68   72   53 1
    69   73   72 1
    70   74   72 1
    71   75   57 1
    72   76   75 1
    73   77   75 1
    74   78   53 1
    75   79   78 1
    76   80   79 1
    77   81   79 1
    78   82   48 1
    79   83   82 1
    80   84   47 1
    81   85   84 ar
    82   86   85 1
    83   87   85 ar
    84   88   87 1
    85   89   87 ar
    86   90   89 1
    87   91   83 ar
    88   92   91 1
    89   20   29 1
    90   22   25 1
    91   25   26 1
    92   37   38 ar
    93   43   45 ar
    94   62   72 1
    95   67   69 1
    96   67   75 1
    97   83   84 ar
    98   89   91 ar
@<TRIPOS>SUBSTRUCTURE
     1 RES1 1
     2 RES2 47
     3 SUP3 93

@<TRIPOS>CRYSIN
   7.3004   10.4009   24.1685  90.1370  94.2740 110.4050   2 1

