# MOL2 file generated by ConQuest
# Please check atom types

@<TRIPOS>MOLECULE
BUVJUX
    14    17     1
SMALL
USER_CHARGES
****
Generated from CSD

@<TRIPOS>ATOM
      1 O1         9.2548   -1.0497    4.6232 O.3       1 RES1    0.0000
      2 O2         8.1114    0.8324    5.3290 O.2       1 RES1   -1.0000
      3 N1         8.5132    0.2757    4.3514 N.pl3     1 RES1    1.0000
      4 N2         9.6283   -1.6334    4.1215 N.2       1 RES1    0.0000
      5 C1         8.5100    0.5654    3.1059 C.2       1 RES1    0.0000
      6 C2         9.2084   -0.5210    2.6602 C.2       1 RES1    0.0000
      7 C3         9.2701   -0.4605    1.1857 C.3       1 RES1    0.0000
      8 C4         7.8197   -0.6897    0.6965 C.3       1 RES1    0.0000
      9 C5         7.0441   -1.8485    1.2936 C.3       1 RES1    0.0000
     10 C6         5.9868   -1.3404    2.0227 C.2       1 RES1    0.0000
     11 C7         5.8849    0.0411    1.9878 C.2       1 RES1    0.0000
     12 C8         7.0559    0.5827    1.1810 C.3       1 RES1    0.0000
     13 C9         8.1292    1.3523    1.9125 C.3       1 RES1    0.0000
     14 C10        9.3676    1.0702    1.0444 C.3       1 RES1    0.0000
@<TRIPOS>BOND
     1    1    3 1
     2    2    3 1
     3    3    5 2
     4    4    1 1
     5    5    6 1
     6    6    4 2
     7    7    6 1
     8    8    7 1
     9    9    8 1
    10   10    9 1
    11   11   10 2
    12   12    8 1
    13   13    5 1
    14   14    7 1
    15   11   12 1
    16   12   13 1
    17   13   14 1
@<TRIPOS>SUBSTRUCTURE
     1 RES1 1

@<TRIPOS>CRYSIN
  10.8600   10.8100    7.7700  90.0000  92.1000  90.0000  14 1

