# MOL2 file generated by ConQuest
# Please check atom types

@<TRIPOS>MOLECULE
BUVTES
    48    50     3
SMALL
NO_CHARGES
****
Generated from CSD

@<TRIPOS>ATOM
      1 N1         4.5967    2.7431    8.2679 N.2       1 RES1    0.0000
      2 O1         5.7277    3.3181    8.5021 O.2       1 RES1    0.0000
      3 C1         3.4506    1.6727    6.6152 C.ar      1 RES1    0.0000
      4 C2         2.2981    1.5033    7.3909 C.ar      1 RES1    0.0000
      5 H1         2.2538    1.8106    8.2877 H         1 RES1    0.0000
      6 C3         1.2343    0.8711    6.7927 C.ar      1 RES1    0.0000
      7 H2         0.4352    0.7448    7.2888 H         1 RES1    0.0000
      8 C4         1.2953    0.4188    5.5031 C.ar      1 RES1    0.0000
      9 H3         0.5403   -0.0206    5.1301 H         1 RES1    0.0000
     10 C5         2.4302    0.5879    4.7330 C.ar      1 RES1    0.0000
     11 H4         2.4577    0.2755    3.8377 H         1 RES1    0.0000
     12 C6         3.5318    1.2243    5.2977 C.ar      1 RES1    0.0000
     13 C7         4.8607    1.5514    4.7996 C.ar      1 RES1    0.0000
     14 C8         5.4637    1.3405    3.5764 C.ar      1 RES1    0.0000
     15 H5         4.9899    0.9333    2.8613 H         1 RES1    0.0000
     16 C9         6.7806    1.7410    3.4240 C.ar      1 RES1    0.0000
     17 H6         7.2208    1.6023    2.5933 H         1 RES1    0.0000
     18 C10        7.4717    2.3491    4.4839 C.ar      1 RES1    0.0000
     19 H7         8.3750    2.6133    4.3512 H         1 RES1    0.0000
     20 C11        6.8826    2.5752    5.7057 C.ar      1 RES1    0.0000
     21 H8         7.3512    2.9867    6.4225 H         1 RES1    0.0000
     22 C12        5.5642    2.1665    5.8299 C.ar      1 RES1    0.0000
     23 N2         4.6903    2.2531    6.9501 N.pl3     1 RES1    0.0000
     24 C13        1.4692    1.1225   12.8113 C.ar      2 RES2    0.0000
     25 C14        0.1178    0.8117   12.6759 C.ar      2 RES2    0.0000
     26 H9        -0.5105    1.0203   13.3557 H         2 RES2    0.0000
     27 C15       -0.2640    0.1853   11.5046 C.ar      2 RES2    0.0000
     28 H10       -1.1777   -0.0408   11.3748 H         2 RES2    0.0000
     29 C16        0.6519   -0.1189   10.5166 C.ar      2 RES2    0.0000
     30 H11        0.3572   -0.5451    9.7212 H         2 RES2    0.0000
     31 C17        1.9931    0.1877   10.6699 C.ar      2 RES2    0.0000
     32 H12        2.6207   -0.0389    9.9949 H         2 RES2    0.0000
     33 C18        2.4023    0.8326   11.8285 C.ar      2 RES2    0.0000
     34 C19        3.6985    1.3296   12.2975 C.ar      2 RES2    0.0000
     35 C20        4.9578    1.3273   11.7139 C.ar      2 RES2    0.0000
     36 H13        5.0986    0.9457   10.8555 H         2 RES2    0.0000
     37 C21        6.0079    1.9003   12.4236 C.ar      2 RES2    0.0000
     38 H14        6.8788    1.9101   12.0435 H         2 RES2    0.0000
     39 C22        5.8032    2.4587   13.6776 C.ar      2 RES2    0.0000
     40 H15        6.5404    2.8379   14.1401 H         2 RES2    0.0000
     41 C23        4.5521    2.4773   14.2725 C.ar      2 RES2    0.0000
     42 H16        4.4111    2.8604   15.1306 H         2 RES2    0.0000
     43 C24        3.5161    1.9077   13.5484 C.ar      2 RES2    0.0000
     44 N3         2.1355    1.7822   13.8695 N.pl3     2 RES2    0.0000
     45 N4         1.3449    2.2166   14.9345 N.2       2 RES2    0.0000
     46 O2         2.0207    2.8165   15.7091 O.2       2 RES2    0.0000
     47 N5         5.4958    2.9141    7.9237 Du        3 SUP3    0.0000
     48 O3         4.7733    3.0384    8.8125 Du        3 SUP3    0.0000
@<TRIPOS>BOND
     1    1    2 2
     2    3    4 ar
     3    4    5 1
     4    6    4 ar
     5    7    6 1
     6    8    6 ar
     7    9    8 1
     8   10    8 ar
     9   11   10 1
    10   12    3 ar
    11   13   12 1
    12   14   13 ar
    13   15   14 1
    14   16   14 ar
    15   17   16 1
    16   18   16 ar
    17   19   18 1
    18   20   18 ar
    19   21   20 1
    20   22   13 ar
    21   23    1 1
    22   24   25 ar
    23   25   26 1
    24   27   25 ar
    25   28   27 1
    26   29   27 ar
    27   30   29 1
    28   31   29 ar
    29   32   31 1
    30   33   24 ar
    31   34   33 1
    32   35   34 ar
    33   36   35 1
    34   37   35 ar
    35   38   37 1
    36   39   37 ar
    37   40   39 1
    38   41   39 ar
    39   42   41 1
    40   43   34 ar
    41   44   24 1
    42   45   44 1
    43   46   45 2
    44    3   23 1
    45   10   12 ar
    46   20   22 ar
    47   22   23 1
    48   31   33 ar
    49   41   43 ar
    50   43   44 1
@<TRIPOS>SUBSTRUCTURE
     1 RES1 1
     2 RES2 24
     3 SUP3 47

@<TRIPOS>CRYSIN
  16.9680    3.8854   28.2840  90.0000  93.9090  90.0000  14 1

