# MOL2 file generated by ConQuest
# Please check atom types

@<TRIPOS>MOLECULE
BUVVET
    56    58     1
SMALL
NO_CHARGES
****
Generated from CSD

@<TRIPOS>ATOM
      1 O1         4.1758   11.5048   -2.4430 O.2       1 RES1    0.0000
      2 O2         4.3599   12.4979   -0.5731 O.2       1 RES1    0.0000
      3 O3         5.6241    5.6942   -1.1548 O.2       1 RES1    0.0000
      4 O4         5.2744    6.9537   -2.8263 O.2       1 RES1    0.0000
      5 N1         4.4305   11.4872   -1.2797 N.pl3     1 RES1    0.0000
      6 N2         5.3870    6.8108   -1.6201 N.pl3     1 RES1    0.0000
      7 N3         5.8232    6.6979    1.2147 N.3       1 RES1    0.0000
      8 N4         6.1897    6.7279    2.5542 N.2       1 RES1    0.0000
      9 C1         5.4633    5.8776    6.4001 C.3       1 RES1    0.0000
     10 C2         6.6785    6.7226    6.5490 C.3       1 RES1    0.0000
     11 C3         7.1523    6.8902    5.1204 C.3       1 RES1    0.0000
     12 C4         6.4018    5.5619    3.0589 C.2       1 RES1    0.0000
     13 C5         6.2400    4.2795    2.3096 C.3       1 RES1    0.0000
     14 C6         6.3300    3.0006    3.1137 C.3       1 RES1    0.0000
     15 C7         5.0859    2.8400    3.9862 C.3       1 RES1    0.0000
     16 C8         4.7099    4.1084    4.7304 C.3       1 RES1    0.0000
     17 C9         5.8650    4.7910    5.4267 C.3       1 RES1    0.0000
     18 C10        6.8749    5.5090    4.4960 C.3       1 RES1    0.0000
     19 C11        6.6126    1.7552    2.2052 C.3       1 RES1    0.0000
     20 C12        5.6055    1.6493    1.0675 C.3       1 RES1    0.0000
     21 C13        8.0713    1.8610    1.6561 C.3       1 RES1    0.0000
     22 C14        6.5459    0.4728    3.0521 C.3       1 RES1    0.0000
     23 C15        5.5063    7.8621    0.6244 C.ar      1 RES1    0.0000
     24 C16        5.2626    7.9839   -0.7630 C.ar      1 RES1    0.0000
     25 C17        4.9147    9.1781   -1.3892 C.ar      1 RES1    0.0000
     26 C18        4.8176   10.2682   -0.6056 C.ar      1 RES1    0.0000
     27 C19        5.0603   10.2312    0.7613 C.ar      1 RES1    0.0000
     28 C20        5.4125    9.0634    1.3498 C.ar      1 RES1    0.0000
     29 H1         5.7934    5.7683    0.6672 H         1 RES1    0.0000
     30 H2         5.1729    5.4508    7.3479 H         1 RES1    0.0000
     31 H3         4.6480    6.4580    5.9998 H         1 RES1    0.0000
     32 H4         6.4405    7.6769    6.9972 H         1 RES1    0.0000
     33 H5         7.4273    6.2199    7.1443 H         1 RES1    0.0000
     34 H6         6.5815    7.6611    4.6192 H         1 RES1    0.0000
     35 H7         8.1984    7.1319    5.0845 H         1 RES1    0.0000
     36 H8         5.2691    4.2971    1.8357 H         1 RES1    0.0000
     37 H9         7.0095    4.2442    1.5517 H         1 RES1    0.0000
     38 H10        7.1812    3.0694    3.7740 H         1 RES1    0.0000
     39 H11        5.2780    2.0621    4.7116 H         1 RES1    0.0000
     40 H12        4.2618    2.5525    3.3549 H         1 RES1    0.0000
     41 H13        3.9674    3.8561    5.4575 H         1 RES1    0.0000
     42 H14        4.2821    4.8034    4.0204 H         1 RES1    0.0000
     43 H15        6.3113    3.9408    5.9177 H         1 RES1    0.0000
     44 H16        7.8041    4.9568    4.4276 H         1 RES1    0.0000
     45 H17        5.6460    2.5472    0.4688 H         1 RES1    0.0000
     46 H18        4.6137    1.5329    1.4730 H         1 RES1    0.0000
     47 H19        5.8472    0.7956    0.4517 H         1 RES1    0.0000
     48 H20        8.1673    2.7501    1.0521 H         1 RES1    0.0000
     49 H21        8.2988    0.9914    1.0556 H         1 RES1    0.0000
     50 H22        8.7666    1.9139    2.4841 H         1 RES1    0.0000
     51 H23        5.5542    0.3563    3.4541 H         1 RES1    0.0000
     52 H24        7.2554    0.5433    3.8630 H         1 RES1    0.0000
     53 H25        6.7877   -0.3793    2.4345 H         1 RES1    0.0000
     54 H26        4.7277    9.2275   -2.4516 H         1 RES1    0.0000
     55 H27        4.9666   11.1291    1.3532 H         1 RES1    0.0000
     56 H28        5.6265    9.0528    2.4088 H         1 RES1    0.0000
@<TRIPOS>BOND
     1    1    5 2
     2    2    5 2
     3    3    6 2
     4    4    6 2
     5    5   26 1
     6    6   24 1
     7    7    8 1
     8    8   12 2
     9    9   10 1
    10   10   11 1
    11   11   18 1
    12   12   13 1
    13   13   14 1
    14   14   15 1
    15   15   16 1
    16   16   17 1
    17   17    9 1
    18   18   12 1
    19   19   14 1
    20   20   19 1
    21   21   19 1
    22   22   19 1
    23   23    7 1
    24   24   23 ar
    25   25   24 ar
    26   26   25 ar
    27   27   26 ar
    28   28   23 ar
    29   29    7 1
    30   30    9 1
    31   31    9 1
    32   32   10 1
    33   33   10 1
    34   34   11 1
    35   35   11 1
    36   36   13 1
    37   37   13 1
    38   38   14 1
    39   39   15 1
    40   40   15 1
    41   41   16 1
    42   42   16 1
    43   43   17 1
    44   44   18 1
    45   45   20 1
    46   46   20 1
    47   47   20 1
    48   48   21 1
    49   49   21 1
    50   50   21 1
    51   51   22 1
    52   52   22 1
    53   53   22 1
    54   54   25 1
    55   55   27 1
    56   56   28 1
    57   17   18 1
    58   27   28 ar
@<TRIPOS>SUBSTRUCTURE
     1 RES1 1

@<TRIPOS>CRYSIN
   6.9230   17.6400   17.1120  90.0000  91.2300  90.0000 231 1

