# MOL2 file generated by ConQuest
# Please check atom types

@<TRIPOS>MOLECULE
BUVVAP
    48    49     1
SMALL
NO_CHARGES
****
Generated from CSD

@<TRIPOS>ATOM
      1 O1         0.7287   -0.0570    4.5100 O.2       1 RES1    0.0000
      2 O2         1.0972    1.0403    2.6711 O.2       1 RES1    0.0000
      3 O3        -3.1591    0.6655    7.0179 O.2       1 RES1    0.0000
      4 O4        -4.6013    2.2016    6.5495 O.2       1 RES1    0.0000
      5 N1         0.4271    0.7845    3.6679 N.pl3     1 RES1    0.0000
      6 N2        -3.5539    1.5858    6.3060 N.pl3     1 RES1    0.0000
      7 N3        -4.2405    3.7762    4.5100 N.pl3     1 RES1    0.0000
      8 N4        -4.5178    4.8244    3.6249 N.2       1 RES1    0.0000
      9 C1        -5.3199    5.7248    4.0646 C.2       1 RES1    0.0000
     10 C2        -5.5843    6.8433    3.1079 C.3       1 RES1    0.0000
     11 C3        -7.0653    6.9750    2.6611 C.3       1 RES1    0.0000
     12 C4        -7.8659    7.7898    3.6837 C.3       1 RES1    0.0000
     13 C5        -7.9993    7.1625    5.0815 C.3       1 RES1    0.0000
     14 C6        -6.6964    6.9684    5.8492 C.3       1 RES1    0.0000
     15 C7        -5.9090    5.7266    5.4524 C.3       1 RES1    0.0000
     16 C8        -7.1804    7.5268    1.2145 C.3       1 RES1    0.0000
     17 C9        -8.6627    7.6388    0.8020 C.3       1 RES1    0.0000
     18 C10       -6.5169    8.8977    1.0641 C.3       1 RES1    0.0000
     19 C11       -6.5294    6.5463    0.2277 C.3       1 RES1    0.0000
     20 H1        -4.9129    3.8399    5.3937 H         1 RES1    0.0000
     21 H2        -5.2904    7.7682    3.5805 H         1 RES1    0.0000
     22 H3        -4.9801    6.6820    2.2271 H         1 RES1    0.0000
     23 H4        -7.5045    5.9881    2.6353 H         1 RES1    0.0000
     24 H5        -7.3814    8.7488    3.7954 H         1 RES1    0.0000
     25 H6        -8.8600    7.9323    3.2884 H         1 RES1    0.0000
     26 H7        -8.4636    6.1957    4.9626 H         1 RES1    0.0000
     27 H8        -8.6403    7.8028    5.6673 H         1 RES1    0.0000
     28 H9        -6.9343    6.8960    6.9004 H         1 RES1    0.0000
     29 H10       -6.5731    4.8780    5.5298 H         1 RES1    0.0000
     30 H11       -5.0969    5.6135    6.1557 H         1 RES1    0.0000
     31 H12       -9.1698    8.3223    1.4666 H         1 RES1    0.0000
     32 H13       -9.1264    6.6655    0.8636 H         1 RES1    0.0000
     33 H14       -8.7294    8.0052   -0.2105 H         1 RES1    0.0000
     34 H15       -6.8476    9.5931    1.7545 H         1 RES1    0.0000
     35 H16       -6.6483    9.2542    0.0544 H         1 RES1    0.0000
     36 H17       -5.4627    8.8117    1.2818 H         1 RES1    0.0000
     37 H18       -5.4828    6.4319    0.4726 H         1 RES1    0.0000
     38 H19       -6.6241    6.9274   -0.7777 H         1 RES1    0.0000
     39 H20       -7.0206    5.5867    0.2965 H         1 RES1    0.0000
     40 C12       -3.1499    3.0233    4.2938 C.ar      1 RES1    0.0000
     41 C13       -2.7636    1.9587    5.1545 C.ar      1 RES1    0.0000
     42 C14       -1.5888    1.2469    4.9440 C.ar      1 RES1    0.0000
     43 H21       -1.3009    0.4622    5.6272 H         1 RES1    0.0000
     44 C15       -0.8121    1.5421    3.8784 C.ar      1 RES1    0.0000
     45 C16       -1.1600    2.5434    2.9618 C.ar      1 RES1    0.0000
     46 H22       -0.5355    2.7473    2.1054 H         1 RES1    0.0000
     47 C17       -2.3145    3.2614    3.1781 C.ar      1 RES1    0.0000
     48 H23       -2.5906    4.0314    2.4720 H         1 RES1    0.0000
@<TRIPOS>BOND
     1    1    5 2
     2    2    5 2
     3    3    6 2
     4    4    6 2
     5    5   44 1
     6    6   41 1
     7    7    8 1
     8    8    9 2
     9    9   10 1
    10   10   11 1
    11   11   12 1
    12   12   13 1
    13   13   14 1
    14   14   15 1
    15   15    9 1
    16   16   11 1
    17   17   16 1
    18   18   16 1
    19   19   16 1
    20   20    7 1
    21   21   10 1
    22   22   10 1
    23   23   11 1
    24   24   12 1
    25   25   12 1
    26   26   13 1
    27   27   13 1
    28   28   14 1
    29   29   15 1
    30   30   15 1
    31   31   17 1
    32   32   17 1
    33   33   17 1
    34   34   18 1
    35   35   18 1
    36   36   18 1
    37   37   19 1
    38   38   19 1
    39   39   19 1
    40   40    7 1
    41   41   40 ar
    42   42   41 ar
    43   43   42 1
    44   44   42 ar
    45   45   44 ar
    46   46   45 1
    47   47   40 ar
    48   48   47 1
    49   45   47 ar
@<TRIPOS>SUBSTRUCTURE
     1 RES1 1

@<TRIPOS>CRYSIN
   6.1630   11.1560   15.0300 103.9200  93.2700 116.6700   2 1

