# MOL2 file generated by ConQuest
# Please check atom types

@<TRIPOS>MOLECULE
BUWBEA
    64    67     1
SMALL
NO_CHARGES
****
Generated from CSD

@<TRIPOS>ATOM
      1 O1         2.5799    2.5186    1.1315 O.2       1 RES1    0.0000
      2 O2        11.5585    0.3112    4.1134 O.2       1 RES1    0.0000
      3 O3         7.8854    1.4121    1.2751 O.3       1 RES1    0.0000
      4 O4         6.9234    2.6779    2.8772 O.3       1 RES1    0.0000
      5 N1         3.8309    2.2871    1.2346 N.3       1 RES1    0.0000
      6 N2        10.4575    0.9096    3.8597 N.3       1 RES1    0.0000
      7 C1         6.6252    1.9441    1.6548 C.3       1 RES1    0.0000
      8 C2         6.1374    2.8529    0.5417 C.3       1 RES1    0.0000
      9 C3         4.7224    3.4104    0.7938 C.3       1 RES1    0.0000
     10 C4         4.2102    1.2328    2.2232 C.3       1 RES1    0.0000
     11 C5         5.6755    0.8001    1.9658 C.3       1 RES1    0.0000
     12 C6         6.2609   -0.0911    3.0781 C.3       1 RES1    0.0000
     13 C7         7.7628   -0.3355    2.8902 C.3       1 RES1    0.0000
     14 C8         8.4606    0.9764    2.5242 C.3       1 RES1    0.0000
     15 C9         8.0506    2.0962    3.4280 C.2       1 RES1    0.0000
     16 C10        8.6622    2.5084    4.5106 C.2       1 RES1    0.0000
     17 C11        9.9637    1.8465    4.9255 C.3       1 RES1    0.0000
     18 C12        9.9937    0.9113    2.4318 C.3       1 RES1    0.0000
     19 C13        7.1652    3.9382    0.2193 C.3       1 RES1    0.0000
     20 C14        4.1213    3.9250   -0.5142 C.3       1 RES1    0.0000
     21 C15        4.6745    4.5286    1.8336 C.3       1 RES1    0.0000
     22 C16        3.2854    0.0291    1.9658 C.3       1 RES1    0.0000
     23 C17        3.9463    1.7500    3.6458 C.3       1 RES1    0.0000
     24 C18        8.1025    3.6235    5.3571 C.3       1 RES1    0.0000
     25 C19        9.7624    1.0053    6.1876 C.3       1 RES1    0.0000
     26 C20       11.0526    2.8929    5.1730 C.3       1 RES1    0.0000
     27 C21       10.5567    2.1314    1.7014 C.3       1 RES1    0.0000
     28 C22       10.4818   -0.3628    1.7557 C.3       1 RES1    0.0000
     29 H1         6.0576    2.2532   -0.2445 H         1 RES1    0.0000
     30 H2         5.6513    0.2481    1.1307 H         1 RES1    0.0000
     31 H3         5.6904   -1.0060    3.1477 H         1 RES1    0.0000
     32 H4         6.1596    0.4096    3.9269 H         1 RES1    0.0000
     33 H5         7.8487   -0.9831    2.1468 H         1 RES1    0.0000
     34 H6         8.1641   -0.7952    3.7130 H         1 RES1    0.0000
     35 H7         7.2003    4.4802    1.0543 H         1 RES1    0.0000
     36 H8         6.8507    4.5090   -0.5272 H         1 RES1    0.0000
     37 H9         8.1034    3.5711    0.1222 H         1 RES1    0.0000
     38 H10        4.1144    3.2124   -1.1995 H         1 RES1    0.0000
     39 H11        4.7010    4.6419   -0.8328 H         1 RES1    0.0000
     40 H12        3.1522    4.3496   -0.3744 H         1 RES1    0.0000
     41 H13        5.1491    4.2685    2.6281 H         1 RES1    0.0000
     42 H14        5.1025    5.2846    1.4974 H         1 RES1    0.0000
     43 H15        3.6787    4.7477    1.9787 H         1 RES1    0.0000
     44 H16        3.5707   -0.7495    2.5288 H         1 RES1    0.0000
     45 H17        2.3804    0.1666    2.1545 H         1 RES1    0.0000
     46 H18        3.2922   -0.2400    0.9856 H         1 RES1    0.0000
     47 H19        4.5825    2.4792    3.8964 H         1 RES1    0.0000
     48 H20        3.0285    2.1753    3.5984 H         1 RES1    0.0000
     49 H21        4.0160    1.0461    4.3242 H         1 RES1    0.0000
     50 H22        7.7502    3.1986    6.1578 H         1 RES1    0.0000
     51 H23        8.8479    4.2095    5.6688 H         1 RES1    0.0000
     52 H24        7.3544    4.0740    4.9125 H         1 RES1    0.0000
     53 H25        9.4209    1.5921    6.8683 H         1 RES1    0.0000
     54 H26        9.1126    0.3494    6.0279 H         1 RES1    0.0000
     55 H27       10.6537    0.6550    6.4787 H         1 RES1    0.0000
     56 H28       10.7969    3.4257    5.9592 H         1 RES1    0.0000
     57 H29       11.1048    3.4823    4.3701 H         1 RES1    0.0000
     58 H30       11.9207    2.3549    5.2486 H         1 RES1    0.0000
     59 H31       10.2008    2.9170    2.0322 H         1 RES1    0.0000
     60 H32       11.5603    2.1209    1.7877 H         1 RES1    0.0000
     61 H33       10.3149    1.9750    0.6494 H         1 RES1    0.0000
     62 H34       10.2745   -1.1271    2.2920 H         1 RES1    0.0000
     63 H35       10.0177   -0.4460    0.8480 H         1 RES1    0.0000
     64 H36       11.4998   -0.3105    1.6044 H         1 RES1    0.0000
@<TRIPOS>BOND
     1    1    5 1
     2    2    6 1
     3    3    7 1
     4    4    7 1
     5    5    9 1
     6    6   17 1
     7    7    8 1
     8    8    9 1
     9    9   20 1
    10   10    5 1
    11   11    7 1
    12   12   11 1
    13   13   12 1
    14   14    3 1
    15   15    4 1
    16   16   15 2
    17   17   16 1
    18   18    6 1
    19   19    8 1
    20   20   38 1
    21   21    9 1
    22   22   10 1
    23   23   10 1
    24   24   16 1
    25   25   17 1
    26   26   17 1
    27   27   18 1
    28   28   18 1
    29   29    8 1
    30   30   11 1
    31   31   12 1
    32   32   12 1
    33   33   13 1
    34   34   13 1
    35   35   19 1
    36   36   19 1
    37   37   19 1
    38   39   20 1
    39   40   20 1
    40   41   21 1
    41   42   21 1
    42   43   21 1
    43   44   22 1
    44   45   22 1
    45   46   22 1
    46   47   23 1
    47   48   23 1
    48   49   23 1
    49   50   24 1
    50   51   24 1
    51   52   24 1
    52   53   25 1
    53   54   25 1
    54   55   25 1
    55   56   26 1
    56   57   26 1
    57   58   26 1
    58   59   27 1
    59   60   27 1
    60   61   27 1
    61   62   28 1
    62   63   28 1
    63   64   28 1
    64   10   11 1
    65   13   14 1
    66   14   15 1
    67   14   18 1
@<TRIPOS>SUBSTRUCTURE
     1 RES1 1

@<TRIPOS>CRYSIN
  11.3400   12.4250    8.3600 110.2800 100.7700  93.9800   2 1

