# MOL2 file generated by ConQuest
# Please check atom types

@<TRIPOS>MOLECULE
BUWFUU
    34    35     1
SMALL
NO_CHARGES
****
Generated from CSD

@<TRIPOS>ATOM
      1 C1         9.3583    5.0768    3.7946 C.ar      1 RES1    0.0000
      2 C2        10.5481    4.6249    4.3252 C.ar      1 RES1    0.0000
      3 C3        10.9117    4.9689    5.6131 C.ar      1 RES1    0.0000
      4 C4        10.0665    5.7730    6.3552 C.ar      1 RES1    0.0000
      5 C5         8.8694    6.2208    5.8419 C.ar      1 RES1    0.0000
      6 C6         8.5297    5.8707    4.5463 C.ar      1 RES1    0.0000
      7 C7        11.4407    6.4854    8.2832 C.2       1 RES1    0.0000
      8 C8        11.4336    6.6605    9.7077 C.2       1 RES1    0.0000
      9 C9        12.6142    7.2152   10.4016 C.2       1 RES1    0.0000
     10 C10       13.8188    7.5195    9.5750 C.3       1 RES1    0.0000
     11 C11       13.5500    7.8605    8.1045 C.3       1 RES1    0.0000
     12 C12       12.6901    6.7490    7.5105 C.3       1 RES1    0.0000
     13 C13       12.8374    9.2029    7.9910 C.3       1 RES1    0.0000
     14 C14       14.8727    7.9114    7.3567 C.3       1 RES1    0.0000
     15 N1        10.3248    6.0793    7.7296 N.pl3     1 RES1    0.0000
     16 N2        10.4095    6.3765   10.5189 N.2       1 RES1    0.0000
     17 O1        12.6161    7.4035   11.6031 O.2       1 RES1    0.0000
     18 O2         9.3096    5.9256    9.9902 O.2       1 RES1    0.0000
     19 H1         9.5801    5.9948    8.4389 H         1 RES1    0.0000
     20 H2         9.1158    4.8142    2.8642 H         1 RES1    0.0000
     21 H3        11.1378    4.0407    3.8062 H         1 RES1    0.0000
     22 H4        11.7512    4.5801    6.0361 H         1 RES1    0.0000
     23 H5         8.2547    6.7887    6.4013 H         1 RES1    0.0000
     24 H6         7.7325    6.1780    4.1714 H         1 RES1    0.0000
     25 H7        14.3572    6.6971    9.6115 H         1 RES1    0.0000
     26 H8        14.3154    8.2340    9.9960 H         1 RES1    0.0000
     27 H9        13.2174    5.8625    7.4970 H         1 RES1    0.0000
     28 H10       12.4595    6.9618    6.5743 H         1 RES1    0.0000
     29 H11       11.9403    9.2111    8.4389 H         1 RES1    0.0000
     30 H12       13.3909    9.9541    8.3620 H         1 RES1    0.0000
     31 H13       12.6901    9.4147    6.9972 H         1 RES1    0.0000
     32 H14       14.6711    8.0813    6.3821 H         1 RES1    0.0000
     33 H15       15.4387    8.5902    7.7085 H         1 RES1    0.0000
     34 H16       15.3599    6.9923    7.4009 H         1 RES1    0.0000
@<TRIPOS>BOND
     1    1    2 ar
     2    2    3 ar
     3    3    4 ar
     4    4    5 ar
     5    5    6 ar
     6    6    1 ar
     7    7    8 2
     8    8    9 1
     9    9   10 1
    10   10   11 1
    11   11   12 1
    12   12    7 1
    13   13   11 1
    14   14   11 1
    15   15    4 1
    16   16    8 1
    17   17    9 2
    18   18   16 2
    19   19   15 1
    20   20    1 1
    21   21    2 1
    22   22    3 1
    23   23    5 1
    24   24    6 1
    25   25   10 1
    26   26   10 1
    27   27   12 1
    28   28   12 1
    29   29   13 1
    30   30   13 1
    31   31   13 1
    32   32   14 1
    33   33   14 1
    34   34   14 1
    35    7   15 1
@<TRIPOS>SUBSTRUCTURE
     1 RES1 1

@<TRIPOS>CRYSIN
  13.0400   10.1780   19.2390  90.0000  92.3300  90.0000  15 1

