# MOL2 file generated by ConQuest
# Please check atom types

@<TRIPOS>MOLECULE
BUWKOU
    57    61     1
SMALL
NO_CHARGES
****
Generated from CSD

@<TRIPOS>ATOM
      1 O1         4.2710    4.1921   11.9313 O.3       1 RES1    0.0000
      2 O2         1.2262    5.7252   15.6653 O.2       1 RES1    0.0000
      3 O3         2.3908    5.1051   17.4764 O.3       1 RES1    0.0000
      4 O4         4.3651    7.0699   14.3469 O.3       1 RES1    0.0000
      5 O5         3.1181    8.9491   14.2797 O.2       1 RES1    0.0000
      6 O6         7.9856   11.7871   18.3244 O.2       1 RES1    0.0000
      7 O7         9.2664   10.0831   17.9688 O.2       1 RES1    0.0000
      8 N1         3.3126    4.7682   15.4795 N.am      1 RES1    0.0000
      9 N2         8.2354   10.7155   17.7859 N.pl3     1 RES1    0.0000
     10 C1         4.5062    4.1036   13.3430 C.3       1 RES1    0.0000
     11 H1         4.4806    3.1478   13.6363 H         1 RES1    0.0000
     12 C2         3.3679    4.8899   14.0122 C.3       1 RES1    0.0000
     13 H2         2.5182    4.4885   13.6695 H         1 RES1    0.0000
     14 C3         3.3492    6.3647   13.5698 C.3       1 RES1    0.0000
     15 H3         2.4503    6.7586   13.7634 H         1 RES1    0.0000
     16 C4         3.6475    6.4956   12.0753 C.3       1 RES1    0.0000
     17 H4         2.8157    6.3306   11.5646 H         1 RES1    0.0000
     18 H5         3.9409    7.4215   11.8850 H         1 RES1    0.0000
     19 C5         4.7221    5.5271   11.5992 C.3       1 RES1    0.0000
     20 H6         4.8502    5.6127   10.6107 H         1 RES1    0.0000
     21 C6         6.0632    5.6389   12.3139 C.3       1 RES1    0.0000
     22 H7         6.2251    6.5654   12.6216 H         1 RES1    0.0000
     23 H8         6.8057    5.3629   11.7211 H         1 RES1    0.0000
     24 C7         5.9221    4.6691   13.5170 C.3       1 RES1    0.0000
     25 H9         6.6016    3.9506   13.4779 H         1 RES1    0.0000
     26 H10        6.0113    5.1514   14.3766 H         1 RES1    0.0000
     27 C8         2.2275    5.2433   16.1354 C.2       1 RES1    0.0000
     28 C9         3.7070    4.5868   17.7401 C.3       1 RES1    0.0000
     29 H11        3.6675    3.8540   18.4040 H         1 RES1    0.0000
     30 H12        4.3000    5.2996   18.0872 H         1 RES1    0.0000
     31 C10        4.2204    4.0643   16.3866 C.3       1 RES1    0.0000
     32 H13        5.1581    4.3769   16.2365 H         1 RES1    0.0000
     33 C11        4.1658    2.5277   16.3089 C.3       1 RES1    0.0000
     34 H14        4.4834    2.2518   15.4134 H         1 RES1    0.0000
     35 H15        4.8017    2.1618   16.9731 H         1 RES1    0.0000
     36 C12        2.8275    1.8998   16.5451 C.ar      1 RES1    0.0000
     37 C13        2.5790    1.1673   17.7060 C.ar      1 RES1    0.0000
     38 H16        3.2454    1.1192   18.3819 H         1 RES1    0.0000
     39 C14        1.3736    0.5096   17.8861 C.ar      1 RES1    0.0000
     40 H17        1.2255    0.0100   18.6802 H         1 RES1    0.0000
     41 C15        0.3903    0.5718   16.9315 C.ar      1 RES1    0.0000
     42 H18       -0.4332    0.1166   17.0615 H         1 RES1    0.0000
     43 C16        0.6090    1.3078   15.7719 C.ar      1 RES1    0.0000
     44 H19       -0.0685    1.3624   15.1077 H         1 RES1    0.0000
     45 C17        1.8130    1.9603   15.5863 C.ar      1 RES1    0.0000
     46 H20        1.9535    2.4599   14.7909 H         1 RES1    0.0000
     47 C18        4.1201    8.3670   14.6073 C.2       1 RES1    0.0000
     48 C19        5.2411    8.9865   15.3756 C.ar      1 RES1    0.0000
     49 C20        5.0211   10.2318   15.9800 C.ar      1 RES1    0.0000
     50 H21        4.1900   10.6759   15.8627 H         1 RES1    0.0000
     51 C21        6.0134   10.8136   16.7468 C.ar      1 RES1    0.0000
     52 H22        5.8729   11.6552   17.1646 H         1 RES1    0.0000
     53 C22        7.2119   10.1447   16.8917 C.ar      1 RES1    0.0000
     54 C23        7.4666    8.9286   16.2814 C.ar      1 RES1    0.0000
     55 H23        8.3087    8.5007   16.3838 H         1 RES1    0.0000
     56 C24        6.4687    8.3505   15.5211 C.ar      1 RES1    0.0000
     57 H24        6.6223    7.5147   15.0948 H         1 RES1    0.0000
@<TRIPOS>BOND
     1    1   10 1
     2    2   27 2
     3    3   27 1
     4    4   14 1
     5    5   47 2
     6    6    9 2
     7    7    9 2
     8    8   12 1
     9    9   53 1
    10   10   11 1
    11   12   10 1
    12   13   12 1
    13   14   12 1
    14   15   14 1
    15   16   14 1
    16   17   16 1
    17   18   16 1
    18   19    1 1
    19   20   19 1
    20   21   19 1
    21   22   21 1
    22   23   21 1
    23   24   10 1
    24   25   24 1
    25   26   24 1
    26   27    8 1
    27   28    3 1
    28   29   28 1
    29   30   28 1
    30   31    8 1
    31   32   31 1
    32   33   31 1
    33   34   33 1
    34   35   33 1
    35   36   33 1
    36   37   36 ar
    37   38   37 1
    38   39   37 ar
    39   40   39 1
    40   41   39 ar
    41   42   41 1
    42   43   41 ar
    43   44   43 1
    44   45   36 ar
    45   46   45 1
    46   47    4 1
    47   48   47 1
    48   49   48 ar
    49   50   49 1
    50   51   49 ar
    51   52   51 1
    52   53   51 ar
    53   54   53 ar
    54   55   54 1
    55   56   48 ar
    56   57   56 1
    57   16   19 1
    58   21   24 1
    59   28   31 1
    60   43   45 ar
    61   54   56 ar
@<TRIPOS>SUBSTRUCTURE
     1 RES1 1

@<TRIPOS>CRYSIN
   6.9199   16.6550   18.4150  90.0000  90.0000  90.0000  19 1

