# MOL2 file generated by ConQuest
# Please check atom types

@<TRIPOS>MOLECULE
BUWKUA
   146   156     2
SMALL
NO_CHARGES
****
Generated from CSD

@<TRIPOS>ATOM
      1 O1        -0.3749    1.1594   13.6496 O.3       1 RES1    0.0000
      2 O2        -1.9358    5.2233   12.7554 O.2       1 RES1    0.0000
      3 O3        -0.3611    6.6687   12.0747 O.3       1 RES1    0.0000
      4 O4         0.0192    4.3595   15.6346 O.3       1 RES1    0.0000
      5 O5         1.7869    4.8542   16.9198 O.2       1 RES1    0.0000
      6 O6        -2.2591    8.9161   20.7312 O.2       1 RES1    0.0000
      7 O7        -4.0021    7.9460   19.9174 O.2       1 RES1    0.0000
      8 N1         0.3110    4.6803   12.7766 N.am      1 RES1    0.0000
      9 N2        -2.7806    8.0910   19.9935 N.pl3     1 RES1    0.0000
     10 C1        -0.8861    2.4638   13.2923 C.3       1 RES1    0.0000
     11 H1        -1.2258    2.4638   12.3517 H         1 RES1    0.0000
     12 C2         0.3695    3.3643   13.4192 C.3       1 RES1    0.0000
     13 H2         1.0873    2.8715   12.9288 H         1 RES1    0.0000
     14 C3         0.8674    3.4493   14.8503 C.3       1 RES1    0.0000
     15 H3         1.7994    3.8107   14.8419 H         1 RES1    0.0000
     16 C4         0.8927    2.0657   15.4760 C.3       1 RES1    0.0000
     17 H4         0.9354    2.1566   16.4611 H         1 RES1    0.0000
     18 H5         1.7109    1.5923   15.1801 H         1 RES1    0.0000
     19 C5        -0.3280    1.2271   15.1061 C.3       1 RES1    0.0000
     20 H6        -0.2395    0.3073   15.4887 H         1 RES1    0.0000
     21 C6        -1.6785    1.8165   15.4760 C.3       1 RES1    0.0000
     22 H7        -1.6174    2.3556   16.3026 H         1 RES1    0.0000
     23 H8        -2.3545    1.1053   15.6029 H         1 RES1    0.0000
     24 C7        -2.0244    2.6938   14.2732 C.3       1 RES1    0.0000
     25 H9        -2.8899    2.4232   13.8758 H         1 RES1    0.0000
     26 H10       -2.0756    3.6464   14.5353 H         1 RES1    0.0000
     27 C8        -0.7529    5.4764   12.5778 C.2       1 RES1    0.0000
     28 C9         1.0858    6.7808   12.2544 C.3       1 RES1    0.0000
     29 C10        1.5270    5.3025   12.1889 C.3       1 RES1    0.0000
     30 H11        2.2975    5.1634   12.8104 H         1 RES1    0.0000
     31 C11        1.6044    7.6639   11.1235 C.ar      1 RES1    0.0000
     32 C12        2.9602    7.9344   11.0009 C.ar      1 RES1    0.0000
     33 H12        3.5756    7.5441   11.6118 H         1 RES1    0.0000
     34 C13        3.4292    8.7828    9.9841 C.ar      1 RES1    0.0000
     35 H13        4.3575    8.9779    9.9249 H         1 RES1    0.0000
     36 C14        2.5551    9.3374    9.0645 C.ar      1 RES1    0.0000
     37 H14        2.8807    9.8862    8.3606 H         1 RES1    0.0000
     38 C15        1.2177    9.0842    9.1850 C.ar      1 RES1    0.0000
     39 H15        0.6059    9.4881    8.5804 H         1 RES1    0.0000
     40 C16        0.7384    8.2340   10.1955 C.ar      1 RES1    0.0000
     41 H16       -0.1907    8.0446   10.2462 H         1 RES1    0.0000
     42 C17        1.3618    7.3992   13.6179 C.ar      1 RES1    0.0000
     43 C18        2.6511    7.3547   14.1569 C.ar      1 RES1    0.0000
     44 H17        3.3388    6.8851   13.6982 H         1 RES1    0.0000
     45 C19        2.9324    7.9982   15.3661 C.ar      1 RES1    0.0000
     46 H18        3.8114    7.9924   15.7276 H         1 RES1    0.0000
     47 C20        1.8976    8.6494   16.0341 C.ar      1 RES1    0.0000
     48 H19        2.0779    9.0919   16.8564 H         1 RES1    0.0000
     49 C21        0.6556    8.6668   15.5416 C.ar      1 RES1    0.0000
     50 H20       -0.0369    9.0997   16.0278 H         1 RES1    0.0000
     51 C22        0.3651    8.0581   14.3282 C.ar      1 RES1    0.0000
     52 H21       -0.5183    8.0929   13.9815 H         1 RES1    0.0000
     53 C23        1.8883    4.7363   10.8106 C.3       1 RES1    0.0000
     54 H22        2.5468    5.3721   10.4090 H         1 RES1    0.0000
     55 C24        0.7007    4.6590    9.8276 C.3       1 RES1    0.0000
     56 H23        1.0040    4.2745    8.9778 H         1 RES1    0.0000
     57 H24        0.3476    5.5595    9.6712 H         1 RES1    0.0000
     58 H25       -0.0035    4.0948   10.2081 H         1 RES1    0.0000
     59 C25        2.5788    3.3759   10.8613 C.3       1 RES1    0.0000
     60 H26        3.2349    3.3701   11.5885 H         1 RES1    0.0000
     61 H27        3.0343    3.2097   10.0094 H         1 RES1    0.0000
     62 H28        1.9115    2.6764   11.0178 H         1 RES1    0.0000
     63 C26        0.6017    4.9508   16.6619 C.2       1 RES1    0.0000
     64 C27       -0.3193    5.7624   17.5075 C.ar      1 RES1    0.0000
     65 C28        0.2287    6.6339   18.4271 C.ar      1 RES1    0.0000
     66 H29        1.1734    6.7074   18.4926 H         1 RES1    0.0000
     67 C29       -0.5629    7.3992   19.2494 C.ar      1 RES1    0.0000
     68 H30       -0.1864    8.0079   19.8751 H         1 RES1    0.0000
     69 C30       -1.9342    7.2465   19.1247 C.ar      1 RES1    0.0000
     70 C31       -2.5197    6.3731   18.2558 C.ar      1 RES1    0.0000
     71 H31       -3.4634    6.2726   18.2220 H         1 RES1    0.0000
     72 C32       -1.6858    5.6349   17.4187 C.ar      1 RES1    0.0000
     73 H32       -2.0635    5.0378   16.7824 H         1 RES1    0.0000
     74 O8         2.4855   18.8834   16.6789 O.3       2 RES2    0.0000
     75 O9         3.9208   14.7829   16.0468 O.2       2 RES2    0.0000
     76 O10        2.3472   13.3220   15.4168 O.3       2 RES2    0.0000
     77 O11        1.8647   15.9114   18.8351 O.3       2 RES2    0.0000
     78 O12        0.0624   15.5056   20.1182 O.2       2 RES2    0.0000
     79 O13        4.1537   11.2987   23.7626 O.2       2 RES2    0.0000
     80 O14        5.8584   12.1065   22.7860 O.2       2 RES2    0.0000
     81 N3         1.6666   15.3297   16.0616 N.am      2 RES2    0.0000
     82 N4         4.6427   12.0698   22.9509 N.pl3     2 RES2    0.0000
     83 C33        2.9356   17.5307   16.4463 C.3       2 RES2    0.0000
     84 H33        3.3150   17.4438   15.5268 H         2 RES2    0.0000
     85 C34        1.6388   16.6979   16.5753 C.3       2 RES2    0.0000
     86 H34        0.9750   17.1732   15.9982 H         2 RES2    0.0000
     87 C35        1.0487   16.7674   17.9789 C.3       2 RES2    0.0000
     88 H35        0.1083   16.4273   17.9641 H         2 RES2    0.0000
     89 C36        1.0669   18.2129   18.4905 C.3       2 RES2    0.0000
     90 H36        0.2878   18.6979   18.1205 H         2 RES2    0.0000
     91 H37        0.9803   18.2090   19.4777 H         2 RES2    0.0000
     92 C37        2.3520   18.9491   18.0994 C.3       2 RES2    0.0000
     93 H38        2.3050   19.9037   18.3975 H         2 RES2    0.0000
     94 C38        3.6235   18.2960   18.6321 C.3       2 RES2    0.0000
     95 H39        3.4448   17.7955   19.4692 H         2 RES2    0.0000
     96 H40        4.3266   18.9723   18.8055 H         2 RES2    0.0000
     97 C39        4.0364   17.3452   17.4969 C.3       2 RES2    0.0000
     98 H41        4.9221   17.5926   17.1291 H         2 RES2    0.0000
     99 H42        4.0705   16.4061   17.8119 H         2 RES2    0.0000
    100 C40        2.7404   14.5510   15.8713 C.2       2 RES2    0.0000
    101 C41        0.9014   13.2041   15.6050 C.3       2 RES2    0.0000
    102 C42        0.4449   14.6998   15.5225 C.3       2 RES2    0.0000
    103 H43       -0.3071   14.8466   16.1652 H         2 RES2    0.0000
    104 C43        0.3682   12.2978   14.5142 C.ar      2 RES2    0.0000
    105 C44       -1.0026   12.0446   14.4106 C.ar      2 RES2    0.0000
    106 H44       -1.6013   12.4215   15.0448 H         2 RES2    0.0000
    107 C45       -1.4917   11.2524   13.3896 C.ar      2 RES2    0.0000
    108 H45       -2.4264   11.0978   13.3156 H         2 RES2    0.0000
    109 C46       -0.6215   10.6823   12.4721 C.ar      2 RES2    0.0000
    110 H46       -0.9601   10.1374   11.7724 H         2 RES2    0.0000
    111 C47        0.7157   10.9045   12.5736 C.ar      2 RES2    0.0000
    112 H47        1.3114   10.5161   11.9437 H         2 RES2    0.0000
    113 C48        1.2099   11.7007   13.5989 C.ar      2 RES2    0.0000
    114 H48        2.1474   11.8360   13.6707 H         2 RES2    0.0000
    115 C49        0.6665   12.5992   16.9917 C.ar      2 RES2    0.0000
    116 C50       -0.5887   12.6031   17.5709 C.ar      2 RES2    0.0000
    117 H49       -1.3015   13.0708   17.1545 H         2 RES2    0.0000
    118 C51       -0.8143   11.9190   18.7674 C.ar      2 RES2    0.0000
    119 H50       -1.6859   11.8959   19.1458 H         2 RES2    0.0000
    120 C52        0.2259   11.2833   19.3952 C.ar      2 RES2    0.0000
    121 H51        0.0748   10.8311   20.2154 H         2 RES2    0.0000
    122 C53        1.4614   11.2929   18.8541 C.ar      2 RES2    0.0000
    123 H52        2.1752   10.8543   19.3022 H         2 RES2    0.0000
    124 C54        1.7003   11.9442   17.6428 C.ar      2 RES2    0.0000
    125 H53        2.5718   11.9384   17.2644 H         2 RES2    0.0000
    126 C55        0.0253   15.2119   14.1379 C.3       2 RES2    0.0000
    127 H54       -0.6345   14.5490   13.7807 H         2 RES2    0.0000
    128 C56        1.1721   15.2621   13.1338 C.3       2 RES2    0.0000
    129 H55        0.8214   15.4978   12.2502 H         2 RES2    0.0000
    130 H56        1.6076   14.3848   13.0894 H         2 RES2    0.0000
    131 H57        1.8245   15.9365   13.4171 H         2 RES2    0.0000
    132 C57       -0.6861   16.5587   14.1675 C.3       2 RES2    0.0000
    133 H58       -1.1862   16.6824   13.3325 H         2 RES2    0.0000
    134 H59       -0.0243   17.2757   14.2605 H         2 RES2    0.0000
    135 H60       -1.3055   16.5858   14.9264 H         2 RES2    0.0000
    136 C58        1.2361   15.3471   19.8730 C.2       2 RES2    0.0000
    137 C59        2.1520   14.5432   20.6932 C.ar      2 RES2    0.0000
    138 C60        1.6385   13.7703   21.7184 C.ar      2 RES2    0.0000
    139 H61        0.7076   13.8031   21.9045 H         2 RES2    0.0000
    140 C61        2.4482   12.9587   22.4773 C.ar      2 RES2    0.0000
    141 H62        2.0898   12.4253   23.1771 H         2 RES2    0.0000
    142 C62        3.7877   12.9432   22.1920 C.ar      2 RES2    0.0000
    143 C63        4.3599   13.7181   21.2132 C.ar      2 RES2    0.0000
    144 H63        5.2976   13.7065   21.0631 H         2 RES2    0.0000
    145 C64        3.5161   14.5201   20.4501 C.ar      2 RES2    0.0000
    146 H64        3.8789   15.0573   19.7546 H         2 RES2    0.0000
@<TRIPOS>BOND
     1    1   10 1
     2    2   27 2
     3    3   27 1
     4    4   14 1
     5    5   63 2
     6    6    9 2
     7    7    9 2
     8    8   12 1
     9    9   69 1
    10   10   11 1
    11   12   10 1
    12   13   12 1
    13   14   12 1
    14   15   14 1
    15   16   14 1
    16   17   16 1
    17   18   16 1
    18   19    1 1
    19   20   19 1
    20   21   19 1
    21   22   21 1
    22   23   21 1
    23   24   10 1
    24   25   24 1
    25   26   24 1
    26   27    8 1
    27   28    3 1
    28   29    8 1
    29   30   29 1
    30   31   28 1
    31   32   31 ar
    32   33   32 1
    33   34   32 ar
    34   35   34 1
    35   36   34 ar
    36   37   36 1
    37   38   36 ar
    38   39   38 1
    39   40   31 ar
    40   41   40 1
    41   42   28 1
    42   43   42 ar
    43   44   43 1
    44   45   43 ar
    45   46   45 1
    46   47   45 ar
    47   48   47 1
    48   49   47 ar
    49   50   49 1
    50   51   42 ar
    51   52   51 1
    52   53   29 1
    53   54   53 1
    54   55   53 1
    55   56   55 1
    56   57   55 1
    57   58   55 1
    58   59   53 1
    59   60   59 1
    60   61   59 1
    61   62   59 1
    62   63    4 1
    63   64   63 1
    64   65   64 ar
    65   66   65 1
    66   67   65 ar
    67   68   67 1
    68   69   67 ar
    69   70   69 ar
    70   71   70 1
    71   72   64 ar
    72   73   72 1
    73   74   83 1
    74   75  100 2
    75   76  100 1
    76   77   87 1
    77   78  136 2
    78   79   82 2
    79   80   82 2
    80   81   85 1
    81   82  142 1
    82   83   84 1
    83   85   83 1
    84   86   85 1
    85   87   85 1
    86   88   87 1
    87   89   87 1
    88   90   89 1
    89   91   89 1
    90   92   74 1
    91   93   92 1
    92   94   92 1
    93   95   94 1
    94   96   94 1
    95   97   83 1
    96   98   97 1
    97   99   97 1
    98  100   81 1
    99  101   76 1
   100  102   81 1
   101  103  102 1
   102  104  101 1
   103  105  104 ar
   104  106  105 1
   105  107  105 ar
   106  108  107 1
   107  109  107 ar
   108  110  109 1
   109  111  109 ar
   110  112  111 1
   111  113  104 ar
   112  114  113 1
   113  115  101 1
   114  116  115 ar
   115  117  116 1
   116  118  116 ar
   117  119  118 1
   118  120  118 ar
   119  121  120 1
   120  122  120 ar
   121  123  122 1
   122  124  115 ar
   123  125  124 1
   124  126  102 1
   125  127  126 1
   126  128  126 1
   127  129  128 1
   128  130  128 1
   129  131  128 1
   130  132  126 1
   131  133  132 1
   132  134  132 1
   133  135  132 1
   134  136   77 1
   135  137  136 1
   136  138  137 ar
   137  139  138 1
   138  140  138 ar
   139  141  140 1
   140  142  140 ar
   141  143  142 ar
   142  144  143 1
   143  145  137 ar
   144  146  145 1
   145   16   19 1
   146   21   24 1
   147   28   29 1
   148   38   40 ar
   149   49   51 ar
   150   70   72 ar
   151   89   92 1
   152   94   97 1
   153  101  102 1
   154  111  113 ar
   155  122  124 ar
   156  143  145 ar
@<TRIPOS>SUBSTRUCTURE
     1 RES1 1
     2 RES2 74

@<TRIPOS>CRYSIN
   6.7539   19.3240   21.1970  90.0000  94.2310  90.0000   4 1

