# MOL2 file generated by ConQuest
# Please check atom types

@<TRIPOS>MOLECULE
BUWQIT
    59    62     1
SMALL
NO_CHARGES
****
Generated from CSD

@<TRIPOS>ATOM
      1 O1        -0.8986   -2.2980    0.3762 O.2       1 RES1    0.0000
      2 C1        -0.4861   -1.4317    1.1124 C.2       1 RES1    0.0000
      3 N1        -0.8912   -1.0385    2.3444 N.am      1 RES1    0.0000
      4 O2        -0.3306    3.1175    0.8082 O.2       1 RES1    0.0000
      5 N2         1.3921    1.7860    0.1460 N.am      1 RES1    0.0000
      6 H1         2.2423    1.7490    0.0234 H         1 RES1    0.0000
      7 C2         0.5848   -0.3465    1.0607 C.3       1 RES1    0.0000
      8 H2         1.4750   -0.7280    1.2064 H         1 RES1    0.0000
      9 O3         1.8093    3.8640    0.7755 O.3       1 RES1    0.0000
     10 C3        -0.0307    0.1577    2.4060 C.3       1 RES1    0.0000
     11 H3        -0.5559    0.9733    2.2658 H         1 RES1    0.0000
     12 C4         0.5913    0.6044   -0.1282 C.3       1 RES1    0.0000
     13 H4        -0.3296    0.8886   -0.3037 H         1 RES1    0.0000
     14 C5         1.1184   -0.1158   -1.3652 C.3       1 RES1    0.0000
     15 H5         1.1202    0.4886   -2.1110 H         1 RES1    0.0000
     16 H6         0.5541   -0.8662   -1.5633 H         1 RES1    0.0000
     17 H7         2.0133   -0.4224   -1.2001 H         1 RES1    0.0000
     18 C6         0.8511    2.9287    0.5825 C.2       1 RES1    0.0000
     19 C7         1.3456    5.1595    1.2479 C.3       1 RES1    0.0000
     20 H8         0.4926    5.3619    0.8310 H         1 RES1    0.0000
     21 H9         1.9788    5.8417    0.9770 H         1 RES1    0.0000
     22 C8         1.1873    5.1974    2.7373 C.ar      1 RES1    0.0000
     23 C9         2.2740    5.2928    3.6081 C.ar      1 RES1    0.0000
     24 H10        3.1372    5.3210    3.2657 H         1 RES1    0.0000
     25 C10        2.0794    5.3463    4.9781 C.ar      1 RES1    0.0000
     26 H11        2.8104    5.4145    5.5490 H         1 RES1    0.0000
     27 C11        0.8418    5.3016    5.4799 C.ar      1 RES1    0.0000
     28 H12        0.7152    5.3434    6.4012 H         1 RES1    0.0000
     29 C12       -0.2226    5.1955    4.6622 C.ar      1 RES1    0.0000
     30 H13       -1.0793    5.1585    5.0233 H         1 RES1    0.0000
     31 C13       -0.0549    5.1390    3.2922 C.ar      1 RES1    0.0000
     32 H14       -0.7999    5.0612    2.7426 H         1 RES1    0.0000
     33 C14       -2.0216   -1.4025    3.1966 C.3       1 RES1    0.0000
     34 H15       -1.6994   -1.5972    4.0914 H         1 RES1    0.0000
     35 H16       -2.4425   -2.2036    2.8488 H         1 RES1    0.0000
     36 C15       -3.0311   -0.3037    3.2651 C.ar      1 RES1    0.0000
     37 C16       -2.8886    0.6998    4.1604 C.ar      1 RES1    0.0000
     38 H17       -2.1948    0.6511    4.7790 H         1 RES1    0.0000
     39 C17       -3.7211    1.7772    4.1949 C.ar      1 RES1    0.0000
     40 H18       -3.5991    2.4615    4.8135 H         1 RES1    0.0000
     41 C18       -4.6998    1.8191    3.3241 C.ar      1 RES1    0.0000
     42 H19       -5.2585    2.5627    3.3294 H         1 RES1    0.0000
     43 C19       -4.9437    0.8516    2.4267 C.ar      1 RES1    0.0000
     44 H20       -5.6701    0.9052    1.8479 H         1 RES1    0.0000
     45 C20       -4.0619   -0.2482    2.3922 C.ar      1 RES1    0.0000
     46 H21       -4.1876   -0.9295    1.7709 H         1 RES1    0.0000
     47 C21        0.8465    0.2881    3.6188 C.ar      1 RES1    0.0000
     48 C22        1.0048    1.5164    4.2347 C.ar      1 RES1    0.0000
     49 H22        0.5289    2.2493    3.9161 H         1 RES1    0.0000
     50 C23        1.8568    1.6789    5.3153 C.ar      1 RES1    0.0000
     51 H23        1.9583    2.5092    5.7189 H         1 RES1    0.0000
     52 C24        2.5450    0.5850    5.7693 C.ar      1 RES1    0.0000
     53 C25        2.4137   -0.6385    5.2065 C.ar      1 RES1    0.0000
     54 H24        2.8923   -1.3655    5.5330 H         1 RES1    0.0000
     55 C26        1.5486   -0.7884    4.1259 C.ar      1 RES1    0.0000
     56 H25        1.4406   -1.6274    3.7409 H         1 RES1    0.0000
     57 N3         3.4752    0.7514    6.9216 N.pl3     1 RES1    0.0000
     58 O4         4.0274   -0.2365    7.3358 O.2       1 RES1    0.0000
     59 O5         3.6289    1.8697    7.3623 O.2       1 RES1    0.0000
@<TRIPOS>BOND
     1    1    2 2
     2    2    3 1
     3    3   10 1
     4    4   18 2
     5    5    6 1
     6    7    2 1
     7    8    7 1
     8    9   18 1
     9   10    7 1
    10   11   10 1
    11   12    5 1
    12   13   12 1
    13   14   12 1
    14   15   14 1
    15   16   14 1
    16   17   14 1
    17   18    5 1
    18   19    9 1
    19   20   19 1
    20   21   19 1
    21   22   19 1
    22   23   22 ar
    23   24   23 1
    24   25   23 ar
    25   26   25 1
    26   27   25 ar
    27   28   27 1
    28   29   27 ar
    29   30   29 1
    30   31   22 ar
    31   32   31 1
    32   33    3 1
    33   34   33 1
    34   35   33 1
    35   36   33 1
    36   37   36 ar
    37   38   37 1
    38   39   37 ar
    39   40   39 1
    40   41   39 ar
    41   42   41 1
    42   43   41 ar
    43   44   43 1
    44   45   36 ar
    45   46   45 1
    46   47   10 1
    47   48   47 ar
    48   49   48 1
    49   50   48 ar
    50   51   50 1
    51   52   50 ar
    52   53   52 ar
    53   54   53 1
    54   55   47 ar
    55   56   55 1
    56   57   52 1
    57   58   57 2
    58   59   57 2
    59    7   12 1
    60   29   31 ar
    61   43   45 ar
    62   53   55 ar
@<TRIPOS>SUBSTRUCTURE
     1 RES1 1

@<TRIPOS>CRYSIN
   9.3120    9.7330   26.5500  90.0000  90.0000  90.0000  19 1

