# MOL2 file generated by ConQuest
# Please check atom types

@<TRIPOS>MOLECULE
BUWRIW
    36    40     1
SMALL
NO_CHARGES
****
Generated from CSD

@<TRIPOS>ATOM
      1 O1         5.4056    1.3308    8.0419 O.2       1 RES1    0.0000
      2 O2         4.1495   -0.8309    7.9664 O.2       1 RES1    0.0000
      3 N1         5.3854    0.6394    9.1017 N.pl3     1 RES1    0.0000
      4 N2         4.6973   -0.5267    9.0593 N.pl3     1 RES1    0.0000
      5 C1         7.4677   -0.4653   13.3848 C.ar      1 RES1    0.0000
      6 H1         7.0592   -1.3010   13.4055 H         1 RES1    0.0000
      7 C2         8.4458   -0.1682   14.2981 C.ar      1 RES1    0.0000
      8 H2         8.7011   -0.8077   14.9231 H         1 RES1    0.0000
      9 C3         9.0634    1.0844   14.3006 C.ar      1 RES1    0.0000
     10 H3         9.6812    1.2998   14.9616 H         1 RES1    0.0000
     11 C4         8.7554    1.9887   13.3315 C.ar      1 RES1    0.0000
     12 H4         9.1867    2.8125   13.3220 H         1 RES1    0.0000
     13 C5         7.6127    2.5488   11.2211 C.ar      1 RES1    0.0000
     14 H5         8.0230    3.3833   11.2184 H         1 RES1    0.0000
     15 C6         6.8648    2.1820   10.1630 C.ar      1 RES1    0.0000
     16 H6         6.8424    2.7063    9.3958 H         1 RES1    0.0000
     17 C7         3.7486   -2.4576   10.1017 C.ar      1 RES1    0.0000
     18 H7         3.4472   -2.7409    9.2689 H         1 RES1    0.0000
     19 C8         3.4593   -3.1698   11.2088 C.ar      1 RES1    0.0000
     20 H8         3.0413   -3.9965   11.1236 H         1 RES1    0.0000
     21 C9         3.2845   -3.2980   13.6737 C.ar      1 RES1    0.0000
     22 H9         2.8502   -4.1176   13.6031 H         1 RES1    0.0000
     23 C10        3.4253   -2.7266   14.8974 C.ar      1 RES1    0.0000
     24 H10        3.1058   -3.1620   15.6537 H         1 RES1    0.0000
     25 C11        4.0566   -1.4757   15.0189 C.ar      1 RES1    0.0000
     26 H11        4.1007   -1.0540   15.8464 H         1 RES1    0.0000
     27 C12        4.6041   -0.8828   13.9159 C.ar      1 RES1    0.0000
     28 H12        5.0349   -0.0638   14.0093 H         1 RES1    0.0000
     29 C13        4.5335   -1.4787   12.6389 C.ar      1 RES1    0.0000
     30 C14        5.0730   -0.8566   11.4403 C.ar      1 RES1    0.0000
     31 C15        6.0611    0.1962   11.3929 C.ar      1 RES1    0.0000
     32 C16        7.0696    0.4778   12.4122 C.ar      1 RES1    0.0000
     33 C17        7.7914    1.6988   12.3380 C.ar      1 RES1    0.0000
     34 C18        6.1150    0.9860   10.2416 C.ar      1 RES1    0.0000
     35 C19        4.5172   -1.2717   10.2223 C.ar      1 RES1    0.0000
     36 C20        3.7815   -2.6789   12.5085 C.ar      1 RES1    0.0000
@<TRIPOS>BOND
     1    1    3 1
     2    2    4 1
     3    3    4 1
     4    4   35 1
     5    5    6 1
     6    7    5 ar
     7    8    7 1
     8    9    7 ar
     9   10    9 1
    10   11    9 ar
    11   12   11 1
    12   13   14 1
    13   15   13 ar
    14   16   15 1
    15   17   18 1
    16   19   17 ar
    17   20   19 1
    18   21   22 1
    19   23   21 ar
    20   24   23 1
    21   25   23 ar
    22   26   25 1
    23   27   25 ar
    24   28   27 1
    25   29   27 ar
    26   30   29 ar
    27   31   30 1
    28   32    5 ar
    29   33   11 ar
    30   34    3 1
    31   35   17 ar
    32   36   19 ar
    33   13   33 ar
    34   15   34 ar
    35   21   36 ar
    36   29   36 ar
    37   30   35 ar
    38   31   32 ar
    39   31   34 ar
    40   32   33 ar
@<TRIPOS>SUBSTRUCTURE
     1 RES1 1

@<TRIPOS>CRYSIN
  15.2100    5.9650   16.2170  90.0000  98.0200  90.0000 231 1

