# MOL2 file generated by ConQuest
# Please check atom types

@<TRIPOS>MOLECULE
BUWROC
    36    39     2
SMALL
NO_CHARGES
****
Generated from CSD

@<TRIPOS>ATOM
      1 N1        -0.3919    0.6575    6.6753 N.ar      1 RES1    0.0000
      2 N2        -0.9847    1.7971    6.9232 N.pl3     1 RES1    0.0000
      3 O1        -0.9971    2.2137    8.1288 O.2       1 RES1    0.0000
      4 C1         0.3097    1.8271    1.9881 C.ar      1 RES1    0.0000
      5 H1        -0.1177    2.6479    2.0784 H         1 RES1    0.0000
      6 C2        -2.2744    2.8568    3.6059 C.ar      1 RES1    0.0000
      7 C3        -1.4149    2.1849    4.5662 C.ar      1 RES1    0.0000
      8 C4        -0.4712    1.1336    4.2806 C.ar      1 RES1    0.0000
      9 C5         0.2004    0.8766    3.0219 C.ar      1 RES1    0.0000
     10 C6         0.9327   -0.3362    2.8706 C.ar      1 RES1    0.0000
     11 C7        -0.1053    0.3368    5.3739 C.ar      1 RES1    0.0000
     12 C8        -1.5604    2.5620    5.9022 C.ar      1 RES1    0.0000
     13 C9        -2.9239    4.0540    3.9902 C.ar      1 RES1    0.0000
     14 C10        1.0283    1.5713    0.8582 C.ar      1 RES1    0.0000
     15 H2         1.0929    2.2222    0.1967 H         1 RES1    0.0000
     16 C11        1.6681    0.3470    0.6810 C.ar      1 RES1    0.0000
     17 H3         2.1239    0.1657   -0.1097 H         1 RES1    0.0000
     18 C12        1.6193   -0.5812    1.6746 C.ar      1 RES1    0.0000
     19 H4         2.0511   -1.3966    1.5562 H         1 RES1    0.0000
     20 C13        1.0598   -1.2213    3.9800 C.ar      1 RES1    0.0000
     21 H5         1.4546   -2.0540    3.8574 H         1 RES1    0.0000
     22 C14        0.6190   -0.8730    5.1990 C.ar      1 RES1    0.0000
     23 H6         0.7878   -1.4236    5.9289 H         1 RES1    0.0000
     24 C15       -2.5974    2.3146    2.3503 C.ar      1 RES1    0.0000
     25 H7        -2.2323    1.4956    2.1045 H         1 RES1    0.0000
     26 C16       -2.2613    3.7352    6.2901 C.ar      1 RES1    0.0000
     27 H8        -2.3111    3.9826    7.1857 H         1 RES1    0.0000
     28 C17       -2.8538    4.4821    5.3386 C.ar      1 RES1    0.0000
     29 H9        -3.2276    5.3011    5.5738 H         1 RES1    0.0000
     30 C18       -3.7297    4.7259    3.0456 C.ar      1 RES1    0.0000
     31 H10       -4.1040    5.5467    3.2708 H         1 RES1    0.0000
     32 C19       -3.9703    4.2017    1.8199 C.ar      1 RES1    0.0000
     33 H11       -4.4915    4.6677    1.2063 H         1 RES1    0.0000
     34 C20       -3.4305    2.9559    1.4840 C.ar      1 RES1    0.0000
     35 H12       -3.6412    2.5638    0.6667 H         1 RES1    0.0000
     36 O2        -0.2296   -0.1243    7.5582 Du        2 SUP2    0.0000
@<TRIPOS>BOND
     1    1    2 ar
     2    2    3 1
     3    4    5 1
     4    6    7 ar
     5    7    8 ar
     6    8    9 ar
     7    9    4 ar
     8   10    9 ar
     9   11    1 ar
    10   12    2 ar
    11   13    6 ar
    12   14    4 ar
    13   15   14 1
    14   16   14 ar
    15   17   16 1
    16   18   10 ar
    17   19   18 1
    18   20   10 ar
    19   21   20 1
    20   22   11 ar
    21   23   22 1
    22   24    6 ar
    23   25   24 1
    24   26   12 ar
    25   27   26 1
    26   28   13 ar
    27   29   28 1
    28   30   13 ar
    29   31   30 1
    30   32   30 ar
    31   33   32 1
    32   34   24 ar
    33   35   34 1
    34    7   12 ar
    35    8   11 ar
    36   16   18 ar
    37   20   22 ar
    38   26   28 ar
    39   32   34 ar
@<TRIPOS>SUBSTRUCTURE
     1 RES1 1
     2 SUP2 36

@<TRIPOS>CRYSIN
  13.4065    6.0042   18.0370  90.0000 105.1860  90.0000 231 1

