# MOL2 file generated by ConQuest
# Please check atom types

@<TRIPOS>MOLECULE
BUWSAP
    42    44     1
SMALL
NO_CHARGES
****
Generated from CSD

@<TRIPOS>ATOM
      1 O1        -3.2085    7.2468    2.2256 O.2       1 RES1    0.0000
      2 O2        -2.4763    9.2176    2.4814 O.2       1 RES1    0.0000
      3 O3         4.6772    4.3541    9.2295 O.2       1 RES1    0.0000
      4 O4         4.4818    3.9871    7.1193 O.2       1 RES1    0.0000
      5 N1        -2.7159    8.1169    2.9068 N.pl3     1 RES1    0.0000
      6 N2         4.0467    4.3904    8.1810 N.pl3     1 RES1    0.0000
      7 C1        -2.3823    7.8155    4.3069 C.ar      1 RES1    0.0000
      8 C2        -1.7155    8.7602    5.0506 C.ar      1 RES1    0.0000
      9 H1        -1.5094    9.5945    4.6960 H         1 RES1    0.0000
     10 C3        -1.3581    8.4238    6.3450 C.ar      1 RES1    0.0000
     11 C4        -1.6599    7.1826    6.8541 C.ar      1 RES1    0.0000
     12 C5        -2.3905    6.2662    6.1042 C.ar      1 RES1    0.0000
     13 H2        -2.6258    5.4428    6.4649 H         1 RES1    0.0000
     14 C6        -2.7602    6.5979    4.8149 C.ar      1 RES1    0.0000
     15 H3        -3.2586    6.0043    4.2998 H         1 RES1    0.0000
     16 C7        -1.0921    6.9955    8.2448 C.3       1 RES1    0.0000
     17 C8        -0.8824    8.4728    8.6565 C.3       1 RES1    0.0000
     18 H4        -1.6706    8.8081    9.1127 H         1 RES1    0.0000
     19 H5        -0.1245    8.5482    9.2570 H         1 RES1    0.0000
     20 C9        -0.6262    9.2870    7.3661 C.3       1 RES1    0.0000
     21 C10       -2.0695    6.2707    9.1818 C.3       1 RES1    0.0000
     22 H6        -2.9072    6.7390    9.1940 H         1 RES1    0.0000
     23 H7        -1.7028    6.2458   10.0688 H         1 RES1    0.0000
     24 H8        -2.2077    5.3745    8.8678 H         1 RES1    0.0000
     25 C11        0.8660    9.3604    7.0207 C.3       1 RES1    0.0000
     26 H9         0.9760    9.7894    6.1693 H         1 RES1    0.0000
     27 H10        1.2294    8.4733    6.9811 H         1 RES1    0.0000
     28 H11        1.3257    9.8644    7.6953 H         1 RES1    0.0000
     29 C12       -1.2094   10.6921    7.4515 C.3       1 RES1    0.0000
     30 H12       -1.0417   11.1589    6.6305 H         1 RES1    0.0000
     31 H13       -0.7992   11.1655    8.1790 H         1 RES1    0.0000
     32 H14       -2.1565   10.6374    7.5998 H         1 RES1    0.0000
     33 C13        0.2337    6.2285    8.2115 C.ar      1 RES1    0.0000
     34 C14        0.7096    5.5813    7.0857 C.ar      1 RES1    0.0000
     35 H15        0.1864    5.5711    6.3166 H         1 RES1    0.0000
     36 C15        1.9340    4.9519    7.0684 C.ar      1 RES1    0.0000
     37 H16        2.2361    4.5215    6.3024 H         1 RES1    0.0000
     38 C16        2.6989    4.9730    8.2094 C.ar      1 RES1    0.0000
     39 C17        2.2345    5.5508    9.3616 C.ar      1 RES1    0.0000
     40 H17        2.7449    5.5195   10.1389 H         1 RES1    0.0000
     41 C18        1.0172    6.1740    9.3606 C.ar      1 RES1    0.0000
     42 H18        0.7059    6.5690   10.1439 H         1 RES1    0.0000
@<TRIPOS>BOND
     1    1    5 2
     2    2    5 2
     3    3    6 2
     4    4    6 2
     5    5    7 1
     6    6   38 1
     7    7    8 ar
     8    8    9 1
     9   10    8 ar
    10   11   10 ar
    11   12   11 ar
    12   13   12 1
    13   14    7 ar
    14   15   14 1
    15   16   11 1
    16   17   16 1
    17   18   17 1
    18   19   17 1
    19   20   10 1
    20   21   16 1
    21   22   21 1
    22   23   21 1
    23   24   21 1
    24   25   20 1
    25   26   25 1
    26   27   25 1
    27   28   25 1
    28   29   20 1
    29   30   29 1
    30   31   29 1
    31   32   29 1
    32   33   16 1
    33   34   33 ar
    34   35   34 1
    35   36   34 ar
    36   37   36 1
    37   38   36 ar
    38   39   38 ar
    39   40   39 1
    40   41   33 ar
    41   42   41 1
    42   12   14 ar
    43   17   20 1
    44   39   41 ar
@<TRIPOS>SUBSTRUCTURE
     1 RES1 1

@<TRIPOS>CRYSIN
   9.5010   16.6600   12.7320  90.0000 127.0600  90.0000  14 1

