# MOL2 file generated by ConQuest
# Please check atom types

@<TRIPOS>MOLECULE
BUWSET
    84    88     2
SMALL
NO_CHARGES
****
Generated from CSD

@<TRIPOS>ATOM
      1 O1         6.3413   31.3168    2.0593 O.2       1 RES1    0.0000
      2 O2         4.8422   29.8344    1.5709 O.2       1 RES1    0.0000
      3 O3         4.1262   22.3153    4.9017 O.2       1 RES1    0.0000
      4 O4         4.6922   20.6907    3.6322 O.2       1 RES1    0.0000
      5 N1         6.0097   30.1735    1.7420 N.pl3     1 RES1    0.0000
      6 N2         4.6933   21.8752    3.9139 N.pl3     1 RES1    0.0000
      7 C1         7.6871   26.9439    1.0275 C.ar      1 RES1    0.0000
      8 C2         6.7054   27.9147    1.0942 C.ar      1 RES1    0.0000
      9 H1         5.8361   27.7395    0.8129 H         1 RES1    0.0000
     10 C3         7.0593   29.1589    1.5941 C.ar      1 RES1    0.0000
     11 C4         8.3499   29.4741    1.9807 C.ar      1 RES1    0.0000
     12 H2         8.5568   30.3269    2.2868 H         1 RES1    0.0000
     13 C5         9.3285   28.4951    1.9033 C.ar      1 RES1    0.0000
     14 H3        10.2040   28.6874    2.1522 H         1 RES1    0.0000
     15 C6         8.9907   27.2256    1.4519 C.ar      1 RES1    0.0000
     16 C7         9.8701   25.9958    1.3618 C.3       1 RES1    0.0000
     17 C8         9.0691   25.1219    0.3690 C.3       1 RES1    0.0000
     18 H4         9.1836   24.1838    0.5824 H         1 RES1    0.0000
     19 H5         9.3814   25.2729   -0.5370 H         1 RES1    0.0000
     20 C9         7.5681   25.5240    0.4945 C.3       1 RES1    0.0000
     21 C10        6.8744   25.5219   -0.8806 C.3       1 RES1    0.0000
     22 H6         5.9603   25.7998   -0.7783 H         1 RES1    0.0000
     23 H7         6.9012   24.6371   -1.2513 H         1 RES1    0.0000
     24 H8         7.3284   26.1294   -1.4686 H         1 RES1    0.0000
     25 C11        9.9657   25.3474    2.7543 C.3       1 RES1    0.0000
     26 H9        10.3796   25.9617    3.3649 H         1 RES1    0.0000
     27 H10       10.4930   24.5458    2.6986 H         1 RES1    0.0000
     28 H11        9.0843   25.1287    3.0677 H         1 RES1    0.0000
     29 C12       11.2847   26.2961    0.8649 C.3       1 RES1    0.0000
     30 H12       11.2383   26.7329    0.0107 H         1 RES1    0.0000
     31 H13       11.7748   25.4760    0.7783 H         1 RES1    0.0000
     32 H14       11.7297   26.8683    1.4925 H         1 RES1    0.0000
     33 C13        6.8059   24.5806    1.4334 C.ar      1 RES1    0.0000
     34 C14        6.1885   25.0133    2.6040 C.ar      1 RES1    0.0000
     35 H15        6.2535   25.9057    2.8518 H         1 RES1    0.0000
     36 C15        5.4807   24.1341    3.4041 C.ar      1 RES1    0.0000
     37 H16        5.0559   24.4369    4.1738 H         1 RES1    0.0000
     38 C16        5.4126   22.8051    3.0461 C.ar      1 RES1    0.0000
     39 C17        6.0146   22.3338    1.8918 C.ar      1 RES1    0.0000
     40 H17        5.9549   21.4346    1.6578 H         1 RES1    0.0000
     41 C18        6.7038   23.2251    1.0970 C.ar      1 RES1    0.0000
     42 H18        7.1103   22.9181    0.3185 H         1 RES1    0.0000
     43 O5         3.0911   31.2520    8.9959 O.2       2 RES2    0.0000
     44 O6         1.6949   29.6172    8.7479 O.2       2 RES2    0.0000
     45 O7         3.1770   22.3688   13.0891 O.2       2 RES2    0.0000
     46 O8         4.6159   20.9830   12.2846 O.2       2 RES2    0.0000
     47 N3         2.8367   30.0696    8.7456 N.pl3     2 RES2    0.0000
     48 N4         3.9884   22.0283   12.2321 N.pl3     2 RES2    0.0000
     49 C19        4.7223   26.9763    7.9559 C.ar      2 RES2    0.0000
     50 C20        3.6662   27.8184    8.2607 C.ar      2 RES2    0.0000
     51 H19        2.7990   27.4923    8.3409 H         2 RES2    0.0000
     52 C21        3.9457   29.1642    8.4421 C.ar      2 RES2    0.0000
     53 C22        5.2228   29.6934    8.3217 C.ar      2 RES2    0.0000
     54 H20        5.3740   30.6006    8.4515 H         2 RES2    0.0000
     55 C23        6.2711   28.8392    8.0028 C.ar      2 RES2    0.0000
     56 H21        7.1367   29.1671    7.9211 H         2 RES2    0.0000
     57 C24        6.0134   27.4923    7.8085 C.ar      2 RES2    0.0000
     58 C25        6.9933   26.4067    7.4062 C.3       2 RES2    0.0000
     59 C26        6.0277   25.3415    6.8688 C.3       2 RES2    0.0000
     60 H22        6.4012   24.4546    7.0003 H         2 RES2    0.0000
     61 H23        5.8777   25.4730    5.9195 H         2 RES2    0.0000
     62 C27        4.6871   25.4792    7.6478 C.3       2 RES2    0.0000
     63 C28        3.4798   25.1086    6.7725 C.3       2 RES2    0.0000
     64 H24        2.6710   25.2376    7.2722 H         2 RES2    0.0000
     65 H25        3.5491   24.1897    6.5046 H         2 RES2    0.0000
     66 H26        3.4667   25.6703    5.9928 H         2 RES2    0.0000
     67 C29        7.7670   25.9311    8.6460 C.3       2 RES2    0.0000
     68 H27        8.2992   26.6534    8.9872 H         2 RES2    0.0000
     69 H28        8.3382   25.1993    8.4049 H         2 RES2    0.0000
     70 H29        7.1463   25.6438    9.3204 H         2 RES2    0.0000
     71 C30        7.9863   26.8456    6.3318 C.3       2 RES2    0.0000
     72 H30        7.5087   27.2215    5.5890 H         2 RES2    0.0000
     73 H31        8.4926   26.0853    6.0355 H         2 RES2    0.0000
     74 H32        8.5815   27.5041    6.6965 H         2 RES2    0.0000
     75 C31        4.5985   24.6059    8.9179 C.ar      2 RES2    0.0000
     76 C32        3.7981   24.9930    9.9911 C.ar      2 RES2    0.0000
     77 H33        3.3947   25.8292    9.9787 H         2 RES2    0.0000
     78 C33        3.5913   24.1605   11.0727 C.ar      2 RES2    0.0000
     79 H34        3.0424   24.4252   11.7751 H         2 RES2    0.0000
     80 C34        4.2121   22.9278   11.0955 C.ar      2 RES2    0.0000
     81 C35        5.0271   22.5184   10.0623 C.ar      2 RES2    0.0000
     82 H35        5.4503   21.6907   10.0947 H         2 RES2    0.0000
     83 C36        5.2050   23.3549    8.9795 C.ar      2 RES2    0.0000
     84 H36        5.7427   23.0770    8.2743 H         2 RES2    0.0000
@<TRIPOS>BOND
     1    1    5 2
     2    2    5 2
     3    3    6 2
     4    4    6 2
     5    5   10 1
     6    6   38 1
     7    7    8 ar
     8    8    9 1
     9   10    8 ar
    10   11   10 ar
    11   12   11 1
    12   13   11 ar
    13   14   13 1
    14   15    7 ar
    15   16   15 1
    16   17   16 1
    17   18   17 1
    18   19   17 1
    19   20    7 1
    20   21   20 1
    21   22   21 1
    22   23   21 1
    23   24   21 1
    24   25   16 1
    25   26   25 1
    26   27   25 1
    27   28   25 1
    28   29   16 1
    29   30   29 1
    30   31   29 1
    31   32   29 1
    32   33   20 1
    33   34   33 ar
    34   35   34 1
    35   36   34 ar
    36   37   36 1
    37   38   36 ar
    38   39   38 ar
    39   40   39 1
    40   41   33 ar
    41   42   41 1
    42   43   47 2
    43   44   47 2
    44   45   48 2
    45   46   48 2
    46   47   52 1
    47   48   80 1
    48   49   50 ar
    49   50   51 1
    50   52   50 ar
    51   53   52 ar
    52   54   53 1
    53   55   53 ar
    54   56   55 1
    55   57   49 ar
    56   58   57 1
    57   59   58 1
    58   60   59 1
    59   61   59 1
    60   62   49 1
    61   63   62 1
    62   64   63 1
    63   65   63 1
    64   66   63 1
    65   67   58 1
    66   68   67 1
    67   69   67 1
    68   70   67 1
    69   71   58 1
    70   72   71 1
    71   73   71 1
    72   74   71 1
    73   75   62 1
    74   76   75 ar
    75   77   76 1
    76   78   76 ar
    77   79   78 1
    78   80   78 ar
    79   81   80 ar
    80   82   81 1
    81   83   75 ar
    82   84   83 1
    83   13   15 ar
    84   17   20 1
    85   39   41 ar
    86   55   57 ar
    87   59   62 1
    88   81   83 ar
@<TRIPOS>SUBSTRUCTURE
     1 RES1 1
     2 RES2 43

@<TRIPOS>CRYSIN
   8.0246   29.4350   13.3280  90.0000  90.9200  90.0000 231 1

