# MOL2 file generated by ConQuest
# Please check atom types

@<TRIPOS>MOLECULE
BUWSER
    24    25     1
SMALL
NO_CHARGES
****
Generated from CSD

@<TRIPOS>ATOM
      1 C1        11.0055    2.0079    5.1088 C.ar      1 RES1    0.0000
      2 C2        11.5274    3.2401    5.4566 C.ar      1 RES1    0.0000
      3 C3        12.7103    3.2652    6.2167 C.ar      1 RES1    0.0000
      4 C4        13.3508    2.1030    6.6022 C.ar      1 RES1    0.0000
      5 C5        12.7922    0.8878    6.2806 C.ar      1 RES1    0.0000
      6 C6        11.6113    0.8242    5.5058 C.ar      1 RES1    0.0000
      7 C7        11.0946   -0.4601    5.1088 C.2       1 RES1    0.0000
      8 C8         9.7524   -0.9730    5.1357 C.2       1 RES1    0.0000
      9 C9         8.5262   -0.3758    5.7228 C.2       1 RES1    0.0000
     10 C10        6.1743   -0.3560    5.7520 C.3       1 RES1    0.0000
     11 N1        11.8553   -1.3694    4.5718 N.2       1 RES1    0.0000
     12 N2         9.7040   -2.1918    4.6456 N.2       1 RES1    0.0000
     13 O1         9.8909    1.9075    4.3348 O.3       1 RES1    0.0000
     14 O2        11.0205   -2.4590    4.2840 O.3       1 RES1    0.0000
     15 O3         7.4236   -0.8582    5.1950 O.3       1 RES1    0.0000
     16 O4         8.5654    0.4251    6.6268 O.2       1 RES1    0.0000
     17 H1        11.0640    4.0966    5.1673 H         1 RES1    0.0000
     18 H2        12.9931    4.1612    6.4799 H         1 RES1    0.0000
     19 H3        14.1001    2.2034    7.2208 H         1 RES1    0.0000
     20 H4        13.3197   -0.0135    6.3968 H         1 RES1    0.0000
     21 H5         5.4057   -0.5175    5.1304 H         1 RES1    0.0000
     22 H6         5.9731   -0.7910    6.6368 H         1 RES1    0.0000
     23 H7         6.2913    0.8152    5.9244 H         1 RES1    0.0000
     24 H8         9.5099    2.6904    3.9493 H         1 RES1    0.0000
@<TRIPOS>BOND
     1    1    2 ar
     2    2    3 ar
     3    3    4 ar
     4    4    5 ar
     5    5    6 ar
     6    6    1 ar
     7    7    6 1
     8    8    7 1
     9    9    8 1
    10   10   15 1
    11   11    7 2
    12   12    8 2
    13   13    1 1
    14   14   11 1
    15   15    9 1
    16   16    9 2
    17   17    2 1
    18   18    3 1
    19   19    4 1
    20   20    5 1
    21   21   10 1
    22   22   10 1
    23   23   10 1
    24   24   13 1
    25   12   14 1
@<TRIPOS>SUBSTRUCTURE
     1 RES1 1

@<TRIPOS>CRYSIN
  15.0900    8.9680    7.7640  90.0000  97.7000  90.0000  14 1

