# MOL2 file generated by ConQuest
# Please check atom types

@<TRIPOS>MOLECULE
BUXJAH
    32    32     2
SMALL
NO_CHARGES
****
Generated from CSD

@<TRIPOS>ATOM
      1 C1         2.0212    4.6184    1.0492 C.ar      1 RES1    0.0000
      2 C2         3.1206    3.7618    1.1874 C.ar      1 RES1    0.0000
      3 N1         4.2182    1.9763    2.5003 N.pl3     1 RES1    0.0000
      4 C3         3.1525    2.9530    2.3188 C.ar      1 RES1    0.0000
      5 C4         1.9054    5.4529   -0.1275 C.1       1 RES1    0.0000
      6 C5         2.1789    3.0148    3.2827 C.ar      1 RES1    0.0000
      7 H1         2.2408    2.4743    4.0365 H         1 RES1    0.0000
      8 C6         4.1393    3.7539    0.1923 C.1       1 RES1    0.0000
      9 O1         5.1387    1.9339    1.7064 O.2       1 RES1    0.0000
     10 C7         1.0356    4.6723    2.0145 C.ar      1 RES1    0.0000
     11 H2         0.3154    5.2516    1.9063 H         1 RES1    0.0000
     12 C8         1.1120    3.8705    3.1414 C.ar      1 RES1    0.0000
     13 H3         0.4505    3.9102    3.7929 H         1 RES1    0.0000
     14 N2         4.9347    3.8501   -0.6314 N.1       1 RES1    0.0000
     15 O2         4.1725    1.1851    3.4189 O.2       1 RES1    0.0000
     16 N3         1.7415    6.0887   -0.9993 N.1       1 RES1    0.0000
     17 C9         2.0543    6.9532    5.9040 C.ar      2 RES2    0.0000
     18 C10        0.8792    7.6888    6.0830 C.ar      2 RES2    0.0000
     19 C11        2.6194    6.9364    4.6384 C.ar      2 RES2    0.0000
     20 N4         0.2465    7.7374    7.3934 N.pl3     2 RES2    0.0000
     21 C12        0.8767    8.3582    3.8178 C.ar      2 RES2    0.0000
     22 H4         0.4906    8.8359    3.1187 H         2 RES2    0.0000
     23 C13        0.2947    8.3749    5.0449 C.ar      2 RES2    0.0000
     24 H5        -0.4943    8.8483    5.1808 H         2 RES2    0.0000
     25 C14        3.8046    6.1646    4.4007 C.1       2 RES2    0.0000
     26 C15        2.7258    6.2653    6.9724 C.1       2 RES2    0.0000
     27 C16        2.0256    7.6455    3.5983 C.ar      2 RES2    0.0000
     28 H6         2.4104    7.6349    2.7505 H         2 RES2    0.0000
     29 O3         0.6958    7.0972    8.3041 O.2       2 RES2    0.0000
     30 N5         3.3546    5.6896    7.7234 N.1       2 RES2    0.0000
     31 O4        -0.7008    8.4730    7.5681 O.2       2 RES2    0.0000
     32 N6         4.6850    5.5544    4.1469 N.1       2 RES2    0.0000
@<TRIPOS>BOND
     1    1    2 ar
     2    2    4 ar
     3    3    4 1
     4    4    6 ar
     5    5    1 1
     6    6    7 1
     7    8    2 1
     8    9    3 2
     9   10    1 ar
    10   11   10 1
    11   12    6 ar
    12   13   12 1
    13   14    8 3
    14   15    3 2
    15   16    5 3
    16   17   18 ar
    17   18   20 1
    18   19   17 ar
    19   20   29 2
    20   21   22 1
    21   23   18 ar
    22   24   23 1
    23   25   19 1
    24   26   17 1
    25   27   19 ar
    26   28   27 1
    27   30   26 3
    28   31   20 2
    29   32   25 3
    30   10   12 ar
    31   21   23 ar
    32   21   27 ar
@<TRIPOS>SUBSTRUCTURE
     1 RES1 1
     2 RES2 17

@<TRIPOS>CRYSIN
   6.2575    8.8306   28.3260  90.0000  90.0000  90.0000  19 1

