# MOL2 file generated by ConQuest
# Please check atom types

@<TRIPOS>MOLECULE
BUYJAG
    72    72     2
SMALL
NO_CHARGES
****
Generated from CSD

@<TRIPOS>ATOM
      1 O1         6.2908    4.2666    1.9782 O.3       1 RES1    0.0000
      2 O2         4.8986    5.0523    6.6467 O.2       1 RES1    0.0000
      3 O3         6.9063    6.0178    6.4243 O.3       1 RES1    0.0000
      4 O4         2.5303    4.5716    1.4929 O.2       1 RES1    0.0000
      5 O5         1.9821    4.4761    3.5351 O.2       1 RES1    0.0000
      6 O6         6.3386    5.5895    0.1224 O.3       1 RES1    0.0000
      7 N1         5.8651    5.3245    4.6090 N.am      1 RES1    0.0000
      8 N2         2.7394    4.8489    2.6420 N.pl3     1 RES1    0.0000
      9 C1         5.4794    5.0020    1.0525 C.3       1 RES1    0.0000
     10 C2         4.7339    6.0917    1.7883 C.3       1 RES1    0.0000
     11 C3         4.0017    5.6470    3.0330 C.3       1 RES1    0.0000
     12 C4         4.8510    4.6600    3.8620 C.3       1 RES1    0.0000
     13 C5         5.4672    3.6020    2.9465 C.3       1 RES1    0.0000
     14 C6         6.2842    2.5565    3.6508 C.3       1 RES1    0.0000
     15 C7         6.8057    4.6784   -0.8605 C.3       1 RES1    0.0000
     16 C8         5.8142    5.4395    5.9659 C.2       1 RES1    0.0000
     17 C9         7.0149    6.1359    7.8756 C.3       1 RES1    0.0000
     18 C10        3.4995    6.8425    3.8406 C.3       1 RES1    0.0000
     19 H1         4.8586    4.4473    0.5504 H         1 RES1    0.0000
     20 H2         5.3531    6.6967    2.0781 H         1 RES1    0.0000
     21 H3         4.1733    6.4502    1.1683 H         1 RES1    0.0000
     22 H4         4.2915    4.2522    4.4371 H         1 RES1    0.0000
     23 H5         4.7315    3.2559    2.4601 H         1 RES1    0.0000
     24 H6         5.7072    2.0645    4.2124 H         1 RES1    0.0000
     25 H7         7.1560    2.8656    4.2574 H         1 RES1    0.0000
     26 H8         6.6742    1.9515    2.9880 H         1 RES1    0.0000
     27 H9         6.0606    4.3241   -1.3255 H         1 RES1    0.0000
     28 H10        7.5364    4.2625   -0.5954 H         1 RES1    0.0000
     29 H11        7.3094    5.0739   -1.6737 H         1 RES1    0.0000
     30 H12        6.9207    5.2177    8.2676 H         1 RES1    0.0000
     31 H13        7.9065    6.6453    8.0205 H         1 RES1    0.0000
     32 H14        6.2583    6.7172    8.2339 H         1 RES1    0.0000
     33 H15        4.1021    7.2411    4.1787 H         1 RES1    0.0000
     34 H16        2.8775    7.2616    3.3475 H         1 RES1    0.0000
     35 H17        2.9793    6.4707    4.6281 H         1 RES1    0.0000
     36 H18        6.5281    5.6593    4.3135 H         1 RES1    0.0000
     37 O7         8.6495    6.5745    3.8013 O.3       2 RES2    0.0000
     38 O8        11.0359    2.8245    1.9591 O.2       2 RES2    0.0000
     39 O9         8.8769    2.3367    1.5861 O.3       2 RES2    0.0000
     40 O10       11.3051    8.7345    1.7692 O.2       2 RES2    0.0000
     41 O11       12.5373    7.0510    1.8355 O.2       2 RES2    0.0000
     42 O12        7.3541    8.2918    3.0577 O.3       2 RES2    0.0000
     43 N3         9.4341    4.4155    2.0355 N.am      2 RES2    0.0000
     44 N4        11.4645    7.5666    1.7288 N.pl3     2 RES2    0.0000
     45 C11        8.6408    7.7772    3.0094 C.3       2 RES2    0.0000
     46 C12        8.9677    7.4280    1.5682 C.3       2 RES2    0.0000
     47 C13       10.2599    6.6361    1.4255 C.3       2 RES2    0.0000
     48 C14       10.3161    5.4857    2.4601 C.3       2 RES2    0.0000
     49 C15        9.9557    5.9942    3.8507 C.3       2 RES2    0.0000
     50 C16        9.9270    4.9311    4.8988 C.3       2 RES2    0.0000
     51 C17        7.0463    8.9471    4.2709 C.3       2 RES2    0.0000
     52 C18        9.8928    3.1645    1.8771 C.2       2 RES2    0.0000
     53 C19        9.2061    0.9347    1.5535 C.3       2 RES2    0.0000
     54 C20       10.4724    6.1626   -0.0022 C.3       2 RES2    0.0000
     55 H19        9.2809    8.4222    3.3700 H         2 RES2    0.0000
     56 H20        8.2552    6.9021    1.2356 H         2 RES2    0.0000
     57 H21        9.0194    8.2476    1.0672 H         2 RES2    0.0000
     58 H22       11.1610    5.1869    2.5162 H         2 RES2    0.0000
     59 H23       10.5712    6.7994    4.0889 H         2 RES2    0.0000
     60 H24        9.7316    4.7555    5.5829 H         2 RES2    0.0000
     61 H25       10.7586    4.6836    4.9651 H         2 RES2    0.0000
     62 H26        9.0820    4.3241    4.6730 H         2 RES2    0.0000
     63 H27        7.3711    8.5866    4.9875 H         2 RES2    0.0000
     64 H28        6.2788    9.3774    4.1900 H         2 RES2    0.0000
     65 H29        7.8261    9.6753    4.4371 H         2 RES2    0.0000
     66 H30        9.9082    0.8217    2.2691 H         2 RES2    0.0000
     67 H31        8.4544    0.3800    1.3704 H         2 RES2    0.0000
     68 H32        9.7446    0.8936    0.9998 H         2 RES2    0.0000
     69 H33        9.6527    5.6593   -0.4044 H         2 RES2    0.0000
     70 H34       10.6054    6.8713   -0.5729 H         2 RES2    0.0000
     71 H35       11.2548    5.4950   -0.0112 H         2 RES2    0.0000
     72 H36        8.5574    4.6014    2.1231 H         2 RES2    0.0000
@<TRIPOS>BOND
     1    1    9 1
     2    2   16 2
     3    3   16 1
     4    4    8 2
     5    5    8 2
     6    6    9 1
     7    7   12 1
     8    8   11 1
     9    9   10 1
    10   10   11 1
    11   11   12 1
    12   12   13 1
    13   13    1 1
    14   14   13 1
    15   15    6 1
    16   16    7 1
    17   17    3 1
    18   18   11 1
    19   19    9 1
    20   20   10 1
    21   21   10 1
    22   22   12 1
    23   23   13 1
    24   24   14 1
    25   25   14 1
    26   26   14 1
    27   27   15 1
    28   28   15 1
    29   29   15 1
    30   30   17 1
    31   31   17 1
    32   32   17 1
    33   33   18 1
    34   34   18 1
    35   35   18 1
    36   36    7 1
    37   37   45 1
    38   38   52 2
    39   39   52 1
    40   40   44 2
    41   41   44 2
    42   42   45 1
    43   43   48 1
    44   44   47 1
    45   45   46 1
    46   46   47 1
    47   47   48 1
    48   48   49 1
    49   49   37 1
    50   50   49 1
    51   51   42 1
    52   52   43 1
    53   53   39 1
    54   54   47 1
    55   55   45 1
    56   56   46 1
    57   57   46 1
    58   58   48 1
    59   59   49 1
    60   60   50 1
    61   61   50 1
    62   62   50 1
    63   63   51 1
    64   64   51 1
    65   65   51 1
    66   66   53 1
    67   67   53 1
    68   68   53 1
    69   69   54 1
    70   70   54 1
    71   71   54 1
    72   72   43 1
@<TRIPOS>SUBSTRUCTURE
     1 RES1 1
     2 RES2 37

@<TRIPOS>CRYSIN
  11.7820   10.2710   11.6360  90.0000 105.1200  90.0000   4 1

