# MOL2 file generated by ConQuest
# Please check atom types

@<TRIPOS>MOLECULE
BUYKEL
    48    49     1
SMALL
NO_CHARGES
****
Generated from CSD

@<TRIPOS>ATOM
      1 C1         7.6229    7.0144    0.8054 C.3       1 RES1    0.0000
      2 C2         8.1926    6.2553    1.9659 C.3       1 RES1    0.0000
      3 C3         7.2779    5.1517    2.3919 C.2       1 RES1    0.0000
      4 C4         6.2759    4.7252    1.6970 C.2       1 RES1    0.0000
      5 C5         5.9317    5.2124    0.3643 C.3       1 RES1    0.0000
      6 C6         7.0083    6.0576   -0.2596 C.3       1 RES1    0.0000
      7 C7         9.6767    5.7426    1.7761 C.3       1 RES1    0.0000
      8 C8        10.5947    6.8638    1.1907 C.3       1 RES1    0.0000
      9 C9        10.2258    5.2574    3.0937 C.3       1 RES1    0.0000
     10 C10        9.7260    4.6215    0.8357 C.1       1 RES1    0.0000
     11 N1         9.8060    3.7625    0.0850 N.1       1 RES1    0.0000
     12 C11        6.6064    8.0651    1.2151 C.2       1 RES1    0.0000
     13 C12        6.1874    9.0532    0.1955 C.3       1 RES1    0.0000
     14 N2         6.2105    8.0631    2.4279 N.2       1 RES1    0.0000
     15 N3         5.3095    9.0532    2.7922 N.3       1 RES1    0.0000
     16 C13        4.9109    9.1608    4.0772 C.ar      1 RES1    0.0000
     17 C14        4.0436   10.1782    4.5579 C.ar      1 RES1    0.0000
     18 N4         3.5160   11.1937    3.6594 N.pl3     1 RES1    0.0000
     19 O1         3.9903   11.3091    2.5280 O.2       1 RES1    0.0000
     20 O2         2.5996   11.9118    4.0621 O.2       1 RES1    0.0000
     21 C15        3.6834   10.2506    5.8929 C.ar      1 RES1    0.0000
     22 C16        4.1615    9.3271    6.7565 C.ar      1 RES1    0.0000
     23 N5         3.8032    9.4249    8.1649 N.pl3     1 RES1    0.0000
     24 O3         2.9533   10.2545    8.4908 O.2       1 RES1    0.0000
     25 O4         4.3543    8.6638    8.9587 O.2       1 RES1    0.0000
     26 C17        4.9976    8.3077    6.3352 C.ar      1 RES1    0.0000
     27 C18        5.3511    8.2119    5.0328 C.ar      1 RES1    0.0000
     28 H1         8.3964    7.4546    0.2910 H         1 RES1    0.0000
     29 H2         8.3081    6.9264    2.6887 H         1 RES1    0.0000
     30 H3         7.4874    4.7937    3.2241 H         1 RES1    0.0000
     31 H4         5.7394    3.9523    2.1183 H         1 RES1    0.0000
     32 H5         5.7073    4.4024   -0.1280 H         1 RES1    0.0000
     33 H6         5.1558    5.7328    0.3259 H         1 RES1    0.0000
     34 H7         7.8315    5.5959   -0.6518 H         1 RES1    0.0000
     35 H8         6.6777    6.5155   -1.0126 H         1 RES1    0.0000
     36 H9        11.4608    6.5350    1.2338 H         1 RES1    0.0000
     37 H10       10.2008    7.0046    0.2677 H         1 RES1    0.0000
     38 H11       10.5323    7.5525    1.8855 H         1 RES1    0.0000
     39 H12       11.1465    5.0676    2.9680 H         1 RES1    0.0000
     40 H13       10.2182    6.0263    3.5267 H         1 RES1    0.0000
     41 H14        9.4323    4.3828    3.3404 H         1 RES1    0.0000
     42 H15        6.6849    9.0982   -0.5470 H         1 RES1    0.0000
     43 H16        6.2479    9.9787    0.5587 H         1 RES1    0.0000
     44 H17        5.3056    8.9808   -0.0233 H         1 RES1    0.0000
     45 H18        5.0810    9.6265    2.2696 H         1 RES1    0.0000
     46 H19        3.1314   10.9374    6.0757 H         1 RES1    0.0000
     47 H20        5.3268    7.7090    6.9952 H         1 RES1    0.0000
     48 H21        5.9155    7.5329    4.7255 H         1 RES1    0.0000
@<TRIPOS>BOND
     1    1    2 1
     2    2    3 1
     3    3    4 2
     4    4    5 1
     5    5    6 1
     6    6    1 1
     7    7    2 1
     8    8    7 1
     9    9    7 1
    10   10    7 1
    11   11   10 3
    12   12    1 1
    13   13   12 1
    14   14   12 2
    15   15   14 1
    16   16   15 1
    17   17   16 ar
    18   18   17 1
    19   19   18 2
    20   20   18 2
    21   21   17 ar
    22   22   21 ar
    23   23   22 1
    24   24   23 2
    25   25   23 2
    26   26   22 ar
    27   27   16 ar
    28   28    1 1
    29   29    2 1
    30   30    3 1
    31   31    4 1
    32   32    5 1
    33   33    5 1
    34   34    6 1
    35   35    6 1
    36   36    8 1
    37   37    8 1
    38   38    8 1
    39   39    9 1
    40   40    9 1
    41   41    9 1
    42   42   13 1
    43   43   13 1
    44   44   13 1
    45   45   15 1
    46   46   21 1
    47   47   26 1
    48   48   27 1
    49   26   27 ar
@<TRIPOS>SUBSTRUCTURE
     1 RES1 1

@<TRIPOS>CRYSIN
   8.2770   19.5660   12.3620  90.0000 109.6900  90.0000  14 1

