# MOL2 file generated by ConQuest
# Please check atom types

@<TRIPOS>MOLECULE
BUYPAN
   216   224     2
SMALL
NO_CHARGES
****
Generated from CSD

@<TRIPOS>ATOM
      1 C1         9.9057   11.9000   18.0612 C.ar      1 RES1    0.0000
      2 C2        10.8066   12.8925   17.4932 C.ar      1 RES1    0.0000
      3 C3        10.1847   13.8219   16.6563 C.ar      1 RES1    0.0000
      4 H1        10.7015   14.4582   16.2167 H         1 RES1    0.0000
      5 C4         8.8641   13.8129   16.4778 C.ar      1 RES1    0.0000
      6 C5         7.9560   12.9142   17.0814 C.ar      1 RES1    0.0000
      7 H2         7.0363   12.9540   16.9468 H         1 RES1    0.0000
      8 C6         8.5718   11.9548   17.9057 C.ar      1 RES1    0.0000
      9 C7         7.0460   12.6820   20.4370 C.ar      1 RES1    0.0000
     10 C8         6.5884   11.7618   19.5013 C.ar      1 RES1    0.0000
     11 C9         5.2526   11.7672   19.1169 C.ar      1 RES1    0.0000
     12 H3         4.9460   11.1518   18.4921 H         1 RES1    0.0000
     13 C10        4.3744   12.6929   19.6685 C.ar      1 RES1    0.0000
     14 C11        4.8322   13.6132   20.6042 C.ar      1 RES1    0.0000
     15 H4         4.2444   14.2325   20.9739 H         1 RES1    0.0000
     16 C12        6.1679   13.6077   20.9886 C.ar      1 RES1    0.0000
     17 C13        8.9550   15.7250   21.5618 C.ar      1 RES1    0.0000
     18 C14        7.6801   15.6027   21.1689 C.ar      1 RES1    0.0000
     19 C15        7.1835   16.2603   20.0082 C.ar      1 RES1    0.0000
     20 H5         6.2884   16.1957   19.7639 H         1 RES1    0.0000
     21 C16        8.0987   17.0126   19.2443 C.ar      1 RES1    0.0000
     22 H6         7.7988   17.4557   18.4843 H         1 RES1    0.0000
     23 C17        9.3893   17.1025   19.5882 C.ar      1 RES1    0.0000
     24 H7         9.9625   17.5779   19.0313 H         1 RES1    0.0000
     25 C18        9.9449   16.4914   20.7943 C.ar      1 RES1    0.0000
     26 C19       12.0975   14.7164   19.4582 C.ar      1 RES1    0.0000
     27 C20       12.1910   16.0897   19.9332 C.ar      1 RES1    0.0000
     28 C21       12.9504   16.9273   19.1504 C.ar      1 RES1    0.0000
     29 H8        13.0320   17.8184   19.4053 H         1 RES1    0.0000
     30 C22       13.5865   16.5193   18.0238 C.ar      1 RES1    0.0000
     31 H9        14.1512   17.1005   17.5659 H         1 RES1    0.0000
     32 C23       13.3795   15.1691   17.5383 C.ar      1 RES1    0.0000
     33 H10       13.7520   14.9005   16.7301 H         1 RES1    0.0000
     34 C24       12.6304   14.2862   18.2805 C.ar      1 RES1    0.0000
     35 C25        7.6810   10.9458   18.6861 C.3       1 RES1    0.0000
     36 H11        8.2266   10.4227   19.2944 H         1 RES1    0.0000
     37 H12        7.2477   10.3376   18.0664 H         1 RES1    0.0000
     38 C26        6.6940   14.7066   21.9070 C.3       1 RES1    0.0000
     39 H13        5.9519   15.2409   22.2302 H         1 RES1    0.0000
     40 H14        7.1333   14.3047   22.6739 H         1 RES1    0.0000
     41 C27       11.3644   16.5421   21.0732 C.3       1 RES1    0.0000
     42 H15       11.5557   15.9829   21.8432 H         1 RES1    0.0000
     43 H16       11.6095   17.4520   21.2989 H         1 RES1    0.0000
     44 C28       12.2044   12.9158   17.7367 C.3       1 RES1    0.0000
     45 H17       12.6801   12.7319   16.9132 H         1 RES1    0.0000
     46 H18       12.4331   12.2268   18.3786 H         1 RES1    0.0000
     47 C29       10.6940    9.6880   18.0767 C.3       1 RES1    0.0000
     48 H19        9.8323    9.3348   17.8058 H         1 RES1    0.0000
     49 H20       11.2321    9.8343   17.2821 H         1 RES1    0.0000
     50 C30       11.3818    8.7355   19.0062 C.3       1 RES1    0.0000
     51 H21       11.2408    7.8268   18.6959 H         1 RES1    0.0000
     52 H22       10.9939    8.8148   19.8929 H         1 RES1    0.0000
     53 C31       12.8858    9.0174   19.0849 C.3       1 RES1    0.0000
     54 H23       13.1871    9.1516   18.1722 H         1 RES1    0.0000
     55 H24       12.9823    9.8714   19.5343 H         1 RES1    0.0000
     56 C32       13.8746    8.0834   19.7273 C.3       1 RES1    0.0000
     57 H25       13.5165    7.7602   20.5585 H         1 RES1    0.0000
     58 H26       14.6965    8.5521   19.8929 H         1 RES1    0.0000
     59 H27       14.0422    7.3420   19.1422 H         1 RES1    0.0000
     60 C33        8.6889   11.3196   21.7958 C.3       1 RES1    0.0000
     61 H28        8.2085   10.5264   21.5105 H         1 RES1    0.0000
     62 H29        9.6421   11.1555   21.7194 H         1 RES1    0.0000
     63 C34        8.3159   11.7004   23.2093 C.3       1 RES1    0.0000
     64 H30        9.0235   12.2342   23.6027 H         1 RES1    0.0000
     65 H31        7.5044   12.2305   23.2028 H         1 RES1    0.0000
     66 C35        8.1033   10.4473   24.0253 C.3       1 RES1    0.0000
     67 H32        8.9501   10.0915   24.3353 H         1 RES1    0.0000
     68 H33        7.6509    9.7677   23.5021 H         1 RES1    0.0000
     69 C36        7.2007   10.9105   25.2504 C.3       1 RES1    0.0000
     70 H34        7.6142   11.6569   25.6897 H         1 RES1    0.0000
     71 H35        7.1100   10.1859   25.8729 H         1 RES1    0.0000
     72 H36        6.3335   11.1684   24.9287 H         1 RES1    0.0000
     73 C37        9.2801   15.9104   23.9156 C.3       1 RES1    0.0000
     74 H37        9.8594   16.6879   23.8761 H         1 RES1    0.0000
     75 H38        8.3627   16.2123   24.0129 H         1 RES1    0.0000
     76 C38        9.6638   15.0346   25.0487 C.3       1 RES1    0.0000
     77 H39        9.2078   14.1844   24.9571 H         1 RES1    0.0000
     78 H40        9.3661   15.4426   25.8755 H         1 RES1    0.0000
     79 C39       11.1501   14.7863   25.1328 C.3       1 RES1    0.0000
     80 H41       11.4035   14.2677   24.3534 H         1 RES1    0.0000
     81 H42       11.5943   15.6461   25.0577 H         1 RES1    0.0000
     82 C40       11.7133   14.0923   26.3414 C.3       1 RES1    0.0000
     83 H43       11.5863   14.6451   27.1164 H         1 RES1    0.0000
     84 H44       12.6516   13.9346   26.2109 H         1 RES1    0.0000
     85 H45       11.2623   13.2537   26.4688 H         1 RES1    0.0000
     86 C41       11.9776   13.4387   21.4880 C.3       1 RES1    0.0000
     87 H46       11.2831   13.2296   22.1322 H         1 RES1    0.0000
     88 H47       12.4860   14.1881   21.8355 H         1 RES1    0.0000
     89 C42       12.8901   12.2542   21.3570 C.3       1 RES1    0.0000
     90 H48       13.6174   12.5265   20.7752 H         1 RES1    0.0000
     91 H49       12.3944   11.5736   20.8758 H         1 RES1    0.0000
     92 C43       13.5434   11.5459   22.5880 C.3       1 RES1    0.0000
     93 H50       13.9179   10.6947   22.3102 H         1 RES1    0.0000
     94 H51       14.2652   12.0954   22.9319 H         1 RES1    0.0000
     95 C44       12.5602   11.3249   23.6326 C.3       1 RES1    0.0000
     96 H52       12.2359   12.1713   23.9510 H         1 RES1    0.0000
     97 H53       12.9670   10.8446   24.3586 H         1 RES1    0.0000
     98 H54       11.8295   10.8132   23.2802 H         1 RES1    0.0000
     99 C45       14.3093    7.4948   11.5287 C.ar      2 RES2    0.0000
    100 C46       15.1611    7.6428   12.7074 C.ar      2 RES2    0.0000
    101 C47       14.7517    8.5254   13.6905 C.ar      2 RES2    0.0000
    102 H55       15.2928    8.7260   14.4211 H         2 RES2    0.0000
    103 C48       13.4885    9.1009   13.5357 C.ar      2 RES2    0.0000
    104 C49       12.6132    8.8763   12.4876 C.ar      2 RES2    0.0000
    105 H56       11.7594    9.2441   12.4708 H         2 RES2    0.0000
    106 C50       13.1104    8.0314   11.4190 C.ar      2 RES2    0.0000
    107 C51       10.6748    6.1704   11.4822 C.ar      2 RES2    0.0000
    108 C52       10.7696    7.3050   10.7377 C.ar      2 RES2    0.0000
    109 C53        9.6731    8.1082   10.5692 C.ar      2 RES2    0.0000
    110 H57        9.7148    8.8463   10.0045 H         2 RES2    0.0000
    111 C54        8.5161    7.8146   11.2387 C.ar      2 RES2    0.0000
    112 C55        8.4305    6.6916   12.0967 C.ar      2 RES2    0.0000
    113 H58        7.6387    6.5112   12.5508 H         2 RES2    0.0000
    114 C56        9.4968    5.8832   12.2564 C.ar      2 RES2    0.0000
    115 C57       11.5772    4.4218   14.8553 C.ar      2 RES2    0.0000
    116 C58       10.5082    5.2556   14.3806 C.ar      2 RES2    0.0000
    117 C59       10.4774    6.5741   14.8840 C.ar      2 RES2    0.0000
    118 H59        9.7947    7.1477   14.6198 H         2 RES2    0.0000
    119 C60       11.4460    7.0273   15.7652 C.ar      2 RES2    0.0000
    120 H60       11.3878    7.8989   16.0825 H         2 RES2    0.0000
    121 C61       12.4835    6.2427   16.1862 C.ar      2 RES2    0.0000
    122 H61       13.1306    6.5778   16.7636 H         2 RES2    0.0000
    123 C62       12.5529    4.8495   15.7002 C.ar      2 RES2    0.0000
    124 C63       15.3086    5.2223   14.4934 C.ar      2 RES2    0.0000
    125 C64       15.0385    4.8598   15.8078 C.ar      2 RES2    0.0000
    126 C65       15.7691    5.4219   16.8480 C.ar      2 RES2    0.0000
    127 H62       15.5888    5.1790   17.7285 H         2 RES2    0.0000
    128 C66       16.7701    6.3467   16.5737 C.ar      2 RES2    0.0000
    129 H63       17.2590    6.7221   17.2692 H         2 RES2    0.0000
    130 C67       17.0402    6.7092   15.2593 C.ar      2 RES2    0.0000
    131 H64       17.7091    7.3272   15.0764 H         2 RES2    0.0000
    132 C68       16.3094    6.1469   14.2191 C.ar      2 RES2    0.0000
    133 C69       12.1611    7.7633   10.2442 C.3       2 RES2    0.0000
    134 H65       12.5407    7.0774    9.6743 H         2 RES2    0.0000
    135 H66       12.0642    8.5724    9.7181 H         2 RES2    0.0000
    136 C70        9.5703    4.8223   13.3451 C.3       2 RES2    0.0000
    137 H67        8.6918    4.6868   13.7323 H         2 RES2    0.0000
    138 H68        9.8666    3.9800   12.9635 H         2 RES2    0.0000
    139 C71       13.7678    4.0651   16.0384 C.3       2 RES2    0.0000
    140 H69       13.7913    3.2621   15.4943 H         2 RES2    0.0000
    141 H70       13.7244    3.7950   16.9700 H         2 RES2    0.0000
    142 C72       16.3923    6.8511   12.8273 C.3       2 RES2    0.0000
    143 H71       17.1734    7.4253   12.7804 H         2 RES2    0.0000
    144 H72       16.4468    6.1948   12.1148 H         2 RES2    0.0000
    145 C73       15.6794    7.3107    9.6008 C.3       2 RES2    0.0000
    146 H73       15.2432    8.0488    9.1454 H         2 RES2    0.0000
    147 H74       16.4649    7.6436   10.0613 H         2 RES2    0.0000
    148 C74       16.0373    6.2259    8.6460 C.3       2 RES2    0.0000
    149 H75       15.2357    5.9265    8.1883 H         2 RES2    0.0000
    150 H76       16.3982    5.4732    9.1403 H         2 RES2    0.0000
    151 C75       17.0899    6.6961    7.5839 C.3       2 RES2    0.0000
    152 H77       17.7560    7.2643    8.0000 H         2 RES2    0.0000
    153 H78       17.5389    5.9302    7.1925 H         2 RES2    0.0000
    154 C76       16.3581    7.4443    6.5447 C.3       2 RES2    0.0000
    155 H79       15.4162    7.3975    6.7204 H         2 RES2    0.0000
    156 H80       16.5438    7.0607    5.6833 H         2 RES2    0.0000
    157 H81       16.6396    8.3615    6.5527 H         2 RES2    0.0000
    158 C77       11.5359    3.8096   11.0622 C.3       2 RES2    0.0000
    159 H82       12.1140    3.1603   11.4931 H         2 RES2    0.0000
    160 H83       10.6122    3.5137   11.0958 H         2 RES2    0.0000
    161 C78       11.9884    4.1722    9.6722 C.3       2 RES2    0.0000
    162 H84       12.8469    4.6220    9.7104 H         2 RES2    0.0000
    163 H85       11.3476    4.7756    9.2641 H         2 RES2    0.0000
    164 C79       12.1049    2.9077    8.8493 C.3       2 RES2    0.0000
    165 H86       12.9717    2.4979    8.9932 H         2 RES2    0.0000
    166 H87       12.0176    3.1178    7.9071 H         2 RES2    0.0000
    167 C80       11.0052    1.9537    9.2708 C.3       2 RES2    0.0000
    168 H88       11.1273    1.7115   10.1928 H         2 RES2    0.0000
    169 H89       11.0407    1.1638    8.7249 H         2 RES2    0.0000
    170 H90       10.1527    2.3813    9.1609 H         2 RES2    0.0000
    171 C81       10.8315    2.2444   15.2472 C.3       2 RES2    0.0000
    172 H91        9.9440    2.6126   15.3782 H         2 RES2    0.0000
    173 H92       11.2516    2.1315   16.1135 H         2 RES2    0.0000
    174 C82       10.7594    0.9333   14.5181 C.3       2 RES2    0.0000
    175 H93       10.1598    0.3220   14.9732 H         2 RES2    0.0000
    176 H94       10.4437    1.0639   13.6111 H         2 RES2    0.0000
    177 C83       12.1487    0.4041   14.5210 C.3       2 RES2    0.0000
    178 H95       12.6246    0.7105   15.3086 H         2 RES2    0.0000
    179 H96       12.6264    0.7068   13.7323 H         2 RES2    0.0000
    180 C84       12.0458   -1.0863   14.5243 C.3       2 RES2    0.0000
    181 H97       11.7310   -1.3840   15.3808 H         2 RES2    0.0000
    182 H98       12.9089   -1.4673   14.3515 H         2 RES2    0.0000
    183 H99       11.4289   -1.3655   13.8433 H         2 RES2    0.0000
    184 C85       14.8830    3.3296   13.2561 C.3       2 RES2    0.0000
    185 H100      14.0455    2.9216   12.9842 H         2 RES2    0.0000
    186 H101      15.2030    2.8809   14.0548 H         2 RES2    0.0000
    187 C86       15.8923    3.2267   12.1602 C.3       2 RES2    0.0000
    188 H102      16.7220    3.6358   12.4502 H         2 RES2    0.0000
    189 H103      15.5728    3.7136   11.3847 H         2 RES2    0.0000
    190 C87       16.1513    1.8003   11.7776 C.3       2 RES2    0.0000
    191 H104      16.4291    1.3082   12.5663 H         2 RES2    0.0000
    192 H105      15.3259    1.4044   11.4569 H         2 RES2    0.0000
    193 C88       17.1832    1.6630   10.7403 C.3       2 RES2    0.0000
    194 H106      17.4907    2.5331   10.4766 H         2 RES2    0.0000
    195 H107      16.8129    1.2119    9.9787 H         2 RES2    0.0000
    196 H108      17.9197    1.1546   11.0880 H         2 RES2    0.0000
    197 N1         8.2138   14.8239   15.5599 N.pl3     1 RES1    0.0000
    198 N2         3.0878   12.5510   19.3715 N.pl3     1 RES1    0.0000
    199 N3        12.9762   10.0410   14.5824 N.pl3     2 RES2    0.0000
    200 N4         7.3628    8.6587   11.1319 N.pl3     2 RES2    0.0000
    201 O1        10.5210   10.9752   18.8388 O.3       1 RES1    0.0000
    202 O2         8.2470   12.6185   20.9114 O.3       1 RES1    0.0000
    203 O3         9.4292   15.0822   22.6827 O.3       1 RES1    0.0000
    204 O4        11.3537   13.8367   20.2399 O.3       1 RES1    0.0000
    205 O5         9.0645   15.7675   15.0981 O.2       1 RES1    0.0000
    206 O6         7.1097   14.9898   15.5106 O.2       1 RES1    0.0000
    207 O7         2.5638   11.5555   18.7397 O.2       1 RES1    0.0000
    208 O8         2.2877   13.5164   19.5720 O.2       1 RES1    0.0000
    209 O9        14.7394    6.6339   10.5532 O.3       2 RES2    0.0000
    210 O10       11.7470    5.3696   11.6512 O.3       2 RES2    0.0000
    211 O11       11.6445    3.1350   14.3837 O.3       2 RES2    0.0000
    212 O12       14.6998    4.7360   13.5074 O.3       2 RES2    0.0000
    213 O13       13.7921   10.2830   15.4670 O.2       2 RES2    0.0000
    214 O14       11.8731   10.4483   14.5460 O.2       2 RES2    0.0000
    215 O15        7.3885    9.5662   10.2581 O.2       2 RES2    0.0000
    216 O16        6.3863    8.5460   11.8867 O.2       2 RES2    0.0000
@<TRIPOS>BOND
     1    1    2 ar
     2    2    3 ar
     3    3    4 1
     4    5    3 ar
     5    6    5 ar
     6    7    6 1
     7    8    1 ar
     8    9   10 ar
     9   10   11 ar
    10   11   12 1
    11   13   11 ar
    12   14   13 ar
    13   15   14 1
    14   16    9 ar
    15   17   18 ar
    16   18   19 ar
    17   19   20 1
    18   21   19 ar
    19   22   21 1
    20   23   21 ar
    21   24   23 1
    22   25   17 ar
    23   26   27 ar
    24   27   28 ar
    25   28   29 1
    26   30   28 ar
    27   31   30 1
    28   32   30 ar
    29   33   32 1
    30   34   26 ar
    31   35    8 1
    32   36   35 1
    33   37   35 1
    34   38   16 1
    35   39   38 1
    36   40   38 1
    37   41   25 1
    38   42   41 1
    39   43   41 1
    40   44    2 1
    41   45   44 1
    42   46   44 1
    43   47   48 1
    44   49   47 1
    45   50   47 1
    46   51   50 1
    47   52   50 1
    48   53   50 1
    49   54   53 1
    50   55   53 1
    51   56   53 1
    52   57   56 1
    53   58   56 1
    54   59   56 1
    55   60   61 1
    56   62   60 1
    57   63   60 1
    58   64   63 1
    59   65   63 1
    60   66   63 1
    61   67   66 1
    62   68   66 1
    63   69   66 1
    64   70   69 1
    65   71   69 1
    66   72   69 1
    67   73   74 1
    68   75   73 1
    69   76   73 1
    70   77   76 1
    71   78   76 1
    72   79   76 1
    73   80   79 1
    74   81   79 1
    75   82   79 1
    76   83   82 1
    77   84   82 1
    78   85   82 1
    79   86   87 1
    80   88   86 1
    81   89   86 1
    82   90   89 1
    83   91   89 1
    84   92   89 1
    85   93   92 1
    86   94   92 1
    87   95   92 1
    88   96   95 1
    89   97   95 1
    90   98   95 1
    91   99  100 ar
    92  100  101 ar
    93  101  102 1
    94  103  101 ar
    95  104  103 ar
    96  105  104 1
    97  106   99 ar
    98  107  108 ar
    99  108  109 ar
   100  109  110 1
   101  111  109 ar
   102  112  111 ar
   103  113  112 1
   104  114  107 ar
   105  115  116 ar
   106  116  117 ar
   107  117  118 1
   108  119  117 ar
   109  120  119 1
   110  121  119 ar
   111  122  121 1
   112  123  115 ar
   113  124  125 ar
   114  125  126 ar
   115  126  127 1
   116  128  126 ar
   117  129  128 1
   118  130  128 ar
   119  131  130 1
   120  132  124 ar
   121  133  106 1
   122  134  133 1
   123  135  133 1
   124  136  114 1
   125  137  136 1
   126  138  136 1
   127  139  123 1
   128  140  139 1
   129  141  139 1
   130  142  100 1
   131  143  142 1
   132  144  142 1
   133  145  146 1
   134  147  145 1
   135  148  145 1
   136  149  148 1
   137  150  148 1
   138  151  148 1
   139  152  151 1
   140  153  151 1
   141  154  151 1
   142  155  154 1
   143  156  154 1
   144  157  154 1
   145  158  159 1
   146  160  158 1
   147  161  158 1
   148  162  161 1
   149  163  161 1
   150  164  161 1
   151  165  164 1
   152  166  164 1
   153  167  164 1
   154  168  167 1
   155  169  167 1
   156  170  167 1
   157  171  172 1
   158  173  171 1
   159  174  171 1
   160  175  174 1
   161  176  174 1
   162  177  174 1
   163  178  177 1
   164  179  177 1
   165  180  177 1
   166  181  180 1
   167  182  180 1
   168  183  180 1
   169  184  185 1
   170  186  184 1
   171  187  184 1
   172  188  187 1
   173  189  187 1
   174  190  187 1
   175  191  190 1
   176  192  190 1
   177  193  190 1
   178  194  193 1
   179  195  193 1
   180  196  193 1
   181  197    5 1
   182  198   13 1
   183  199  103 1
   184  200  111 1
   185  201    1 1
   186  202    9 1
   187  203   17 1
   188  204   26 1
   189  205  197 2
   190  206  197 2
   191  207  198 2
   192  208  198 2
   193  209   99 1
   194  210  107 1
   195  211  115 1
   196  212  124 1
   197  213  199 2
   198  214  199 2
   199  215  200 2
   200  216  200 2
   201    6    8 ar
   202   10   35 1
   203   14   16 ar
   204   18   38 1
   205   23   25 ar
   206   27   41 1
   207   32   34 ar
   208   34   44 1
   209   47  201 1
   210   60  202 1
   211   73  203 1
   212   86  204 1
   213  104  106 ar
   214  108  133 1
   215  112  114 ar
   216  116  136 1
   217  121  123 ar
   218  125  139 1
   219  130  132 ar
   220  132  142 1
   221  145  209 1
   222  158  210 1
   223  171  211 1
   224  184  212 1
@<TRIPOS>SUBSTRUCTURE
     1 RES1 1
     2 RES2 99

@<TRIPOS>CRYSIN
  17.5730   18.5030   25.8930  90.0000  94.9070  90.0000  14 1

