# MOL2 file generated by ConQuest
# Please check atom types

@<TRIPOS>MOLECULE
BUYXOK
   233   236     5
SMALL
NO_CHARGES
****
Generated from CSD

@<TRIPOS>ATOM
      1 O1        11.8967    4.3524    0.1671 O.2       1 RES1    0.0000
      2 O2        12.2184   12.5837    0.3995 O.2       1 RES1    0.0000
      3 O3        14.1845   12.6006    1.1528 O.2       1 RES1    0.0000
      4 N1        11.4510    6.1486    1.4958 N.am      1 RES1    0.0000
      5 N2         7.3796    2.6472    4.0435 N.pl3     1 RES1    0.0000
      6 H1         6.7890    2.4262    4.6558 H         1 RES1    0.0000
      7 N3         8.1404    0.4543    3.4517 N.ar      1 RES1    0.0000
      8 N4        13.2224   12.0286    0.7557 N.pl3     1 RES1    0.0000
      9 C1        12.0290    5.5716    0.4216 C.2       1 RES1    0.0000
     10 C2        12.9461    6.4093   -0.4021 C.3       1 RES1    0.0000
     11 H2        12.9184    6.0720   -1.3334 H         1 RES1    0.0000
     12 H3        13.8677    6.2719   -0.0689 H         1 RES1    0.0000
     13 C3        12.6719    7.9194   -0.4339 C.3       1 RES1    0.0000
     14 H4        12.0095    8.0809   -1.1658 H         1 RES1    0.0000
     15 C4        13.9255    8.6688   -0.8012 C.3       1 RES1    0.0000
     16 H5        14.1899    8.4208   -1.7227 H         1 RES1    0.0000
     17 H6        14.6560    8.3946   -0.1918 H         1 RES1    0.0000
     18 C5        13.7552   10.1836   -0.7235 C.3       1 RES1    0.0000
     19 H7        14.6170   10.6325   -0.9181 H         1 RES1    0.0000
     20 H8        13.0872   10.4852   -1.3893 H         1 RES1    0.0000
     21 C6        13.2897   10.5341    0.6809 C.3       1 RES1    0.0000
     22 H9        13.9605   10.2007    1.3446 H         1 RES1    0.0000
     23 C7        11.9256    9.9045    0.9792 C.3       1 RES1    0.0000
     24 H10       11.2989   10.2138    0.2645 H         1 RES1    0.0000
     25 C8        12.0512    8.4076    0.8371 C.2       1 RES1    0.0000
     26 C9        11.5037    7.5452    1.6808 C.2       1 RES1    0.0000
     27 H11       11.1139    7.8956    2.4732 H         1 RES1    0.0000
     28 C10       10.6853    5.3179    2.4160 C.3       1 RES1    0.0000
     29 H12       10.6769    5.7466    3.3075 H         1 RES1    0.0000
     30 H13       11.1326    4.4395    2.5067 H         1 RES1    0.0000
     31 C11        9.2528    5.0977    1.9625 C.3       1 RES1    0.0000
     32 H14        8.7211    5.9115    2.1491 H         1 RES1    0.0000
     33 H15        9.2408    4.9399    0.9852 H         1 RES1    0.0000
     34 C12        8.6263    3.9186    2.6684 C.2       1 RES1    0.0000
     35 C13        7.6863    3.9172    3.6228 C.2       1 RES1    0.0000
     36 H16        7.2783    4.7035    3.9686 H         1 RES1    0.0000
     37 C14        8.1673    1.7964    3.3287 C.ar      1 RES1    0.0000
     38 C15        8.9702    2.5452    2.4510 C.ar      1 RES1    0.0000
     39 C16        9.8249    1.8266    1.5863 C.ar      1 RES1    0.0000
     40 H17       10.3838    2.2715    0.9591 H         1 RES1    0.0000
     41 C17        9.8140    0.4887    1.6873 C.ar      1 RES1    0.0000
     42 H18       10.3771   -0.0263    1.1230 H         1 RES1    0.0000
     43 C18        8.9842   -0.1634    2.6132 C.ar      1 RES1    0.0000
     44 H19        9.0234   -1.1117    2.6482 H         1 RES1    0.0000
     45 C19       11.3250   10.3443    2.3290 C.ar      1 RES1    0.0000
     46 C20        9.9523   10.5377    2.4060 C.ar      1 RES1    0.0000
     47 H20        9.4051   10.4239    1.6389 H         1 RES1    0.0000
     48 C21        9.3943   10.8995    3.6260 C.ar      1 RES1    0.0000
     49 H21        8.4564   11.0323    3.6893 H         1 RES1    0.0000
     50 C22       10.1742   11.0702    4.7396 C.ar      1 RES1    0.0000
     51 H22        9.7784   11.3066    5.5684 H         1 RES1    0.0000
     52 C23       11.4940   10.8995    4.6521 C.ar      1 RES1    0.0000
     53 H23       12.0363   11.0498    5.4194 H         1 RES1    0.0000
     54 C24       12.0980   10.5012    3.4461 C.ar      1 RES1    0.0000
     55 H24       13.0347   10.3422    3.4081 H         1 RES1    0.0000
     56 O4         1.7212   -2.3366    9.2279 O.2       2 RES2    0.0000
     57 O5         1.0408  -10.9280    8.7364 O.2       2 RES2    0.0000
     58 O6        -0.5490  -10.0468    7.6132 O.2       2 RES2    0.0000
     59 N5         2.2315   -4.0867    7.9051 N.am      2 RES2    0.0000
     60 N6         6.2956   -0.6378    5.4190 N.pl3     2 RES2    0.0000
     61 H25        6.8793   -0.4100    4.8030 H         2 RES2    0.0000
     62 N7         5.3823    1.5389    5.8597 N.ar      2 RES2    0.0000
     63 N8         0.4061   -9.9626    8.3751 N.pl3     2 RES2    0.0000
     64 C25        1.6548   -3.5306    8.9887 C.2       2 RES2    0.0000
     65 C26        1.0107   -4.5080    9.9240 C.3       2 RES2    0.0000
     66 H26        0.3324   -4.0281   10.4607 H         2 RES2    0.0000
     67 H27        1.7015   -4.8450   10.5501 H         2 RES2    0.0000
     68 C27        0.3445   -5.6982    9.2575 C.3       2 RES2    0.0000
     69 H28       -0.4955   -5.3848    8.8126 H         2 RES2    0.0000
     70 C28       -0.0340   -6.7518   10.3369 C.3       2 RES2    0.0000
     71 H29        0.7339   -6.8715   10.9524 H         2 RES2    0.0000
     72 H30       -0.7968   -6.4090   10.8667 H         2 RES2    0.0000
     73 C29       -0.4030   -8.0751    9.7614 C.3       2 RES2    0.0000
     74 H31       -1.2115   -7.9832    9.1999 H         2 RES2    0.0000
     75 H32       -0.6038   -8.7141   10.4905 H         2 RES2    0.0000
     76 C30        0.7677   -8.6061    8.9072 C.3       2 RES2    0.0000
     77 H33        1.5932   -8.6718    9.4681 H         2 RES2    0.0000
     78 C31        1.0310   -7.6912    7.7024 C.3       2 RES2    0.0000
     79 H34        0.1903   -7.6753    7.1607 H         2 RES2    0.0000
     80 C32        1.2652   -6.2675    8.1991 C.2       2 RES2    0.0000
     81 C33        2.1530   -5.4614    7.6209 C.2       2 RES2    0.0000
     82 H35        2.7611   -5.8313    6.9893 H         2 RES2    0.0000
     83 C34        3.0467   -3.2335    7.0357 C.3       2 RES2    0.0000
     84 H36        2.6105   -2.3474    6.9540 H         2 RES2    0.0000
     85 H37        3.0855   -3.6356    6.1327 H         2 RES2    0.0000
     86 C35        4.4484   -3.0462    7.5467 C.3       2 RES2    0.0000
     87 H38        4.4273   -2.8697    8.5202 H         2 RES2    0.0000
     88 H39        4.9750   -3.8719    7.3935 H         2 RES2    0.0000
     89 C36        5.0940   -1.8989    6.8387 C.2       2 RES2    0.0000
     90 C37        6.0798   -1.9053    5.8826 C.2       2 RES2    0.0000
     91 H40        6.5433   -2.6786    5.5870 H         2 RES2    0.0000
     92 C38        5.4527    0.2148    6.0699 C.ar      2 RES2    0.0000
     93 C39        4.6912   -0.5296    6.9774 C.ar      2 RES2    0.0000
     94 C40        3.7572    0.1367    7.7447 C.ar      2 RES2    0.0000
     95 H41        3.2002   -0.3224    8.3619 H         2 RES2    0.0000
     96 C41        3.6719    1.5246    7.5691 C.ar      2 RES2    0.0000
     97 H42        3.0720    2.0381    8.0956 H         2 RES2    0.0000
     98 C42        4.4700    2.1402    6.6228 C.ar      2 RES2    0.0000
     99 H43        4.3557    3.0754    6.5070 H         2 RES2    0.0000
    100 C43        2.1063   -8.2013    6.8173 C.ar      2 RES2    0.0000
    101 C44        3.4160   -8.3698    7.2372 C.ar      2 RES2    0.0000
    102 H44        3.6496   -8.1626    8.1347 H         2 RES2    0.0000
    103 C45        4.3841   -8.8308    6.3748 C.ar      2 RES2    0.0000
    104 H45        5.2780   -8.9387    6.6802 H         2 RES2    0.0000
    105 C46        4.0728   -9.1299    5.0879 C.ar      2 RES2    0.0000
    106 H46        4.7606   -9.4100    4.4975 H         2 RES2    0.0000
    107 C47        2.7950   -9.0409    4.6223 C.ar      2 RES2    0.0000
    108 H47        2.5841   -9.2903    3.7303 H         2 RES2    0.0000
    109 C48        1.8118   -8.5769    5.4812 C.ar      2 RES2    0.0000
    110 H48        0.9160   -8.5084    5.1680 H         2 RES2    0.0000
    111 O7        16.6512   19.6326    7.3896 O.2       3 RES3    0.0000
    112 O8        22.1587   24.3305    3.5729 O.2       3 RES3    0.0000
    113 O9        20.6481   24.8438    2.1728 O.2       3 RES3    0.0000
    114 N9        18.0591   19.6366    5.6496 N.am      3 RES3    0.0000
    115 N10       17.0008   13.8831    4.4452 N.pl3     3 RES3    0.0000
    116 H49       16.9539   13.1696    3.9314 H         3 RES3    0.0000
    117 N11       15.5813   13.1372    6.2016 N.ar      3 RES3    0.0000
    118 N12       21.0377   24.2598    3.1617 N.pl3     3 RES3    0.0000
    119 C49       17.5744   20.1548    6.8007 C.2       3 RES3    0.0000
    120 C50       18.2115   21.3497    7.3080 C.3       3 RES3    0.0000
    121 H50       18.7259   21.0842    8.1105 H         3 RES3    0.0000
    122 H51       17.4900   21.9537    7.6170 H         3 RES3    0.0000
    123 C51       19.1475   22.1813    6.4280 C.3       3 RES3    0.0000
    124 H52       19.9519   22.3957    6.9800 H         3 RES3    0.0000
    125 C52       18.5722   23.4826    5.9725 C.3       3 RES3    0.0000
    126 H53       18.3033   24.0151    6.7621 H         3 RES3    0.0000
    127 H54       17.7598   23.3090    5.4324 H         3 RES3    0.0000
    128 C53       19.5769   24.2938    5.1304 C.3       3 RES3    0.0000
    129 H55       19.1508   25.1268    4.8086 H         3 RES3    0.0000
    130 H56       20.3604   24.5403    5.6857 H         3 RES3    0.0000
    131 C54       20.0294   23.4495    3.9407 C.3       3 RES3    0.0000
    132 H57       19.2410   23.2696    3.3541 H         3 RES3    0.0000
    133 C55       20.6412   22.1188    4.3603 C.3       3 RES3    0.0000
    134 H58       21.4259   22.3315    4.9408 H         3 RES3    0.0000
    135 C56       19.6258   21.4150    5.2345 C.2       3 RES3    0.0000
    136 C57       19.0902   20.2453    4.9195 C.2       3 RES3    0.0000
    137 H59       19.4234   19.7930    4.1549 H         3 RES3    0.0000
    138 C58       17.4469   18.3589    5.0922 C.3       3 RES3    0.0000
    139 H60       16.5454   18.2130    5.4771 H         3 RES3    0.0000
    140 H61       17.3613   18.4202    4.1083 H         3 RES3    0.0000
    141 C59       18.3330   17.2633    5.4548 C.3       3 RES3    0.0000
    142 H62       18.5861   17.3348    6.4083 H         3 RES3    0.0000
    143 H63       19.1588   17.2998    4.9073 H         3 RES3    0.0000
    144 C60       17.5835   15.9138    5.1996 C.2       3 RES3    0.0000
    145 C61       17.7388   15.0063    4.1698 C.2       3 RES3    0.0000
    146 H64       18.2719   15.1391    3.3950 H         3 RES3    0.0000
    147 C62       16.3600   14.0347    5.6175 C.ar      3 RES3    0.0000
    148 C63       16.6629   15.3186    6.1235 C.ar      3 RES3    0.0000
    149 C64       16.1092   15.6731    7.3395 C.ar      3 RES3    0.0000
    150 H65       16.2892   16.5207    7.7306 H         3 RES3    0.0000
    151 C65       15.3030   14.7802    7.9568 C.ar      3 RES3    0.0000
    152 H66       14.8999   15.0034    8.7884 H         3 RES3    0.0000
    153 C66       15.0514   13.5051    7.3693 C.ar      3 RES3    0.0000
    154 H67       14.4866   12.8953    7.8274 H         3 RES3    0.0000
    155 C67       21.1464   21.2718    3.2436 C.ar      3 RES3    0.0000
    156 C68       22.2312   20.4481    3.4883 C.ar      3 RES3    0.0000
    157 H68       22.6915   20.5079    4.3169 H         3 RES3    0.0000
    158 C69       22.6615   19.5173    2.5127 C.ar      3 RES3    0.0000
    159 H69       23.3879   18.9294    2.6929 H         3 RES3    0.0000
    160 C70       22.0213   19.4750    1.3139 C.ar      3 RES3    0.0000
    161 H70       22.3086   18.8535    0.6555 H         3 RES3    0.0000
    162 C71       20.9633   20.3182    1.0343 C.ar      3 RES3    0.0000
    163 H71       20.5455   20.3022    0.1806 H         3 RES3    0.0000
    164 C72       20.5182   21.1892    2.0173 C.ar      3 RES3    0.0000
    165 H72       19.7621   21.7392    1.8437 H         3 RES3    0.0000
    166 O10       15.8247    4.9140    1.8744 O.2       4 RES4    0.0000
    167 O11       12.0519   -0.5194    6.7305 O.2       4 RES4    0.0000
    168 O12       10.1719   -0.4126    5.7345 O.2       4 RES4    0.0000
    169 N13       14.0863    4.8232    3.3988 N.am      4 RES4    0.0000
    170 N14       15.5048   10.4846    4.8948 N.pl3     4 RES4    0.0000
    171 H73       15.3866   11.2526    5.3058 H         4 RES4    0.0000
    172 N15       16.7804   11.2723    3.0462 N.ar      4 RES4    0.0000
    173 N16       11.3417   -0.1154    5.8237 N.pl3     4 RES4    0.0000
    174 C73       15.0295    4.2542    2.5050 C.2       4 RES4    0.0000
    175 C74       14.6637    2.8595    2.1728 C.3       4 RES4    0.0000
    176 H74       15.4379    2.4466    1.7152 H         4 RES4    0.0000
    177 H75       13.9219    2.8916    1.5178 H         4 RES4    0.0000
    178 C75       14.2414    1.9236    3.3032 C.3       4 RES4    0.0000
    179 H76       15.0689    1.5596    3.7284 H         4 RES4    0.0000
    180 C76       13.4448    0.7616    2.7596 C.3       4 RES4    0.0000
    181 H77       14.0363    0.2042    2.1920 H         4 RES4    0.0000
    182 H78       12.7179    1.1102    2.1864 H         4 RES4    0.0000
    183 C77       12.8412   -0.1097    3.8446 C.3       4 RES4    0.0000
    184 H79       13.5614   -0.5296    4.3765 H         4 RES4    0.0000
    185 H80       12.3030   -0.8301    3.4323 H         4 RES4    0.0000
    186 C78       11.9557    0.7440    4.7583 C.3       4 RES4    0.0000
    187 H81       11.2231    1.1467    4.2089 H         4 RES4    0.0000
    188 C79       12.7515    1.8746    5.4187 C.3       4 RES4    0.0000
    189 H82       13.4568    1.4443    5.9818 H         4 RES4    0.0000
    190 C80       13.4650    2.6911    4.3651 C.2       4 RES4    0.0000
    191 C81       13.3584    4.0383    4.3206 C.2       4 RES4    0.0000
    192 H83       12.7731    4.4716    4.9296 H         4 RES4    0.0000
    193 C82       14.0827    6.2821    3.5533 C.3       4 RES4    0.0000
    194 H84       13.1840    6.5738    3.8494 H         4 RES4    0.0000
    195 H85       14.2647    6.7008    2.6743 H         4 RES4    0.0000
    196 C83       15.1277    6.7723    4.5664 C.3       4 RES4    0.0000
    197 H86       14.8142    6.5666    5.4827 H         4 RES4    0.0000
    198 H87       15.9789    6.2850    4.4193 H         4 RES4    0.0000
    199 C84       15.3742    8.2341    4.4491 C.2       4 RES4    0.0000
    200 C85       15.0765    9.1882    5.3896 C.2       4 RES4    0.0000
    201 H88       14.6602    9.0263    6.2276 H         4 RES4    0.0000
    202 C86       16.1249   10.3174    3.6817 C.ar      4 RES4    0.0000
    203 C87       15.9567    8.9606    3.2870 C.ar      4 RES4    0.0000
    204 C88       16.5141    8.6207    2.0728 C.ar      4 RES4    0.0000
    205 H89       16.4417    7.7395    1.7264 H         4 RES4    0.0000
    206 C89       17.1748    9.6025    1.3854 C.ar      4 RES4    0.0000
    207 H90       17.5712    9.4041    0.5457 H         4 RES4    0.0000
    208 C90       17.2681   10.8543    1.8959 C.ar      4 RES4    0.0000
    209 H91       17.7320   11.4962    1.3707 H         4 RES4    0.0000
    210 C91       11.8888    2.7207    6.3522 C.ar      4 RES4    0.0000
    211 C92       12.3175    2.9747    7.6358 C.ar      4 RES4    0.0000
    212 H92       13.1134    2.5618    7.9503 H         4 RES4    0.0000
    213 C93       11.6262    3.8063    8.4645 C.ar      4 RES4    0.0000
    214 H93       11.9457    3.9741    9.3433 H         4 RES4    0.0000
    215 C94       10.4395    4.4132    8.0129 C.ar      4 RES4    0.0000
    216 H94        9.9413    4.9822    8.5872 H         4 RES4    0.0000
    217 C95       10.0115    4.1678    6.7262 C.ar      4 RES4    0.0000
    218 H95        9.2129    4.5751    6.4083 H         4 RES4    0.0000
    219 C96       10.7318    3.3387    5.9004 C.ar      4 RES4    0.0000
    220 H96       10.4359    3.1877    5.0115 H         4 RES4    0.0000
    221 N17       14.7190    4.7035    3.7954 Du        5 SUP5    0.0000
    222 H97       15.5818   11.1402    5.4753 Du        5 SUP5    0.0000
    223 C97       13.8692    3.9143    4.5813 Du        5 SUP5    0.0000
    224 H98       13.5469    4.3213    5.3747 Du        5 SUP5    0.0000
    225 C98       15.1893    6.0574    4.2796 Du        5 SUP5    0.0000
    226 H99       15.1612    6.0822    5.2685 Du        5 SUP5    0.0000
    227 H100      16.1292    6.1989    3.9984 Du        5 SUP5    0.0000
    228 C99       14.3386    7.1516    3.7303 Du        5 SUP5    0.0000
    229 H101      13.4527    7.1326    4.1754 Du        5 SUP5    0.0000
    230 H102      14.1955    7.0028    2.7618 Du        5 SUP5    0.0000
    231 C100      14.9682    8.4894    3.9370 Du        5 SUP5    0.0000
    232 C101      14.7845    9.4275    4.9519 Du        5 SUP5    0.0000
    233 H103      14.1549    9.2903    5.6522 Du        5 SUP5    0.0000
@<TRIPOS>BOND
     1    1    9 2
     2    2    8 2
     3    3    8 2
     4    4    9 1
     5    5    6 1
     6    7   37 ar
     7    8   21 1
     8    9   10 1
     9   10   11 1
    10   12   10 1
    11   13   10 1
    12   14   13 1
    13   15   13 1
    14   16   15 1
    15   17   15 1
    16   18   15 1
    17   19   18 1
    18   20   18 1
    19   21   18 1
    20   22   21 1
    21   23   21 1
    22   24   23 1
    23   25   13 1
    24   26    4 1
    25   27   26 1
    26   28    4 1
    27   29   28 1
    28   30   28 1
    29   31   28 1
    30   32   31 1
    31   33   31 1
    32   34   31 1
    33   35    5 1
    34   36   35 1
    35   37    5 1
    36   38   34 1
    37   39   38 ar
    38   40   39 1
    39   41   39 ar
    40   42   41 1
    41   43    7 ar
    42   44   43 1
    43   45   23 1
    44   46   45 ar
    45   47   46 1
    46   48   46 ar
    47   49   48 1
    48   50   48 ar
    49   51   50 1
    50   52   50 ar
    51   53   52 1
    52   54   45 ar
    53   55   54 1
    54   56   64 2
    55   57   63 2
    56   58   63 2
    57   59   64 1
    58   60   61 1
    59   62   92 ar
    60   63   76 1
    61   64   65 1
    62   65   66 1
    63   67   65 1
    64   68   65 1
    65   69   68 1
    66   70   68 1
    67   71   70 1
    68   72   70 1
    69   73   70 1
    70   74   73 1
    71   75   73 1
    72   76   73 1
    73   77   76 1
    74   78   76 1
    75   79   78 1
    76   80   68 1
    77   81   59 1
    78   82   81 1
    79   83   59 1
    80   84   83 1
    81   85   83 1
    82   86   83 1
    83   87   86 1
    84   88   86 1
    85   89   86 1
    86   90   60 1
    87   91   90 1
    88   92   60 1
    89   93   89 1
    90   94   93 ar
    91   95   94 1
    92   96   94 ar
    93   97   96 1
    94   98   62 ar
    95   99   98 1
    96  100   78 1
    97  101  100 ar
    98  102  101 1
    99  103  101 ar
   100  104  103 1
   101  105  103 ar
   102  106  105 1
   103  107  105 ar
   104  108  107 1
   105  109  100 ar
   106  110  109 1
   107  111  119 2
   108  112  118 2
   109  113  118 2
   110  114  119 1
   111  115  116 1
   112  117  147 ar
   113  118  131 1
   114  119  120 1
   115  120  121 1
   116  122  120 1
   117  123  120 1
   118  124  123 1
   119  125  123 1
   120  126  125 1
   121  127  125 1
   122  128  125 1
   123  129  128 1
   124  130  128 1
   125  131  128 1
   126  132  131 1
   127  133  131 1
   128  134  133 1
   129  135  123 1
   130  136  114 1
   131  137  136 1
   132  138  114 1
   133  139  138 1
   134  140  138 1
   135  141  138 1
   136  142  141 1
   137  143  141 1
   138  144  141 1
   139  145  115 1
   140  146  145 1
   141  147  115 1
   142  148  144 1
   143  149  148 ar
   144  150  149 1
   145  151  149 ar
   146  152  151 1
   147  153  117 ar
   148  154  153 1
   149  155  133 1
   150  156  155 ar
   151  157  156 1
   152  158  156 ar
   153  159  158 1
   154  160  158 ar
   155  161  160 1
   156  162  160 ar
   157  163  162 1
   158  164  155 ar
   159  165  164 1
   160  166  174 2
   161  167  173 2
   162  168  173 2
   163  169  174 1
   164  170  171 1
   165  172  202 ar
   166  173  186 1
   167  174  175 1
   168  175  176 1
   169  177  175 1
   170  178  175 1
   171  179  178 1
   172  180  178 1
   173  181  180 1
   174  182  180 1
   175  183  180 1
   176  184  183 1
   177  185  183 1
   178  186  183 1
   179  187  186 1
   180  188  186 1
   181  189  188 1
   182  190  178 1
   183  191  169 1
   184  192  191 1
   185  193  169 1
   186  194  193 1
   187  195  193 1
   188  196  193 1
   189  197  196 1
   190  198  196 1
   191  199  196 1
   192  200  170 1
   193  201  200 1
   194  202  170 1
   195  203  199 1
   196  204  203 ar
   197  205  204 1
   198  206  204 ar
   199  207  206 1
   200  208  172 ar
   201  209  208 1
   202  210  188 1
   203  211  210 ar
   204  212  211 1
   205  213  211 ar
   206  214  213 1
   207  215  213 ar
   208  216  215 1
   209  217  215 ar
   210  218  217 1
   211  219  210 ar
   212  220  219 1
   213   23   25 1
   214   25   26 2
   215   34   35 2
   216   37   38 ar
   217   41   43 ar
   218   52   54 ar
   219   78   80 1
   220   80   81 2
   221   89   90 2
   222   92   93 ar
   223   96   98 ar
   224  107  109 ar
   225  133  135 1
   226  135  136 2
   227  144  145 2
   228  147  148 ar
   229  151  153 ar
   230  162  164 ar
   231  188  190 1
   232  190  191 2
   233  199  200 2
   234  202  203 ar
   235  206  208 ar
   236  217  219 ar
@<TRIPOS>SUBSTRUCTURE
     1 RES1 1
     2 RES2 56
     3 RES3 111
     4 RES4 166
     5 SUP5 221

@<TRIPOS>CRYSIN
  37.9789   14.5891   21.4715  90.0000 119.8476  90.0000   5 1

