# MOL2 file generated by ConQuest
# Please check atom types

@<TRIPOS>MOLECULE
BUYZAW
    23    24     1
SMALL
NO_CHARGES
****
Generated from CSD

@<TRIPOS>ATOM
      1 C1         1.8567   -0.0037    0.5475 C.3       1 RES1    0.0000
      2 C2         2.6210    1.4446    2.4305 C.3       1 RES1    0.0000
      3 C3         0.4190    0.5881    2.3297 C.3       1 RES1    0.0000
      4 C4         1.0656   -1.6887    2.1427 C.3       1 RES1    0.0000
      5 C5         1.8457   -0.2656    4.0202 C.3       1 RES1    0.0000
      6 N1         4.2698    0.1598    1.2665 N.2       1 RES1    0.0000
      7 N2         2.9281    0.5267    1.3428 N.pl3     1 RES1    0.0000
      8 N3         0.7753   -0.5023    1.4118 N.3       1 RES1    0.0000
      9 N4         1.5222    0.9054    3.2104 N.3       1 RES1    0.0000
     10 N5         2.0386   -1.4528    3.1750 N.3       1 RES1    0.0000
     11 N6         3.1396   -2.3330    3.1096 N.2       1 RES1    0.0000
     12 O1         4.5548   -0.5629    0.3804 O.2       1 RES1    0.0000
     13 O2         3.9115   -1.9920    3.8786 O.2       1 RES1    0.0000
     14 H1         1.4700    0.7745   -0.0944 H         1 RES1    0.0000
     15 H2         2.2303   -0.8144   -0.0599 H         1 RES1    0.0000
     16 H3         3.4890    1.5608    3.0615 H         1 RES1    0.0000
     17 H4         2.3381    2.4040    2.0246 H         1 RES1    0.0000
     18 H5         0.1612    1.4653    1.7541 H         1 RES1    0.0000
     19 H6        -0.4328    0.2892    2.9217 H         1 RES1    0.0000
     20 H7         0.1558   -2.0556    2.5930 H         1 RES1    0.0000
     21 H8         1.4482   -2.4358    1.4627 H         1 RES1    0.0000
     22 H9         2.7542   -0.0740    4.5704 H         1 RES1    0.0000
     23 H10        1.0381   -0.4512    4.7130 H         1 RES1    0.0000
@<TRIPOS>BOND
     1    1    7 1
     2    2    7 1
     3    3    8 1
     4    4    8 1
     5    5    9 1
     6    6    7 1
     7    8    1 1
     8    9    2 1
     9   10    4 1
    10   11   10 1
    11   12    6 2
    12   13   11 2
    13   14    1 1
    14   15    1 1
    15   16    2 1
    16   17    2 1
    17   18    3 1
    18   19    3 1
    19   20    4 1
    20   21    4 1
    21   22    5 1
    22   23    5 1
    23    3    9 1
    24    5   10 1
@<TRIPOS>SUBSTRUCTURE
     1 RES1 1

@<TRIPOS>CRYSIN
  12.1560    7.3970    9.9230  90.0000 113.8000  90.0000  14 2

