# MOL2 file generated by ConQuest
# Please check atom types

@<TRIPOS>MOLECULE
BVXIPO
    32    34     1
SMALL
NO_CHARGES
****
Generated from CSD

@<TRIPOS>ATOM
      1 C1         4.3973   10.6174    5.8572 C.ar      1 RES1    0.0000
      2 C2         5.4641   11.3487    6.3260 C.ar      1 RES1    0.0000
      3 C3         5.5723   12.6856    5.9796 C.ar      1 RES1    0.0000
      4 C4         4.6199   13.2561    5.1674 C.ar      1 RES1    0.0000
      5 C5         3.5555   12.5248    4.7061 C.ar      1 RES1    0.0000
      6 C6         3.4388   11.1954    5.0577 C.ar      1 RES1    0.0000
      7 C7         3.0738    7.4033    6.3675 C.2       1 RES1    0.0000
      8 C8         1.8903    6.5036    6.3660 C.3       1 RES1    0.0000
      9 C9         4.4922    7.0263    6.5188 C.2       1 RES1    0.0000
     10 C10        5.2585    8.3004    6.3274 C.2       1 RES1    0.0000
     11 C11        4.8048    3.6514    6.7272 C.2       1 RES1    0.0000
     12 C12        3.9217    2.5406    7.2345 C.3       1 RES1    0.0000
     13 C13        4.0956    2.3270    8.7573 C.3       1 RES1    0.0000
     14 C14        3.3986    1.0479    9.1941 C.3       1 RES1    0.0000
     15 C15        5.5565    2.3195    9.1778 C.3       1 RES1    0.0000
     16 C16        2.0946    2.8774    5.6948 C.2       1 RES1    0.0000
     17 C17        0.1666    3.3398    4.3389 C.3       1 RES1    0.0000
     18 C18       -0.9707    4.2822    4.4969 C.ar      1 RES1    0.0000
     19 C19       -0.8478    5.5939    4.1342 C.ar      1 RES1    0.0000
     20 C20       -1.8830    6.4986    4.2989 C.ar      1 RES1    0.0000
     21 C21       -3.0763    6.0488    4.8107 C.ar      1 RES1    0.0000
     22 C22       -3.2308    4.7546    5.1533 C.ar      1 RES1    0.0000
     23 C23       -2.1676    3.8474    5.0028 C.ar      1 RES1    0.0000
     24 O1         6.4627    8.4713    6.2688 O.2       1 RES1    0.0000
     25 O2         4.2209    4.8652    6.9052 O.3       1 RES1    0.0000
     26 O3         5.8801    3.5207    6.2332 O.2       1 RES1    0.0000
     27 O4         2.7989    2.7291    4.7068 O.2       1 RES1    0.0000
     28 O5         0.7870    3.1890    5.6436 O.3       1 RES1    0.0000
     29 N1         4.2732    9.2328    6.1925 N.am      1 RES1    0.0000
     30 N2         2.9850    8.6673    6.1709 N.2       1 RES1    0.0000
     31 N3         5.1247    5.9357    6.6976 N.2       1 RES1    0.0000
     32 N4         2.5240    2.7744    6.9438 N.am      1 RES1    0.0000
@<TRIPOS>BOND
     1    1    2 ar
     2    2    3 ar
     3    3    4 ar
     4    4    5 ar
     5    5    6 ar
     6    6    1 ar
     7    7    8 1
     8    9    7 1
     9   10    9 1
    10   11   12 1
    11   12   13 1
    12   13   14 1
    13   15   13 1
    14   16   27 2
    15   17   18 1
    16   18   19 ar
    17   19   20 ar
    18   20   21 ar
    19   21   22 ar
    20   22   23 ar
    21   23   18 ar
    22   24   10 2
    23   25   11 1
    24   26   11 2
    25   28   16 1
    26   29    1 1
    27   30    7 2
    28   31    9 2
    29   32   12 1
    30   10   29 1
    31   16   32 1
    32   17   28 1
    33   25   31 1
    34   29   30 1
@<TRIPOS>SUBSTRUCTURE
     1 RES1 1

@<TRIPOS>CRYSIN
  12.1640   25.1300    7.4170  90.0000  90.0000  90.0000  19 1

