# MOL2 file generated by ConQuest
# Please check atom types

@<TRIPOS>MOLECULE
BZAMOX10
    17    18     1
SMALL
NO_CHARGES
****
Generated from CSD

@<TRIPOS>ATOM
      1 O1        -0.1007   -6.4154    2.0782 O.3       1 RES1    0.0000
      2 N1         0.9305   -7.1503    2.7590 N.2       1 RES1    0.0000
      3 N2         1.9206   -7.0440    0.6522 N.pl3     1 RES1    0.0000
      4 C1         3.0279   -8.1788    2.5238 C.ar      1 RES1    0.0000
      5 C2         3.1257   -9.5169    2.2519 C.ar      1 RES1    0.0000
      6 C3         4.1471  -10.2730    2.7751 C.ar      1 RES1    0.0000
      7 C4         5.0796   -9.6923    3.5658 C.ar      1 RES1    0.0000
      8 C5         5.0014   -8.3568    3.8516 C.ar      1 RES1    0.0000
      9 C6         3.9685   -7.5994    3.3350 C.ar      1 RES1    0.0000
     10 C7         3.9237   -5.6461    0.1649 C.ar      1 RES1    0.0000
     11 C8         5.1297   -5.4547   -0.4763 C.ar      1 RES1    0.0000
     12 C9         5.8963   -4.3345   -0.2352 C.ar      1 RES1    0.0000
     13 C10        5.4579   -3.3951    0.6551 C.ar      1 RES1    0.0000
     14 C11        4.2745   -3.5638    1.2934 C.ar      1 RES1    0.0000
     15 C12        3.5001   -4.6800    1.0596 C.ar      1 RES1    0.0000
     16 C13        3.1248   -6.8898   -0.1238 C.3       1 RES1    0.0000
     17 C14        1.9035   -7.3908    1.9749 C.2       1 RES1    0.0000
@<TRIPOS>BOND
     1    1    2 1
     2    2   17 2
     3    3   16 1
     4    4    5 ar
     5    5    6 ar
     6    6    7 ar
     7    7    8 ar
     8    8    9 ar
     9    9    4 ar
    10   10   11 ar
    11   11   12 ar
    12   12   13 ar
    13   13   14 ar
    14   14   15 ar
    15   15   10 ar
    16   16   10 1
    17   17    3 1
    18    4   17 1
@<TRIPOS>SUBSTRUCTURE
     1 RES1 1

@<TRIPOS>CRYSIN
  12.5130   13.2880    7.3320  90.0000  91.8800  90.0000  14 2

