# MOL2 file generated by ConQuest
# Please check atom types

@<TRIPOS>MOLECULE
BZHYDX02
    29    30     1
SMALL
NO_CHARGES
****
Generated from CSD

@<TRIPOS>ATOM
      1 N1         0.2191    6.9425   13.6408 N.am      1 RES1    0.0000
      2 H1        -0.4446    7.2437   14.0974 H         1 RES1    0.0000
      3 O1         1.4396    8.9095   12.4605 O.2       1 RES1    0.0000
      4 O2         0.2308    7.0190   12.2427 O.3       1 RES1    0.0000
      5 O3         2.2634    6.0294   13.6063 O.2       1 RES1    0.0000
      6 C1         0.9520    8.0709   10.2801 C.ar      1 RES1    0.0000
      7 C2         1.7854    8.9727    9.6506 C.ar      1 RES1    0.0000
      8 H2         2.3027    9.5582   10.1570 H         1 RES1    0.0000
      9 C3         1.8537    9.0086    8.2719 C.ar      1 RES1    0.0000
     10 H3         2.4266    9.6073    7.8499 H         1 RES1    0.0000
     11 C4         1.0795    8.1625    7.5291 C.ar      1 RES1    0.0000
     12 H4         1.1154    8.1965    6.6007 H         1 RES1    0.0000
     13 C5         0.2497    7.2636    8.1467 C.ar      1 RES1    0.0000
     14 H5        -0.2748    6.6904    7.6361 H         1 RES1    0.0000
     15 C6         0.1886    7.2069    9.5290 C.ar      1 RES1    0.0000
     16 H6        -0.3655    6.5874    9.9474 H         1 RES1    0.0000
     17 C7         0.9349    8.1030   11.7589 C.2       1 RES1    0.0000
     18 C8         1.2699    6.3872   14.2381 C.2       1 RES1    0.0000
     19 C9         1.1612    6.2163   15.7137 C.ar      1 RES1    0.0000
     20 C10        1.9453    5.2343   16.3006 C.ar      1 RES1    0.0000
     21 H7         2.4913    4.7007   15.7701 H         1 RES1    0.0000
     22 C11        1.9201    5.0426   17.6707 C.ar      1 RES1    0.0000
     23 H8         2.4509    4.3844   18.0590 H         1 RES1    0.0000
     24 C12        1.1172    5.8207   18.4519 C.ar      1 RES1    0.0000
     25 H9         1.0993    5.6904   19.3729 H         1 RES1    0.0000
     26 C13        0.3305    6.8018   17.8823 C.ar      1 RES1    0.0000
     27 H10       -0.2137    7.3325   18.4177 H         1 RES1    0.0000
     28 C14        0.3538    6.9935   16.5116 C.ar      1 RES1    0.0000
     29 H11       -0.1796    7.6526   16.1274 H         1 RES1    0.0000
@<TRIPOS>BOND
     1    1    2 1
     2    3   17 2
     3    4    1 1
     4    5   18 2
     5    6    7 ar
     6    7    8 1
     7    9    7 ar
     8   10    9 1
     9   11    9 ar
    10   12   11 1
    11   13   11 ar
    12   14   13 1
    13   15    6 ar
    14   16   15 1
    15   17    4 1
    16   18    1 1
    17   19   18 1
    18   20   19 ar
    19   21   20 1
    20   22   20 ar
    21   23   22 1
    22   24   22 ar
    23   25   24 1
    24   26   24 ar
    25   27   26 1
    26   28   19 ar
    27   29   28 1
    28    6   17 1
    29   13   15 ar
    30   26   28 ar
@<TRIPOS>SUBSTRUCTURE
     1 RES1 1

@<TRIPOS>CRYSIN
   8.9809    9.4430   14.0679  90.0000  90.0000  90.0000  19 1

