# MOL2 file generated by ConQuest
# Please check atom types

@<TRIPOS>MOLECULE
BZHYDX03
    29    30     1
SMALL
NO_CHARGES
****
Generated from CSD

@<TRIPOS>ATOM
      1 O1         2.2307    3.3445    6.5503 O.2       1 RES1    0.0000
      2 O2         4.2788    2.3933    5.1847 O.3       1 RES1    0.0000
      3 O3         3.0541    0.5019    5.4142 O.2       1 RES1    0.0000
      4 N1         4.2978    2.4622    6.5849 N.am      1 RES1    0.0000
      5 H1         5.0231    2.1089    6.9596 H         1 RES1    0.0000
      6 C1         3.3335    3.1707    8.6664 C.ar      1 RES1    0.0000
      7 C2         2.5160    4.1355    9.2495 C.ar      1 RES1    0.0000
      8 H2         1.9698    4.6895    8.6776 H         1 RES1    0.0000
      9 C3         2.5277    4.3195   10.6265 C.ar      1 RES1    0.0000
     10 H3         1.9340    5.0132   11.0341 H         1 RES1    0.0000
     11 C4         3.3523    3.5426   11.4222 C.ar      1 RES1    0.0000
     12 H4         3.3398    3.6813   12.3964 H         1 RES1    0.0000
     13 C5         4.1716    2.5843   10.8449 C.ar      1 RES1    0.0000
     14 H5         4.7545    2.0164   11.4052 H         1 RES1    0.0000
     15 C6         4.1671    2.3975    9.4656 C.ar      1 RES1    0.0000
     16 H6         4.6828    1.7019    9.0966 H         1 RES1    0.0000
     17 C7         3.2332    3.0015    7.1846 C.2       1 RES1    0.0000
     18 C8         3.5260    1.3356    3.2216 C.ar      1 RES1    0.0000
     19 C9         3.5636    1.3181    4.7061 C.2       1 RES1    0.0000
     20 C10        2.6584    0.4458    2.6017 C.ar      1 RES1    0.0000
     21 H7         2.1131   -0.1480    3.1550 H         1 RES1    0.0000
     22 C11        2.5796    0.4162    1.2187 C.ar      1 RES1    0.0000
     23 H8         1.9340   -0.2035    0.7592 H         1 RES1    0.0000
     24 C12        3.3774    1.2552    0.4567 C.ar      1 RES1    0.0000
     25 H9         3.3129    1.1839   -0.5061 H         1 RES1    0.0000
     26 C13        4.2468    2.1422    1.0761 C.ar      1 RES1    0.0000
     27 H10        4.8619    2.7471    0.5764 H         1 RES1    0.0000
     28 C14        4.3184    2.1921    2.4633 C.ar      1 RES1    0.0000
     29 H11        4.9067    2.8396    2.9399 H         1 RES1    0.0000
@<TRIPOS>BOND
     1    1   17 2
     2    2    4 1
     3    3   19 2
     4    4    5 1
     5    6    7 ar
     6    7    8 1
     7    9    7 ar
     8   10    9 1
     9   11    9 ar
    10   12   11 1
    11   13   11 ar
    12   14   13 1
    13   15    6 ar
    14   16   15 1
    15   17    4 1
    16   18   19 1
    17   19    2 1
    18   20   18 ar
    19   21   20 1
    20   22   20 ar
    21   23   22 1
    22   24   22 ar
    23   25   24 1
    24   26   24 ar
    25   27   26 1
    26   28   18 ar
    27   29   28 1
    28    6   17 1
    29   13   15 ar
    30   26   28 ar
@<TRIPOS>SUBSTRUCTURE
     1 RES1 1

@<TRIPOS>CRYSIN
   8.9538    9.2495   14.0597  90.0000  90.0000  90.0000  19 1

