# MOL2 file generated by ConQuest
# Please check atom types

@<TRIPOS>MOLECULE
BZOCYX10
    33    34     1
SMALL
NO_CHARGES
****
Generated from CSD

@<TRIPOS>ATOM
      1 C1         1.6178    0.3270   -2.8395 C.3       1 RES1    0.0000
      2 C2        -0.0764   -3.4326   -2.4726 C.ar      1 RES1    0.0000
      3 C3         0.0193   -4.7650   -2.8182 C.ar      1 RES1    0.0000
      4 C4        -0.9532   -5.3502   -3.6112 C.ar      1 RES1    0.0000
      5 C5        -2.0309   -4.6128   -4.0255 C.ar      1 RES1    0.0000
      6 C6        -2.1728   -3.3059   -3.6515 C.ar      1 RES1    0.0000
      7 C7        -1.1987   -2.7021   -2.8726 C.ar      1 RES1    0.0000
      8 C8         1.5942   -3.6398   -0.6036 C.1       1 RES1    0.0000
      9 C9         1.1824    1.0751   -4.0776 C.ar      1 RES1    0.0000
     10 C10       -0.0488    0.7835   -4.6706 C.ar      1 RES1    0.0000
     11 C11       -0.4427    1.5013   -5.7808 C.ar      1 RES1    0.0000
     12 C12        0.3523    2.4871   -6.2945 C.ar      1 RES1    0.0000
     13 C13        1.5567    2.7865   -5.7039 C.ar      1 RES1    0.0000
     14 C14        1.9867    2.0796   -4.5984 C.ar      1 RES1    0.0000
     15 C15        3.0990    0.1944   -2.7401 C.1       1 RES1    0.0000
     16 C16        0.9824   -2.8219   -1.6488 C.2       1 RES1    0.0000
     17 H1         0.8246   -5.2039   -2.5566 H         1 RES1    0.0000
     18 H2        -0.8373   -6.2741   -3.8586 H         1 RES1    0.0000
     19 H3        -2.7012   -4.9682   -4.5569 H         1 RES1    0.0000
     20 H4        -2.8716   -2.7492   -3.9178 H         1 RES1    0.0000
     21 H5        -1.3034   -1.7772   -2.6040 H         1 RES1    0.0000
     22 H6        -0.6113    0.2062   -4.2610 H         1 RES1    0.0000
     23 H7        -1.2638    1.2764   -6.2258 H         1 RES1    0.0000
     24 H8         0.0346    2.9750   -7.0899 H         1 RES1    0.0000
     25 H9         2.1849    3.4267   -6.0720 H         1 RES1    0.0000
     26 H10        2.8365    2.2877   -4.1663 H         1 RES1    0.0000
     27 N1         1.1812    1.2008   -1.5505 N.pl3     1 RES1    0.0000
     28 N2         1.5331   -1.6633   -1.7091 N.2       1 RES1    0.0000
     29 N3         4.2069    0.0805   -2.7401 N.1       1 RES1    0.0000
     30 N4         2.0572   -4.3015    0.1823 N.1       1 RES1    0.0000
     31 O1         0.0829    1.0015   -1.2168 O.2       1 RES1    0.0000
     32 O2         1.9393    1.9303   -1.1481 O.2       1 RES1    0.0000
     33 O3         0.9833   -0.8994   -2.7839 O.3       1 RES1    0.0000
@<TRIPOS>BOND
     1    1    9 1
     2    2    3 ar
     3    3    4 ar
     4    4    5 ar
     5    5    6 ar
     6    6    7 ar
     7    7    2 ar
     8    8   16 1
     9    9   10 ar
    10   10   11 ar
    11   11   12 ar
    12   12   13 ar
    13   13   14 ar
    14   14    9 ar
    15   15    1 1
    16   16    2 1
    17   17    3 1
    18   18    4 1
    19   19    5 1
    20   20    6 1
    21   21    7 1
    22   22   10 1
    23   23   11 1
    24   24   12 1
    25   25   13 1
    26   26   14 1
    27   27    1 1
    28   28   16 2
    29   29   15 3
    30   30    8 3
    31   31   27 2
    32   32   27 2
    33   33    1 1
    34   28   33 1
@<TRIPOS>SUBSTRUCTURE
     1 RES1 1

@<TRIPOS>CRYSIN
  13.0346    9.8186   12.0830  90.0000 101.6000  90.0000 231 1

