# MOL2 file generated by ConQuest
# Please check atom types

@<TRIPOS>MOLECULE
CABLIA
    38    40     1
SMALL
NO_CHARGES
****
Generated from CSD

@<TRIPOS>ATOM
      1 N1         2.9626    3.0095    1.3528 N.am      1 RES1    0.0000
      2 N2         2.2996    0.0775    3.3768 N.pl3     1 RES1    0.0000
      3 C1         3.0529    2.4758    3.6348 C.3       1 RES1    0.0000
      4 C2        -0.2088    2.1669    2.2430 C.2       1 RES1    0.0000
      5 C3         0.6516    1.9035    3.2162 C.2       1 RES1    0.0000
      6 C4         2.0822    1.5238    2.9183 C.3       1 RES1    0.0000
      7 C5         2.5017    1.6185    1.4415 C.3       1 RES1    0.0000
      8 O1         1.3511   -0.6502    3.4360 O.2       1 RES1    0.0000
      9 C6         0.0725    1.9341    0.8300 C.2       1 RES1    0.0000
     10 C7         2.6879    2.8030    5.0756 C.3       1 RES1    0.0000
     11 C8         3.0426    3.6566    2.6683 C.3       1 RES1    0.0000
     12 C9         1.3593    1.2854    0.4816 C.3       1 RES1    0.0000
     13 C10        0.3325    2.1192    4.6621 C.3       1 RES1    0.0000
     14 C11        3.9966    4.9248    0.2746 C.3       1 RES1    0.0000
     15 O2         3.5956    2.8066   -0.7933 O.2       1 RES1    0.0000
     16 O3         3.4154   -0.2868    3.6427 O.2       1 RES1    0.0000
     17 C12        3.5145    3.4998    0.2178 C.2       1 RES1    0.0000
     18 C13        1.2348    3.1963    5.2460 C.3       1 RES1    0.0000
     19 O4        -0.7654    2.1807   -0.0373 O.2       1 RES1    0.0000
     20 C14        4.4227    5.4591   -1.0784 C.3       1 RES1    0.0000
     21 H1         3.3230    0.8983    1.2278 H         1 RES1    0.0000
     22 H2         2.1697    4.2853    2.7626 H         1 RES1    0.0000
     23 H3         3.9151    4.1675    2.7796 H         1 RES1    0.0000
     24 H4         0.4516    1.1265    5.2011 H         1 RES1    0.0000
     25 H5         0.9448    4.1895    4.7748 H         1 RES1    0.0000
     26 H6         1.3030    0.1841    0.5798 H         1 RES1    0.0000
     27 H7         3.9516    1.9880    3.4958 H         1 RES1    0.0000
     28 H8         1.0035    3.2913    6.2243 H         1 RES1    0.0000
     29 H9         3.0009    1.8702    5.7468 H         1 RES1    0.0000
     30 H10        1.7958    1.4947   -0.4093 H         1 RES1    0.0000
     31 H11        3.3955    3.5563    5.3717 H         1 RES1    0.0000
     32 H12       -1.2045    2.5697    2.4727 H         1 RES1    0.0000
     33 H13       -0.6524    2.2678    4.7919 H         1 RES1    0.0000
     34 H14        3.2352    5.5296    0.7162 H         1 RES1    0.0000
     35 H15        4.7724    4.8890    0.8356 H         1 RES1    0.0000
     36 H16        4.6467    6.5089   -1.0061 H         1 RES1    0.0000
     37 H17        3.4792    5.3234   -1.8247 H         1 RES1    0.0000
     38 H18        5.1767    4.8890   -1.6200 H         1 RES1    0.0000
@<TRIPOS>BOND
     1    1    7 1
     2    2    6 1
     3    3    6 1
     4    4    5 2
     5    5    6 1
     6    6    7 1
     7    7   12 1
     8    8    2 2
     9    9    4 1
    10   10    3 1
    11   11    1 1
    12   12    9 1
    13   13    5 1
    14   14   17 1
    15   15   17 2
    16   16    2 2
    17   17    1 1
    18   18   10 1
    19   19    9 2
    20   20   14 1
    21   21    7 1
    22   22   11 1
    23   23   11 1
    24   24   13 1
    25   25   18 1
    26   26   12 1
    27   27    3 1
    28   28   18 1
    29   29   10 1
    30   30   12 1
    31   31   10 1
    32   32    4 1
    33   33   13 1
    34   34   14 1
    35   35   14 1
    36   36   20 1
    37   37   20 1
    38   38   20 1
    39    3   11 1
    40   13   18 1
@<TRIPOS>SUBSTRUCTURE
     1 RES1 1

@<TRIPOS>CRYSIN
  11.0680    7.3630   17.3780  90.0000 101.1000  90.0000  14 1

