# MOL2 file generated by ConQuest
# Please check atom types

@<TRIPOS>MOLECULE
CABQED
    50    52     1
SMALL
NO_CHARGES
****
Generated from CSD

@<TRIPOS>ATOM
      1 N1         2.4702    3.8479    6.1095 N.pl3     1 RES1    0.0000
      2 H1         1.6723    3.8384    5.9118 H         1 RES1    0.0000
      3 N2         2.8171    4.5830    7.1963 N.2       1 RES1    0.0000
      4 N3         4.6380    3.7205    6.1978 N.2       1 RES1    0.0000
      5 C1         3.5479    3.3378    5.5330 C.2       1 RES1    0.0000
      6 C2         3.5119    2.5121    4.2882 C.3       1 RES1    0.0000
      7 H2         4.4368    2.2182    4.0473 H         1 RES1    0.0000
      8 C3         2.8737    3.2247    3.1131 C.3       1 RES1    0.0000
      9 H3         2.8788    2.6355    2.3307 H         1 RES1    0.0000
     10 H4         3.3793    4.0392    2.9118 H         1 RES1    0.0000
     11 H5         1.9493    3.4612    3.3375 H         1 RES1    0.0000
     12 C4         4.1252    4.4842    7.2165 C.2       1 RES1    0.0000
     13 C5         4.9474    5.1050    8.3060 C.3       1 RES1    0.0000
     14 H6         5.8363    5.3826    7.9419 H         1 RES1    0.0000
     15 C6         5.1456    4.1778    9.4810 C.3       1 RES1    0.0000
     16 H7         5.6845    4.6283   10.1651 H         1 RES1    0.0000
     17 H8         5.6074    3.3675    9.1831 H         1 RES1    0.0000
     18 H9         4.2737    3.9365    9.8589 H         1 RES1    0.0000
     19 O1         2.6980    1.3501    4.6467 O.3       1 RES1    0.0000
     20 C7         2.9483    0.2165    3.9801 C.2       1 RES1    0.0000
     21 O2         3.7950    0.1301    3.1141 O.2       1 RES1    0.0000
     22 C8         2.0798   -0.8989    4.4417 C.ar      1 RES1    0.0000
     23 C9         1.0579   -0.6978    5.3492 C.ar      1 RES1    0.0000
     24 H10        0.8980    0.1718    5.6939 H         1 RES1    0.0000
     25 C10        0.2662   -1.7560    5.7583 C.ar      1 RES1    0.0000
     26 H11       -0.4471   -1.6224    6.3715 H         1 RES1    0.0000
     27 C11        0.5402   -3.0142    5.2517 C.ar      1 RES1    0.0000
     28 C12        1.5418   -3.2499    4.3608 C.ar      1 RES1    0.0000
     29 H12        1.6969   -4.1262    4.0289 H         1 RES1    0.0000
     30 C13        2.3296   -2.1917    3.9489 C.ar      1 RES1    0.0000
     31 H13        3.0389   -2.3365    3.3338 H         1 RES1    0.0000
     32 N4        -0.3231   -4.1334    5.7031 N.pl3     1 RES1    0.0000
     33 O3        -1.2071   -3.9178    6.5407 O.2       1 RES1    0.0000
     34 O4        -0.1177   -5.2362    5.2057 O.2       1 RES1    0.0000
     35 O5         4.2381    6.2688    8.8043 O.3       1 RES1    0.0000
     36 C14        4.3609    7.3832    8.0807 C.2       1 RES1    0.0000
     37 O6         5.0802    7.4770    7.1154 O.2       1 RES1    0.0000
     38 C15        3.5139    8.4901    8.5975 C.ar      1 RES1    0.0000
     39 C16        2.4858    8.2525    9.4893 C.ar      1 RES1    0.0000
     40 H14        2.3211    7.3687    9.7973 H         1 RES1    0.0000
     41 C17        1.6945    9.2984    9.9343 C.ar      1 RES1    0.0000
     42 H15        0.9802    9.1429   10.5402 H         1 RES1    0.0000
     43 C18        1.9698   10.5760    9.4737 C.ar      1 RES1    0.0000
     44 C19        2.9821   10.8447    8.5901 C.ar      1 RES1    0.0000
     45 H16        3.1488   11.7315    8.2922 H         1 RES1    0.0000
     46 C20        3.7604    9.7795    8.1423 C.ar      1 RES1    0.0000
     47 H17        4.4634    9.9351    7.5227 H         1 RES1    0.0000
     48 N5         1.1370   11.6996    9.9490 N.pl3     1 RES1    0.0000
     49 O7         0.2779   11.4595   10.8022 O.2       1 RES1    0.0000
     50 O8         1.3337   12.8094    9.4599 O.2       1 RES1    0.0000
@<TRIPOS>BOND
     1    1    2 1
     2    3    1 1
     3    4    5 2
     4    5    1 1
     5    6    5 1
     6    7    6 1
     7    8    6 1
     8    9    8 1
     9   10    8 1
    10   11    8 1
    11   12    3 2
    12   13   12 1
    13   14   13 1
    14   15   13 1
    15   16   15 1
    16   17   15 1
    17   18   15 1
    18   19    6 1
    19   20   19 1
    20   21   20 2
    21   22   20 1
    22   23   22 ar
    23   24   23 1
    24   25   23 ar
    25   26   25 1
    26   27   25 ar
    27   28   27 ar
    28   29   28 1
    29   30   22 ar
    30   31   30 1
    31   32   27 1
    32   33   32 2
    33   34   32 2
    34   35   13 1
    35   36   35 1
    36   37   36 2
    37   38   36 1
    38   39   38 ar
    39   40   39 1
    40   41   39 ar
    41   42   41 1
    42   43   41 ar
    43   44   43 ar
    44   45   44 1
    45   46   38 ar
    46   47   46 1
    47   48   43 1
    48   49   48 2
    49   50   48 2
    50    4   12 1
    51   28   30 ar
    52   44   46 ar
@<TRIPOS>SUBSTRUCTURE
     1 RES1 1

@<TRIPOS>CRYSIN
   5.0789   22.3160    9.2116  90.0000  93.5270  90.0000   4 1

