# MOL2 file generated by ConQuest
# Please check atom types

@<TRIPOS>MOLECULE
CABVAC
    43    46     1
SMALL
NO_CHARGES
****
Generated from CSD

@<TRIPOS>ATOM
      1 N1        -1.3289   10.4555    2.6027 N.2       1 RES1    0.0000
      2 N2         2.3647   10.4555    1.0424 N.2       1 RES1    0.0000
      3 C1         1.4114   10.4555    1.8900 C.2       1 RES1    0.0000
      4 C2         0.8021    9.2050    2.4486 C.3       1 RES1    0.0000
      5 C3        -0.7070    9.2343    2.0769 C.3       1 RES1    0.0000
      6 C4         1.1375    9.1820    3.9578 C.3       1 RES1    0.0000
      7 C5         0.7367   10.4555    4.6943 C.3       1 RES1    0.0000
      8 C6        -1.4670    8.0131    2.5313 C.2       1 RES1    0.0000
      9 C7        -1.9440    7.8667    3.8253 C.2       1 RES1    0.0000
     10 C8        -2.6386    6.7271    4.2060 C.2       1 RES1    0.0000
     11 C9        -2.8727    5.7233    3.2984 C.2       1 RES1    0.0000
     12 C10       -2.4185    5.8593    2.0067 C.2       1 RES1    0.0000
     13 C11       -1.7297    6.9947    1.6203 C.2       1 RES1    0.0000
     14 H1        -2.1725   10.4555    2.4021 H         1 RES1    0.0000
     15 H2         1.2142    8.4271    2.0055 H         1 RES1    0.0000
     16 H3        -0.7065    9.2845    1.0877 H         1 RES1    0.0000
     17 H4         2.1315    9.0754    3.9997 H         1 RES1    0.0000
     18 H5         0.7250    8.3644    4.3737 H         1 RES1    0.0000
     19 H6        -0.2331   10.4555    4.8042 H         1 RES1    0.0000
     20 H7         1.1943   10.4555    5.6087 H         1 RES1    0.0000
     21 H8        -1.7969    8.5944    4.4643 H         1 RES1    0.0000
     22 H9        -3.0038    6.6497    5.1442 H         1 RES1    0.0000
     23 H10       -3.3617    4.9141    3.6145 H         1 RES1    0.0000
     24 H11       -2.6022    5.1859    1.3257 H         1 RES1    0.0000
     25 H12       -1.4156    7.1307    0.6798 H         1 RES1    0.0000
     26 C3F       -0.7070   11.6767    2.0769 C.3       1 RES1    0.0000
     27 C2F        0.8021   11.7060    2.4486 C.3       1 RES1    0.0000
     28 C4F        1.1375   11.7290    3.9578 C.3       1 RES1    0.0000
     29 C6F       -1.4670   12.8979    2.5313 C.2       1 RES1    0.0000
     30 H3F       -0.7065   11.6265    1.0877 H         1 RES1    0.0000
     31 H2F        1.2142   12.4839    2.0055 H         1 RES1    0.0000
     32 H4F        2.1315   11.8356    3.9997 H         1 RES1    0.0000
     33 H5F        0.7250   12.5466    4.3737 H         1 RES1    0.0000
     34 C7F       -1.9440   13.0443    3.8253 C.2       1 RES1    0.0000
     35 C11F      -1.7297   13.9163    1.6203 C.2       1 RES1    0.0000
     36 C8F       -2.6386   14.1839    4.2060 C.2       1 RES1    0.0000
     37 H8F       -1.7969   12.3166    4.4643 H         1 RES1    0.0000
     38 C10F      -2.4185   15.0517    2.0067 C.2       1 RES1    0.0000
     39 H12F      -1.4156   13.7803    0.6798 H         1 RES1    0.0000
     40 C9F       -2.8727   15.1877    3.2984 C.2       1 RES1    0.0000
     41 H9F       -3.0038   14.2613    5.1442 H         1 RES1    0.0000
     42 H11F      -2.6022   15.7251    1.3257 H         1 RES1    0.0000
     43 H10F      -3.3617   15.9969    3.6145 H         1 RES1    0.0000
@<TRIPOS>BOND
     1    1    5 1
     2    2    3 1
     3    3    4 1
     4    4    5 1
     5    5    8 1
     6    6    4 1
     7    7    6 1
     8    8    9 1
     9    9   10 1
    10   10   11 1
    11   11   12 1
    12   12   13 1
    13   13    8 1
    14   14    1 1
    15   15    4 1
    16   16    5 1
    17   17    6 1
    18   18    6 1
    19   19    7 1
    20   20    7 1
    21   21    9 1
    22   22   10 1
    23   23   11 1
    24   24   12 1
    25   25   13 1
    26   26    1 1
    27   27    3 1
    28   28    7 1
    29   29   26 1
    30   30   26 1
    31   31   27 1
    32   32   28 1
    33   33   28 1
    34   34   29 1
    35   35   29 1
    36   36   34 1
    37   37   34 1
    38   38   35 1
    39   39   35 1
    40   40   36 1
    41   41   36 1
    42   42   38 1
    43   43   40 1
    44   26   27 1
    45   27   28 1
    46   38   40 1
@<TRIPOS>SUBSTRUCTURE
     1 RES1 1

@<TRIPOS>CRYSIN
   6.9575   20.9110   11.5313  90.0000 100.7020  90.0000  12 1

