# MOL2 file generated by ConQuest
# Please check atom types

@<TRIPOS>MOLECULE
CABXOS10
    78    81     3
SMALL
NO_CHARGES
****
Generated from CSD

@<TRIPOS>ATOM
      1 H1        11.9239    1.1539    2.4888 H         1 RES1    0.0000
      2 H2         9.1342    0.2932    3.9429 H         2 RES2    0.0000
      3 H3         8.6842   -5.4386    7.0749 H         3 RES3    0.0000
      4 H4        10.6191   -4.0672    7.8299 H         3 RES3    0.0000
      5 H5        11.0690   -1.8444    6.7673 H         3 RES3    0.0000
      6 H6         9.8091   -1.0972    4.7259 H         3 RES3    0.0000
      7 H7         6.0970   -4.2847    2.6845 H         3 RES3    0.0000
      8 H8         6.6819   -2.8281    1.0347 H         3 RES3    0.0000
      9 H9         7.0419   -1.7782    0.6432 H         3 RES3    0.0000
     10 H10        5.8495   -2.1755    2.0693 H         3 RES3    0.0000
     11 H11        6.4119   -6.0251    5.9284 H         3 RES3    0.0000
     12 H12        5.9395   -6.4507    4.1666 H         3 RES3    0.0000
     13 H13        7.5818   -6.9520    4.7818 H         3 RES3    0.0000
     14 H14       17.3010   -4.2563    7.0469 H         1 RES1    0.0000
     15 H15       15.0062   -4.9468    7.9138 H         1 RES1    0.0000
     16 H16       12.8914   -4.3225    6.7393 H         1 RES1    0.0000
     17 H17       12.7114   -2.4592    5.0615 H         1 RES1    0.0000
     18 H18       17.2335   -0.6621    3.1879 H         1 RES1    0.0000
     19 H19       15.5911   -0.5297    1.3423 H         1 RES1    0.0000
     20 H20       15.6361    0.4540    2.5447 H         1 RES1    0.0000
     21 H21       14.3537    0.6243    1.2584 H         1 RES1    0.0000
     22 H22       18.6058   -2.3552    6.0402 H         1 RES1    0.0000
     23 H23       19.3258   -1.7120    4.5302 H         1 RES1    0.0000
     24 H24       19.0558   -3.5091    4.7539 H         1 RES1    0.0000
     25 H25        9.4492    6.8101   -1.6219 H         2 RES2    0.0000
     26 H26        7.7843    5.3251   -2.6286 H         2 RES2    0.0000
     27 H27        7.3568    2.9700   -1.6778 H         2 RES2    0.0000
     28 H28        8.1443    2.4498    0.6432 H         2 RES2    0.0000
     29 H29       11.3390    5.8737    3.0760 H         2 RES2    0.0000
     30 H30       12.3514    3.1781    3.6912 H         2 RES2    0.0000
     31 H31       10.8890    2.9605    4.8098 H         2 RES2    0.0000
     32 H32       11.4065    4.3415    4.6141 H         2 RES2    0.0000
     33 H33       11.5190    7.4628    1.6778 H         2 RES2    0.0000
     34 H34       11.8564    7.9830    0.1119 H         2 RES2    0.0000
     35 H35       10.1916    8.2762    1.0906 H         2 RES2    0.0000
     36 H36        8.3918    0.9648    2.1253 H         3 RES3    0.0000
     37 O1         7.7281    0.3292    1.7254 O.3       3 RES3    0.0000
     38 O2        12.4999    0.4181    2.7293 O.3       1 RES1    0.0000
     39 O3         9.9374    1.1019    3.8059 O.3       2 RES2    0.0000
     40 N1         7.3186   -4.7501    4.5805 N.3       3 RES3    0.0000
     41 N2         8.0453   -0.6290    2.7628 N.2       3 RES3    0.0000
     42 N3        17.1975   -2.3003    4.8350 N.3       1 RES1    0.0000
     43 N4        13.1951   -0.4833    3.5346 N.2       1 RES1    0.0000
     44 N5        10.4031    6.2142    1.0654 N.3       2 RES2    0.0000
     45 N6         9.5909    2.0875    2.8244 N.2       2 RES2    0.0000
     46 C1         8.3288   -4.1721    5.3076 C.ar      3 RES3    0.0000
     47 C2         8.9610   -4.5467    6.4401 C.ar      3 RES3    0.0000
     48 C3         9.9531   -3.7607    6.9574 C.ar      3 RES3    0.0000
     49 C4        10.1983   -2.5065    6.3255 C.ar      3 RES3    0.0000
     50 C5         9.5189   -2.0932    5.1985 C.ar      3 RES3    0.0000
     51 C6         8.4952   -2.9000    4.6336 C.ar      3 RES3    0.0000
     52 C7         7.6313   -2.8309    3.5067 C.2       3 RES3    0.0000
     53 C8         6.9361   -4.0274    3.5207 C.2       3 RES3    0.0000
     54 C9         7.4423   -1.7621    2.5391 C.2       3 RES3    0.0000
     55 C10        6.5087   -1.9806    1.3758 C.3       3 RES3    0.0000
     56 C11        6.7719   -6.0951    4.8629 C.3       3 RES3    0.0000
     57 C12       16.1446   -2.8886    5.4809 C.ar      1 RES1    0.0000
     58 C13       16.2571   -3.8326    6.5659 C.ar      1 RES1    0.0000
     59 C14       15.0399   -4.2516    7.0301 C.ar      1 RES1    0.0000
     60 C15       13.8183   -3.8127    6.4988 C.ar      1 RES1    0.0000
     61 C16       13.7328   -2.8830    5.4558 C.ar      1 RES1    0.0000
     62 C17       14.9364   -2.4148    4.9664 C.ar      1 RES1    0.0000
     63 C18       15.2896   -1.4926    3.9206 C.2       1 RES1    0.0000
     64 C19       16.6733   -1.4103    3.9233 C.2       1 RES1    0.0000
     65 C20       14.4167   -0.6072    3.1655 C.2       1 RES1    0.0000
     66 C21       14.9792    0.0539    1.9211 C.3       1 RES1    0.0000
     67 C22       18.6081   -2.4592    5.1174 C.3       1 RES1    0.0000
     68 C23        9.5864    5.5484    0.2097 C.ar      2 RES2    0.0000
     69 C24        9.1229    5.8747   -1.0179 C.ar      2 RES2    0.0000
     70 C25        8.3220    4.9941   -1.6695 C.ar      2 RES2    0.0000
     71 C26        8.0183    3.7162   -1.1130 C.ar      2 RES2    0.0000
     72 C27        8.5065    3.4032    0.1622 C.ar      2 RES2    0.0000
     73 C28        9.3434    4.2724    0.8473 C.ar      2 RES2    0.0000
     74 C29       10.0634    4.2951    2.0442 C.2       2 RES2    0.0000
     75 C30       10.7360    5.4774    2.1504 C.2       2 RES2    0.0000
     76 C31       10.2501    3.1970    3.0173 C.2       2 RES2    0.0000
     77 C32       11.2468    3.3351    4.1219 C.3       2 RES2    0.0000
     78 C33       10.8980    7.6046    0.7690 C.3       2 RES2    0.0000
@<TRIPOS>BOND
     1    1   38 1
     2    2   39 1
     3    3   47 1
     4    4   48 1
     5    5   49 1
     6    6   50 1
     7    7   53 1
     8    8   55 1
     9    9   55 1
    10   10   55 1
    11   11   56 1
    12   12   56 1
    13   13   56 1
    14   14   58 1
    15   15   59 1
    16   16   60 1
    17   17   61 1
    18   18   64 1
    19   19   66 1
    20   20   66 1
    21   21   66 1
    22   22   67 1
    23   23   67 1
    24   24   67 1
    25   25   69 1
    26   26   70 1
    27   27   71 1
    28   28   72 1
    29   29   75 1
    30   30   77 1
    31   31   77 1
    32   32   77 1
    33   33   78 1
    34   34   78 1
    35   35   78 1
    36   36   37 1
    37   37   41 1
    38   38   43 1
    39   39   45 1
    40   40   46 1
    41   41   54 2
    42   42   57 1
    43   43   65 2
    44   44   68 1
    45   45   76 2
    46   46   47 ar
    47   47   48 ar
    48   48   49 ar
    49   49   50 ar
    50   50   51 ar
    51   51   46 ar
    52   52   51 1
    53   53   40 1
    54   54   52 1
    55   55   54 1
    56   56   40 1
    57   57   58 ar
    58   58   59 ar
    59   59   60 ar
    60   60   61 ar
    61   61   62 ar
    62   62   57 ar
    63   63   62 1
    64   64   42 1
    65   65   63 1
    66   66   65 1
    67   67   42 1
    68   68   69 ar
    69   69   70 ar
    70   70   71 ar
    71   71   72 ar
    72   72   73 ar
    73   73   68 ar
    74   74   73 1
    75   75   44 1
    76   76   74 1
    77   77   76 1
    78   78   44 1
    79   52   53 2
    80   63   64 2
    81   74   75 2
@<TRIPOS>SUBSTRUCTURE
     1 RES1 1
     2 RES2 2
     3 RES3 3

@<TRIPOS>CRYSIN
  22.4980    9.4585   27.9640  90.0000  90.0000  90.0000  61 1

