# MOL2 file generated by ConQuest
# Please check atom types

@<TRIPOS>MOLECULE
CABYUA
    84    86     2
SMALL
NO_CHARGES
****
Generated from CSD

@<TRIPOS>ATOM
      1 N1         6.5673   -1.0826    3.3091 N.am      1 RES1    0.0000
      2 O1         6.3912   -3.3174    3.4275 O.2       1 RES1    0.0000
      3 C1         6.7157   -2.3361    2.7717 C.2       1 RES1    0.0000
      4 C2         7.2923   -2.4800    1.3962 C.3       1 RES1    0.0000
      5 H1         7.2004   -3.3898    1.1048 H         1 RES1    0.0000
      6 H2         8.2217   -2.2416    1.4118 H         1 RES1    0.0000
      7 H3         6.8243   -1.9009    0.7909 H         1 RES1    0.0000
      8 C3         7.1055    0.1317    2.6829 C.3       1 RES1    0.0000
      9 H4         7.8945   -0.1165    2.1749 H         1 RES1    0.0000
     10 H5         7.3947    0.7302    3.3890 H         1 RES1    0.0000
     11 C4         6.1714    0.9108    1.7556 C.3       1 RES1    0.0000
     12 O2         6.1232    0.3807    0.4329 O.3       1 RES1    0.0000
     13 O3         6.7734    2.1988    1.6414 O.3       1 RES1    0.0000
     14 C5         7.0692    1.1149   -0.3408 C.3       1 RES1    0.0000
     15 H6         6.8262    1.1247   -1.2800 H         1 RES1    0.0000
     16 H7         7.9627    0.7508   -0.2445 H         1 RES1    0.0000
     17 C6         6.9697    2.4706    0.2584 C.3       1 RES1    0.0000
     18 H8         7.7833    2.9777    0.1145 H         1 RES1    0.0000
     19 H9         6.2194    2.9620   -0.1110 H         1 RES1    0.0000
     20 C7         4.7079    0.9941    2.2117 C.3       1 RES1    0.0000
     21 H10        4.3252    1.8138    1.8627 H         1 RES1    0.0000
     22 H11        4.2205    0.2545    1.8159 H         1 RES1    0.0000
     23 N2         4.4990    0.9646    3.6585 N.am      1 RES1    0.0000
     24 O4         4.3517    1.9141    5.6722 O.2       1 RES1    0.0000
     25 C8         4.5654    2.0526    4.4810 C.2       1 RES1    0.0000
     26 C9         4.8968    3.3977    3.9034 C.3       1 RES1    0.0000
     27 H12        5.0647    4.0192    4.6152 H         1 RES1    0.0000
     28 H13        4.1589    3.7089    3.3734 H         1 RES1    0.0000
     29 H14        5.6783    3.3252    3.3508 H         1 RES1    0.0000
     30 C10        3.8873   -0.2366    4.2127 C.3       1 RES1    0.0000
     31 H15        3.5878   -0.7987    3.4809 H         1 RES1    0.0000
     32 H16        3.1051    0.0206    4.7245 H         1 RES1    0.0000
     33 C11        4.8114   -1.0526    5.1099 C.3       1 RES1    0.0000
     34 O5         3.5001   -0.6976    7.0236 O.2       1 RES1    0.0000
     35 N3         4.6384   -0.6420    6.5867 N.pl3     1 RES1    0.0000
     36 O6         5.6136   -0.3275    7.2177 O.2       1 RES1    0.0000
     37 N4         4.2995   -2.5135    5.1822 N.pl3     1 RES1    0.0000
     38 O7         4.7822   -3.2067    6.0589 O.2       1 RES1    0.0000
     39 O8         3.4646   -2.8719    4.3854 O.2       1 RES1    0.0000
     40 C12        6.2918   -1.0173    4.7474 C.3       1 RES1    0.0000
     41 H17        6.6780   -0.2007    5.1009 H         1 RES1    0.0000
     42 H18        6.7351   -1.7629    5.1824 H         1 RES1    0.0000
     43 N5        -2.2670    6.5494    8.2774 N.am      2 RES2    0.0000
     44 O9        -4.4789    6.8999    8.5646 O.2       2 RES2    0.0000
     45 C13       -3.0577    7.9669   10.1486 C.3       2 RES2    0.0000
     46 H19       -3.8446    8.4690   10.3751 H         2 RES2    0.0000
     47 H20       -2.3389    8.5698    9.9485 H         2 RES2    0.0000
     48 H21       -2.8104    7.4099   10.8903 H         2 RES2    0.0000
     49 C14       -3.3395    7.1081    8.9503 C.2       2 RES2    0.0000
     50 C15       -0.9173    6.5079    8.8267 C.3       2 RES2    0.0000
     51 H22       -0.5589    5.6196    8.6754 H         2 RES2    0.0000
     52 H23       -0.9795    6.6337    9.7872 H         2 RES2    0.0000
     53 C16        0.0901    7.5311    8.2757 C.3       2 RES2    0.0000
     54 O10       -0.5564    8.7768    8.1407 O.3       2 RES2    0.0000
     55 O11        1.1267    7.6944    9.2422 O.3       2 RES2    0.0000
     56 C17        0.3569    9.7638    8.6406 C.3       2 RES2    0.0000
     57 H24       -0.1129   10.5461    8.9686 H         2 RES2    0.0000
     58 H25        0.9917   10.0352    7.9591 H         2 RES2    0.0000
     59 C18        1.0317    9.0281    9.7508 C.3       2 RES2    0.0000
     60 H26        1.9093    9.3970    9.9329 H         2 RES2    0.0000
     61 H27        0.5009    9.0563   10.5625 H         2 RES2    0.0000
     62 C19        0.7878    7.1038    6.9846 C.3       2 RES2    0.0000
     63 H28        1.1133    7.8964    6.5283 H         2 RES2    0.0000
     64 H29        1.5579    6.5593    7.2116 H         2 RES2    0.0000
     65 O12       -0.5994    4.5456    4.8821 O.2       2 RES2    0.0000
     66 N6        -0.0649    6.3517    6.0685 N.am      2 RES2    0.0000
     67 C20        0.1831    5.0794    5.6572 C.2       2 RES2    0.0000
     68 C21        1.3769    4.3441    6.1859 C.3       2 RES2    0.0000
     69 H30        1.3998    3.4602    5.8120 H         2 RES2    0.0000
     70 H31        1.3190    4.2864    7.1422 H         2 RES2    0.0000
     71 H32        2.1768    4.8159    5.9420 H         2 RES2    0.0000
     72 C22       -1.1750    7.0596    5.4489 C.3       2 RES2    0.0000
     73 H33       -1.0614    7.0448    4.4851 H         2 RES2    0.0000
     74 H34       -1.1586    7.9864    5.7356 H         2 RES2    0.0000
     75 C23       -2.5371    6.4562    5.7984 C.3       2 RES2    0.0000
     76 O13       -3.3133    8.6026    6.3585 O.2       2 RES2    0.0000
     77 N7        -3.6144    7.5598    5.8316 N.pl3     2 RES2    0.0000
     78 O14       -2.9533    5.9296    3.5449 O.2       2 RES2    0.0000
     79 N8        -3.0529    5.5274    4.6858 N.pl3     2 RES2    0.0000
     80 O15       -3.5573    4.4696    5.0119 O.2       2 RES2    0.0000
     81 O16       -4.7167    7.2731    5.4004 O.2       2 RES2    0.0000
     82 C24       -2.6046    5.7147    7.1389 C.3       2 RES2    0.0000
     83 H35       -3.5022    5.3661    7.2602 H         2 RES2    0.0000
     84 H36       -1.9960    4.9598    7.1110 H         2 RES2    0.0000
@<TRIPOS>BOND
     1    1    3 1
     2    2    3 2
     3    3    4 1
     4    4    5 1
     5    6    4 1
     6    7    4 1
     7    8    1 1
     8    9    8 1
     9   10    8 1
    10   11    8 1
    11   12   11 1
    12   13   11 1
    13   14   12 1
    14   15   14 1
    15   16   14 1
    16   17   13 1
    17   18   17 1
    18   19   17 1
    19   20   11 1
    20   21   20 1
    21   22   20 1
    22   23   20 1
    23   24   25 2
    24   25   23 1
    25   26   25 1
    26   27   26 1
    27   28   26 1
    28   29   26 1
    29   30   23 1
    30   31   30 1
    31   32   30 1
    32   33   30 1
    33   34   35 2
    34   35   33 1
    35   36   35 2
    36   37   33 1
    37   38   37 2
    38   39   37 2
    39   40    1 1
    40   41   40 1
    41   42   40 1
    42   43   49 1
    43   44   49 2
    44   45   46 1
    45   47   45 1
    46   48   45 1
    47   49   45 1
    48   50   43 1
    49   51   50 1
    50   52   50 1
    51   53   50 1
    52   54   53 1
    53   55   53 1
    54   56   54 1
    55   57   56 1
    56   58   56 1
    57   59   55 1
    58   60   59 1
    59   61   59 1
    60   62   53 1
    61   63   62 1
    62   64   62 1
    63   65   67 2
    64   66   62 1
    65   67   66 1
    66   68   67 1
    67   69   68 1
    68   70   68 1
    69   71   68 1
    70   72   66 1
    71   73   72 1
    72   74   72 1
    73   75   72 1
    74   76   77 2
    75   77   75 1
    76   78   79 2
    77   79   75 1
    78   80   79 2
    79   81   77 2
    80   82   43 1
    81   83   82 1
    82   84   82 1
    83   14   17 1
    84   33   40 1
    85   56   59 1
    86   75   82 1
@<TRIPOS>SUBSTRUCTURE
     1 RES1 1
     2 RES2 43

@<TRIPOS>CRYSIN
  17.9560    9.7885   18.2898  90.0000 108.5070  90.0000  14 1

