# MOL2 file generated by ConQuest
# Please check atom types

@<TRIPOS>MOLECULE
CABZUA
    29    30     1
SMALL
NO_CHARGES
****
Generated from CSD

@<TRIPOS>ATOM
      1 O1         1.0577    1.5701    6.2013 O.3       1 RES1    0.0000
      2 N1         1.8576    0.9003    5.2364 N.2       1 RES1    0.0000
      3 C1         3.3531   -0.3487    3.2703 C.3       1 RES1    0.0000
      4 C2         4.1577   -0.4763    1.9992 C.3       1 RES1    0.0000
      5 C3         3.9054    0.8480    1.3017 C.3       1 RES1    0.0000
      6 C4         2.3960    2.7193    2.0969 C.3       1 RES1    0.0000
      7 C5         2.2882    4.0558    2.8191 C.3       1 RES1    0.0000
      8 C6         1.9577    3.9928    4.2999 C.3       1 RES1    0.0000
      9 C7         2.9156    3.1187    5.1033 C.3       1 RES1    0.0000
     10 C8         2.7493    1.6715    4.7370 C.2       1 RES1    0.0000
     11 C9         3.6378    1.0877    3.6944 C.3       1 RES1    0.0000
     12 C10        3.6538    1.9081    2.3750 C.3       1 RES1    0.0000
     13 H1         0.3519    0.8911    6.6796 H         1 RES1    0.0000
     14 H2         2.3004   -0.4993    3.0830 H         1 RES1    0.0000
     15 H3         3.6899   -1.0508    4.0183 H         1 RES1    0.0000
     16 H4         5.2073   -0.6068    2.2159 H         1 RES1    0.0000
     17 H5         3.8083   -1.3043    1.3995 H         1 RES1    0.0000
     18 H6         4.7679    1.1215    0.7115 H         1 RES1    0.0000
     19 H7         3.0415    0.7651    0.6585 H         1 RES1    0.0000
     20 H8         2.3556    2.9128    1.0355 H         1 RES1    0.0000
     21 H9         1.5456    2.1186    2.3856 H         1 RES1    0.0000
     22 H10        1.5147    4.6319    2.3337 H         1 RES1    0.0000
     23 H11        3.2354    4.5643    2.7142 H         1 RES1    0.0000
     24 H12        1.9927    4.9960    4.7004 H         1 RES1    0.0000
     25 H13        0.9592    3.5965    4.4106 H         1 RES1    0.0000
     26 H14        2.7101    3.2447    6.1565 H         1 RES1    0.0000
     27 H15        3.9307    3.4229    4.8972 H         1 RES1    0.0000
     28 H16        4.5826    1.1169    4.2174 H         1 RES1    0.0000
     29 H17        4.4085    2.6793    2.4127 H         1 RES1    0.0000
@<TRIPOS>BOND
     1    1    2 1
     2    2   10 2
     3    3    4 1
     4    4    5 1
     5    5   12 1
     6    6    7 1
     7    7    8 1
     8    8    9 1
     9    9   10 1
    10   10   11 1
    11   11    3 1
    12   12    6 1
    13   13    1 1
    14   14    3 1
    15   15    3 1
    16   16    4 1
    17   17    4 1
    18   18    5 1
    19   19    5 1
    20   20    6 1
    21   21    6 1
    22   22    7 1
    23   23    7 1
    24   24    8 1
    25   25    8 1
    26   26    9 1
    27   27    9 1
    28   28   11 1
    29   29   12 1
    30   11   12 1
@<TRIPOS>SUBSTRUCTURE
     1 RES1 1

@<TRIPOS>CRYSIN
   5.2180   15.3630   12.2980  90.0000 106.6800  90.0000  14 1

