# MOL2 file generated by ConQuest
# Please check atom types

@<TRIPOS>MOLECULE
CABZIR
    23    24     1
SMALL
NO_CHARGES
****
Generated from CSD

@<TRIPOS>ATOM
      1 C1         1.4533    4.7366    3.0533 C.ar      1 RES1    0.0000
      2 C2         0.5916    3.7281    3.4644 C.ar      1 RES1    0.0000
      3 H1         0.4261    2.9890    2.9257 H         1 RES1    0.0000
      4 C3        -0.0127    3.8591    4.7011 C.ar      1 RES1    0.0000
      5 H2        -0.5965    3.1975    4.9961 H         1 RES1    0.0000
      6 C4         0.2362    4.9601    5.5133 C.ar      1 RES1    0.0000
      7 H3        -0.1704    5.0147    6.3474 H         1 RES1    0.0000
      8 C5         1.0777    5.9736    5.1001 C.ar      1 RES1    0.0000
      9 H4         1.2352    6.7146    5.6396 H         1 RES1    0.0000
     10 C6         1.6825    5.8532    3.8542 C.ar      1 RES1    0.0000
     11 C7         2.5920    6.7872    3.1768 C.2       1 RES1    0.0000
     12 C8         3.0627    6.1362    1.8617 C.3       1 RES1    0.0000
     13 C9         2.2412    4.8291    1.8078 C.2       1 RES1    0.0000
     14 C10        2.9237    7.0206    0.6360 C.3       1 RES1    0.0000
     15 H5         3.4003    7.8510    0.7912 H         1 RES1    0.0000
     16 H6         3.3397    6.5781   -0.1204 H         1 RES1    0.0000
     17 N1         1.5173    7.3315    0.2959 N.pl3     1 RES1    0.0000
     18 O1         2.2997    4.0307    0.9085 O.2       1 RES1    0.0000
     19 O2         2.9729    7.8705    3.5669 O.2       1 RES1    0.0000
     20 O3         4.4502    5.8650    1.9150 O.3       1 RES1    0.0000
     21 H7         4.6036    5.5298    2.6593 H         1 RES1    0.0000
     22 O4         0.6702    7.1950    1.1674 O.2       1 RES1    0.0000
     23 O5         1.2900    7.7250   -0.8285 O.2       1 RES1    0.0000
@<TRIPOS>BOND
     1    1    2 ar
     2    2    3 1
     3    4    2 ar
     4    5    4 1
     5    6    4 ar
     6    7    6 1
     7    8    6 ar
     8    9    8 1
     9   10    1 ar
    10   11   10 1
    11   12   11 1
    12   13    1 1
    13   14   12 1
    14   15   14 1
    15   16   14 1
    16   17   14 1
    17   18   13 2
    18   19   11 2
    19   20   12 1
    20   21   20 1
    21   22   17 2
    22   23   17 2
    23    8   10 ar
    24   12   13 1
@<TRIPOS>SUBSTRUCTURE
     1 RES1 1

@<TRIPOS>CRYSIN
   9.5664    6.2063   16.5610  90.0000 104.2830  90.0000  14 1

