# MOL2 file generated by ConQuest
# Please check atom types

@<TRIPOS>MOLECULE
CACBUF
    27    27     1
SMALL
NO_CHARGES
****
Generated from CSD

@<TRIPOS>ATOM
      1 N1         7.5104    2.0681    5.0432 N.am      1 RES1    0.0000
      2 H1         8.1953    2.0596    5.5635 H         1 RES1    0.0000
      3 N2         4.7719    1.1123    5.4578 N.pl3     1 RES1    0.0000
      4 O1         6.5648    1.1741    3.2062 O.2       1 RES1    0.0000
      5 O2         5.5482    0.3039    5.9391 O.2       1 RES1    0.0000
      6 O3         3.6883    0.8051    4.9927 O.2       1 RES1    0.0000
      7 C1         6.4455    2.9434    5.3544 C.ar      1 RES1    0.0000
      8 C2         5.1257    2.5362    5.4881 C.ar      1 RES1    0.0000
      9 C3         4.0938    3.4183    5.6991 C.ar      1 RES1    0.0000
     10 H2         3.2202    3.1068    5.7662 H         1 RES1    0.0000
     11 C4         4.3588    4.7778    5.8094 C.ar      1 RES1    0.0000
     12 C5         5.6743    5.1816    5.7170 C.ar      1 RES1    0.0000
     13 H3         5.8656    6.0874    5.8064 H         1 RES1    0.0000
     14 C6         6.7231    4.3088    5.4982 C.ar      1 RES1    0.0000
     15 C7         3.2447    5.7699    6.0121 C.3       1 RES1    0.0000
     16 H4         3.6054    6.5885    6.3609 H         1 RES1    0.0000
     17 H5         2.6056    5.4119    6.6321 H         1 RES1    0.0000
     18 H6         2.8139    5.9426    5.1715 H         1 RES1    0.0000
     19 C8         8.1487    4.8074    5.4145 C.3       1 RES1    0.0000
     20 H7         8.1521    5.7674    5.4219 H         1 RES1    0.0000
     21 H8         8.5516    4.4917    4.6022 H         1 RES1    0.0000
     22 H9         8.6465    4.4807    6.1671 H         1 RES1    0.0000
     23 C9         7.5113    1.2478    3.9773 C.2       1 RES1    0.0000
     24 C10        8.7650    0.4444    3.7855 C.3       1 RES1    0.0000
     25 H10        8.5389   -0.4834    3.6916 H         1 RES1    0.0000
     26 H11        9.3372    0.5587    4.5486 H         1 RES1    0.0000
     27 H12        9.2204    0.7449    2.9956 H         1 RES1    0.0000
@<TRIPOS>BOND
     1    1    2 1
     2    3    5 2
     3    4   23 2
     4    6    3 2
     5    7    1 1
     6    8    3 1
     7    9    8 ar
     8   10    9 1
     9   11    9 ar
    10   12   11 ar
    11   13   12 1
    12   14    7 ar
    13   15   11 1
    14   16   15 1
    15   17   15 1
    16   18   15 1
    17   19   14 1
    18   20   19 1
    19   21   19 1
    20   22   19 1
    21   23    1 1
    22   24   23 1
    23   25   24 1
    24   26   24 1
    25   27   24 1
    26    7    8 ar
    27   12   14 ar
@<TRIPOS>SUBSTRUCTURE
     1 RES1 1

@<TRIPOS>CRYSIN
   8.4653    8.4653   14.9036  90.0000  90.0000  90.0000  78 1

