# MOL2 file generated by ConQuest
# Please check atom types

@<TRIPOS>MOLECULE
CACFUI
    31    31     1
SMALL
NO_CHARGES
****
Generated from CSD

@<TRIPOS>ATOM
      1 H1        -0.9962    3.7132    4.4119 H         1 RES1    0.0000
      2 H2         0.6319    9.4979    3.5965 H         1 RES1    0.0000
      3 O1        -0.1208    3.7179    4.0794 O.3       1 RES1    0.0000
      4 N1        -0.0139    5.0413    3.6468 N.2       1 RES1    0.0000
      5 O2         1.1228    8.9548    3.1453 O.3       1 RES1    0.0000
      6 N2         0.8063    7.6674    3.6621 N.2       1 RES1    0.0000
      7 N3         2.3173    7.0467    1.9919 N.3       1 RES1    0.0000
      8 C1         1.6715    5.7425   -0.0036 C.ar      1 RES1    0.0000
      9 C2         1.4135    6.7659    2.9658 C.2       1 RES1    0.0000
     10 C3         1.2004    5.3512    3.3767 C.2       1 RES1    0.0000
     11 C4         2.6657    6.2312    0.8597 C.ar      1 RES1    0.0000
     12 C5         4.0268    6.0494    0.6022 C.ar      1 RES1    0.0000
     13 C6         2.3672    4.4436    3.4918 C.3       1 RES1    0.0000
     14 H3         2.0637    3.5544    3.7699 H         1 RES1    0.0000
     15 H4         2.9929    4.7988    4.1578 H         1 RES1    0.0000
     16 H5         2.8172    4.3776    2.6231 H         1 RES1    0.0000
     17 C7         5.0787    6.4959    1.5722 C.3       1 RES1    0.0000
     18 H6         4.6510    6.9201    2.3450 H         1 RES1    0.0000
     19 H7         5.6750    7.1388    1.1347 H         1 RES1    0.0000
     20 H8         5.5975    5.7202    1.8712 H         1 RES1    0.0000
     21 C8         2.0906    5.1065   -1.1735 C.ar      1 RES1    0.0000
     22 H9         1.4395    4.7651   -1.7751 H         1 RES1    0.0000
     23 C9         4.3859    5.4134   -0.5888 C.ar      1 RES1    0.0000
     24 H10        5.3052    5.2860   -0.7948 H         1 RES1    0.0000
     25 C10        3.4207    4.9653   -1.4728 C.ar      1 RES1    0.0000
     26 H11        3.6802    4.5587   -2.2901 H         1 RES1    0.0000
     27 C11        0.1963    5.8936    0.2566 C.3       1 RES1    0.0000
     28 H12        0.0610    6.3586    1.1090 H         1 RES1    0.0000
     29 H13       -0.2207    5.0083    0.2987 H         1 RES1    0.0000
     30 H14       -0.2114    6.4138   -0.4669 H         1 RES1    0.0000
     31 H15        2.4399    7.8331    1.9021 H         1 RES1    0.0000
@<TRIPOS>BOND
     1    1    3 1
     2    2    5 1
     3    3    4 1
     4    4   10 2
     5    5    6 1
     6    6    9 2
     7    7    9 1
     8    8   11 ar
     9    9   10 1
    10   10   13 1
    11   11    7 1
    12   12   11 ar
    13   13   14 1
    14   15   13 1
    15   16   13 1
    16   17   12 1
    17   18   17 1
    18   19   17 1
    19   20   17 1
    20   21    8 ar
    21   22   21 1
    22   23   12 ar
    23   24   23 1
    24   25   21 ar
    25   26   25 1
    26   27    8 1
    27   28   27 1
    28   29   27 1
    29   30   27 1
    30   31    7 1
    31   23   25 ar
@<TRIPOS>SUBSTRUCTURE
     1 RES1 1

@<TRIPOS>CRYSIN
   8.4040    7.6720   17.5920  90.0000 102.6200  90.0000  14 1

