# MOL2 file generated by ConQuest
# Please check atom types

@<TRIPOS>MOLECULE
CACNUQ
    44    43     2
SMALL
NO_CHARGES
****
Generated from CSD

@<TRIPOS>ATOM
      1 O1        15.0350   -3.3647    6.5652 O.2       1 RES1    0.0000
      2 C1        15.6580   -2.4118    6.9205 C.2       1 RES1    0.0000
      3 O2        16.5976   -1.8536    6.0968 O.3       1 RES1    0.0000
      4 N1        17.2662   -0.7782    6.7752 N.2       1 RES1    0.0000
      5 C2        16.7279   -0.6428    7.9362 C.2       1 RES1    0.0000
      6 C3        15.6165   -1.6113    8.1917 C.3       1 RES1    0.0000
      7 H1        15.8594   -2.1897    8.9447 H         1 RES1    0.0000
      8 C4        17.2746    0.3637    8.8594 C.ar      1 RES1    0.0000
      9 C5        18.2534    1.2632    8.4306 C.ar      1 RES1    0.0000
     10 H2        18.5659    1.2248    7.5555 H         1 RES1    0.0000
     11 C6        18.7585    2.2068    9.2963 C.ar      1 RES1    0.0000
     12 H3        19.4126    2.7982    9.0003 H         1 RES1    0.0000
     13 C7        18.3066    2.2867   10.5963 C.ar      1 RES1    0.0000
     14 H4        18.6393    2.9388   11.1691 H         1 RES1    0.0000
     15 C8        17.3596    1.3929   11.0387 C.ar      1 RES1    0.0000
     16 H5        17.0601    1.4339   11.9179 H         1 RES1    0.0000
     17 C9        16.8493    0.4342   10.1822 C.ar      1 RES1    0.0000
     18 H6        16.2145   -0.1696   10.4936 H         1 RES1    0.0000
     19 C10       14.2017   -0.9981    8.4526 C.3       1 RES1    0.0000
     20 H7        14.2643   -0.3512    9.1718 H         1 RES1    0.0000
     21 H8        13.9076   -0.5286    7.6566 H         1 RES1    0.0000
     22 C11       13.1708   -2.0450    8.8176 C.ar      1 RES1    0.0000
     23 C12       12.2022   -2.4761    7.8950 C.ar      1 RES1    0.0000
     24 C13       11.3076   -3.4732    8.2691 C.ar      1 RES1    0.0000
     25 H9        10.6787   -3.7600    7.6463 H         1 RES1    0.0000
     26 C14       11.3073   -4.0594    9.5216 C.ar      1 RES1    0.0000
     27 C15       12.2400   -3.5816   10.4325 C.ar      1 RES1    0.0000
     28 H10       12.2512   -3.9406   11.2907 H         1 RES1    0.0000
     29 C16       13.1560   -2.5907   10.1139 C.ar      1 RES1    0.0000
     30 C17       12.0846   -1.8754    6.5170 C.3       1 RES1    0.0000
     31 H11       11.3679   -2.3018    6.0417 H         1 RES1    0.0000
     32 H12       12.9065   -2.0066    6.0403 H         1 RES1    0.0000
     33 H13       11.9034   -0.9353    6.5913 H         1 RES1    0.0000
     34 C18       10.3467   -5.1529    9.8948 C.3       1 RES1    0.0000
     35 H14        9.7821   -5.3522    9.1454 H         1 RES1    0.0000
     36 H15        9.8075   -4.8661   10.6342 H         1 RES1    0.0000
     37 H16       10.8378   -5.9394   10.1433 H         1 RES1    0.0000
     38 H17       10.5028   -5.4196   10.8042 Du        2 SUP2    0.0000
     39 H18       10.4775   -5.9062    9.3139 Du        2 SUP2    0.0000
     40 H19        9.4471   -4.8323    9.8048 Du        2 SUP2    0.0000
     41 C19       14.0908   -2.0938   11.1902 C.3       1 RES1    0.0000
     42 H20       13.9352   -2.5830   12.0014 H         1 RES1    0.0000
     43 H21       13.9334   -1.1595   11.3449 H         1 RES1    0.0000
     44 H22       14.9993   -2.2224   10.9097 H         1 RES1    0.0000
@<TRIPOS>BOND
     1    1    2 2
     2    2    3 1
     3    3    4 1
     4    4    5 2
     5    5    6 1
     6    6    2 1
     7    7    6 1
     8    8    5 1
     9    9    8 ar
    10   10    9 1
    11   11    9 ar
    12   12   11 1
    13   13   11 ar
    14   14   13 1
    15   15   13 ar
    16   16   15 1
    17   17    8 ar
    18   18   17 1
    19   19    6 1
    20   20   19 1
    21   21   19 1
    22   22   19 1
    23   23   22 ar
    24   24   23 ar
    25   25   24 1
    26   26   24 ar
    27   27   26 ar
    28   28   27 1
    29   29   22 ar
    30   30   23 1
    31   31   30 1
    32   32   30 1
    33   33   30 1
    34   34   26 1
    35   35   34 1
    36   36   34 1
    37   37   34 1
    38   41   29 1
    39   42   41 1
    40   43   41 1
    41   44   41 1
    42   15   17 ar
    43   27   29 ar
@<TRIPOS>SUBSTRUCTURE
     1 RES1 1
     2 SUP2 38

@<TRIPOS>CRYSIN
  20.0329    5.1877   14.6694  90.0000  92.6460  90.0000  14 1

