# MOL2 file generated by ConQuest
# Please check atom types

@<TRIPOS>MOLECULE
CACNOK
   108   114     3
SMALL
NO_CHARGES
****
Generated from CSD

@<TRIPOS>ATOM
      1 C1         1.3188   -4.1431    8.2496 C.2       1 RES1    0.0000
      2 O1         1.4824   -3.9641    7.0448 O.2       1 RES1    0.0000
      3 C2         0.6936   -5.1547    9.0080 C.2       1 RES1    0.0000
      4 C3         0.7924   -4.7713   10.3173 C.2       1 RES1    0.0000
      5 N1         1.4180   -3.5901   10.3993 N.3       1 RES1    0.0000
      6 H1         1.8236   -3.1270   11.0543 H         1 RES1    0.0000
      7 O2         1.7949   -3.1776    9.1213 O.3       1 RES1    0.0000
      8 C4         0.0367   -6.3468    8.3969 C.3       1 RES1    0.0000
      9 H2        -0.0375   -7.0348    9.0770 H         1 RES1    0.0000
     10 H3         0.6178   -6.6894    7.6993 H         1 RES1    0.0000
     11 C5        -1.3402   -6.1196    7.8000 C.ar      1 RES1    0.0000
     12 C6        -1.9720   -7.1854    7.1563 C.ar      1 RES1    0.0000
     13 C7        -3.2083   -7.0272    6.5659 C.ar      1 RES1    0.0000
     14 H4        -3.6202   -7.7489    6.1475 H         1 RES1    0.0000
     15 C8        -3.8261   -5.8107    6.5956 C.ar      1 RES1    0.0000
     16 H5        -4.6560   -5.7061    6.1901 H         1 RES1    0.0000
     17 C9        -3.2315   -4.7398    7.2184 C.ar      1 RES1    0.0000
     18 H6        -3.6543   -3.9109    7.2339 H         1 RES1    0.0000
     19 C10       -1.9889   -4.9072    7.8261 C.ar      1 RES1    0.0000
     20 H7        -1.5912   -4.1865    8.2579 H         1 RES1    0.0000
     21 O3        -1.2621   -8.3544    7.1327 O.3       1 RES1    0.0000
     22 C11       -1.8858   -9.5177    6.5690 C.3       1 RES1    0.0000
     23 H8        -1.2795  -10.2611    6.6182 H         1 RES1    0.0000
     24 H9        -2.1103   -9.3475    5.6515 H         1 RES1    0.0000
     25 H10       -2.6833   -9.7219    7.0597 H         1 RES1    0.0000
     26 C12        0.2743   -5.3999   11.5505 C.ar      1 RES1    0.0000
     27 C13        0.5660   -6.7206   11.8428 C.ar      1 RES1    0.0000
     28 H11        1.1090   -7.2137   11.2711 H         1 RES1    0.0000
     29 C14        0.0504   -7.3081   12.9838 C.ar      1 RES1    0.0000
     30 H12        0.2466   -8.1966   13.1780 H         1 RES1    0.0000
     31 C15       -0.7418   -6.5896   13.8227 C.ar      1 RES1    0.0000
     32 H13       -1.0968   -6.9949   14.5809 H         1 RES1    0.0000
     33 C16       -1.0216   -5.2757   13.5608 C.ar      1 RES1    0.0000
     34 H14       -1.5493   -4.7863   14.1500 H         1 RES1    0.0000
     35 C17       -0.5186   -4.6737   12.4155 C.ar      1 RES1    0.0000
     36 H15       -0.7153   -3.7830   12.2312 H         1 RES1    0.0000
     37 C18        3.8023    0.1874    6.7276 C.2       2 RES2    0.0000
     38 O4         4.3929    0.9715    7.4689 O.2       2 RES2    0.0000
     39 C19        3.4600    0.1850    5.3627 C.2       2 RES2    0.0000
     40 C20        2.7553   -0.9740    5.1467 C.2       2 RES2    0.0000
     41 N2         2.7081   -1.6904    6.2679 N.3       2 RES2    0.0000
     42 H16        2.2647   -2.4911    6.5385 H         2 RES2    0.0000
     43 O5         3.3221   -0.9879    7.2964 O.3       2 RES2    0.0000
     44 C21        3.9704    1.1638    4.3487 C.3       2 RES2    0.0000
     45 H17        3.9168    0.7407    3.4773 H         2 RES2    0.0000
     46 H18        4.9097    1.3187    4.5332 H         2 RES2    0.0000
     47 C22        3.2945    2.5110    4.2491 C.ar      2 RES2    0.0000
     48 C23        3.9170    3.5053    3.4890 C.ar      2 RES2    0.0000
     49 C24        3.3709    4.7671    3.3781 C.ar      2 RES2    0.0000
     50 H19        3.7924    5.4174    2.8656 H         2 RES2    0.0000
     51 C25        2.1994    5.0519    4.0320 C.ar      2 RES2    0.0000
     52 H20        1.8344    5.9057    3.9694 H         2 RES2    0.0000
     53 C26        1.5627    4.0999    4.7720 C.ar      2 RES2    0.0000
     54 H21        0.7625    4.2985    5.2020 H         2 RES2    0.0000
     55 C27        2.1173    2.8284    4.8810 C.ar      2 RES2    0.0000
     56 H22        1.6831    2.1819    5.3909 H         2 RES2    0.0000
     57 O6         5.1027    3.1259    2.9054 O.3       2 RES2    0.0000
     58 C28        5.8295    4.1053    2.1650 C.3       2 RES2    0.0000
     59 H23        6.6306    3.7109    1.8138 H         2 RES2    0.0000
     60 H24        6.0584    4.8373    2.7420 H         2 RES2    0.0000
     61 H25        5.2856    4.4269    1.4415 H         2 RES2    0.0000
     62 C29        2.0478   -1.4938    3.9638 C.ar      2 RES2    0.0000
     63 C30        1.0866   -0.7165    3.3478 C.ar      2 RES2    0.0000
     64 H26        0.9560    0.1628    3.6223 H         2 RES2    0.0000
     65 C31        0.3206   -1.2381    2.3278 C.ar      2 RES2    0.0000
     66 H27       -0.3369   -0.7166    1.9268 H         2 RES2    0.0000
     67 C32        0.5261   -2.5193    1.9046 C.ar      2 RES2    0.0000
     68 H28       -0.0025   -2.8777    1.2287 H         2 RES2    0.0000
     69 C33        1.5119   -3.2768    2.4783 C.ar      2 RES2    0.0000
     70 H29        1.6746   -4.1359    2.1635 H         2 RES2    0.0000
     71 C34        2.2618   -2.7753    3.5160 C.ar      2 RES2    0.0000
     72 H30        2.9154   -3.3041    3.9148 H         2 RES2    0.0000
     73 C35        3.0837   -0.8440   11.7736 C.2       3 RES3    0.0000
     74 O7         2.5746   -1.8620   12.2478 O.2       3 RES3    0.0000
     75 C36        3.4956    0.3970   12.3069 C.2       3 RES3    0.0000
     76 C37        3.9764    1.1276   11.2493 C.2       3 RES3    0.0000
     77 N3         3.9462    0.3928   10.1393 N.3       3 RES3    0.0000
     78 H31        4.0437    0.5601    9.2405 H         3 RES3    0.0000
     79 O8         3.3526   -0.8348   10.4085 O.3       3 RES3    0.0000
     80 C38        3.5517    0.7087   13.7743 C.3       3 RES3    0.0000
     81 H32        4.2659    1.3501   13.9147 H         3 RES3    0.0000
     82 H33        3.8021   -0.1047   14.2405 H         3 RES3    0.0000
     83 C39        2.3087    1.2527   14.4321 C.ar      3 RES3    0.0000
     84 C40        2.3170    1.4716   15.8170 C.ar      3 RES3    0.0000
     85 C41        1.2049    1.9438   16.4739 C.ar      3 RES3    0.0000
     86 H34        1.2303    2.0907   17.3920 H         3 RES3    0.0000
     87 C42        0.0538    2.1982   15.7646 C.ar      3 RES3    0.0000
     88 H35       -0.7039    2.5053   16.2085 H         3 RES3    0.0000
     89 C43        0.0157    2.0024   14.4156 C.ar      3 RES3    0.0000
     90 H36       -0.7628    2.1825   13.9399 H         3 RES3    0.0000
     91 C44        1.1404    1.5346   13.7543 C.ar      3 RES3    0.0000
     92 H37        1.1067    1.4078   12.8336 H         3 RES3    0.0000
     93 O9         3.4977    1.1660   16.4386 O.3       3 RES3    0.0000
     94 C45        3.6076    1.4586   17.8400 C.3       3 RES3    0.0000
     95 H38        4.4761    1.1979   18.1540 H         3 RES3    0.0000
     96 H39        2.9333    0.9736   18.3229 H         3 RES3    0.0000
     97 H40        3.4854    2.4006   17.9811 H         3 RES3    0.0000
     98 C46        4.4436    2.5220   11.1473 C.ar      3 RES3    0.0000
     99 C47        3.7299    3.5253   11.7684 C.ar      3 RES3    0.0000
    100 H41        3.0038    3.3131   12.3083 H         3 RES3    0.0000
    101 C48        4.0960    4.8504   11.5884 C.ar      3 RES3    0.0000
    102 H42        3.6043    5.5250   11.9985 H         3 RES3    0.0000
    103 C49        5.1702    5.1695   10.8143 C.ar      3 RES3    0.0000
    104 H43        5.4211    6.0592   10.7060 H         3 RES3    0.0000
    105 C50        5.8778    4.1795   10.1981 C.ar      3 RES3    0.0000
    106 H44        6.6080    4.3991    9.6647 H         3 RES3    0.0000
    107 C51        5.5210    2.8570   10.3572 C.ar      3 RES3    0.0000
    108 H45        6.0082    2.1901    9.9307 H         3 RES3    0.0000
@<TRIPOS>BOND
     1    1    2 2
     2    3    1 1
     3    4    3 2
     4    5    4 1
     5    6    5 1
     6    7    1 1
     7    8    3 1
     8    9    8 1
     9   10    8 1
    10   11    8 1
    11   12   11 ar
    12   13   12 ar
    13   14   13 1
    14   15   13 ar
    15   16   15 1
    16   17   15 ar
    17   18   17 1
    18   19   11 ar
    19   20   19 1
    20   21   12 1
    21   22   21 1
    22   23   22 1
    23   24   22 1
    24   25   22 1
    25   26    4 1
    26   27   26 ar
    27   28   27 1
    28   29   27 ar
    29   30   29 1
    30   31   29 ar
    31   32   31 1
    32   33   31 ar
    33   34   33 1
    34   35   26 ar
    35   36   35 1
    36   37   38 2
    37   39   37 1
    38   40   39 2
    39   41   40 1
    40   42   41 1
    41   43   37 1
    42   44   39 1
    43   45   44 1
    44   46   44 1
    45   47   44 1
    46   48   47 ar
    47   49   48 ar
    48   50   49 1
    49   51   49 ar
    50   52   51 1
    51   53   51 ar
    52   54   53 1
    53   55   47 ar
    54   56   55 1
    55   57   48 1
    56   58   57 1
    57   59   58 1
    58   60   58 1
    59   61   58 1
    60   62   40 1
    61   63   62 ar
    62   64   63 1
    63   65   63 ar
    64   66   65 1
    65   67   65 ar
    66   68   67 1
    67   69   67 ar
    68   70   69 1
    69   71   62 ar
    70   72   71 1
    71   73   74 2
    72   75   73 1
    73   76   75 2
    74   77   76 1
    75   78   77 1
    76   79   73 1
    77   80   75 1
    78   81   80 1
    79   82   80 1
    80   83   80 1
    81   84   83 ar
    82   85   84 ar
    83   86   85 1
    84   87   85 ar
    85   88   87 1
    86   89   87 ar
    87   90   89 1
    88   91   83 ar
    89   92   91 1
    90   93   84 1
    91   94   93 1
    92   95   94 1
    93   96   94 1
    94   97   94 1
    95   98   76 1
    96   99   98 ar
    97  100   99 1
    98  101   99 ar
    99  102  101 1
   100  103  101 ar
   101  104  103 1
   102  105  103 ar
   103  106  105 1
   104  107   98 ar
   105  108  107 1
   106    5    7 1
   107   17   19 ar
   108   33   35 ar
   109   41   43 1
   110   53   55 ar
   111   69   71 ar
   112   77   79 1
   113   89   91 ar
   114  105  107 ar
@<TRIPOS>SUBSTRUCTURE
     1 RES1 1
     2 RES2 37
     3 RES3 73

@<TRIPOS>CRYSIN
  11.9889   14.1603   15.2948 107.4420 106.5400 107.4660   2 1

