# MOL2 file generated by ConQuest
# Please check atom types

@<TRIPOS>MOLECULE
CACNEA
    27    27     1
SMALL
NO_CHARGES
****
Generated from CSD

@<TRIPOS>ATOM
      1 O1         2.2188    1.2296    3.6007 O.3       1 RES1    0.0000
      2 O2         3.7206    1.0201    1.9476 O.2       1 RES1    0.0000
      3 O3         1.2299   -1.0286    2.5120 O.2       1 RES1    0.0000
      4 C1         4.4254    0.7691    4.2175 C.ar      1 RES1    0.0000
      5 C2         6.2534    0.3347    6.1990 C.ar      1 RES1    0.0000
      6 C3         4.0103    0.2658    5.4447 C.ar      1 RES1    0.0000
      7 H1         3.1092    0.0914    5.5947 H         1 RES1    0.0000
      8 C4         3.4600    1.0054    3.1109 C.2       1 RES1    0.0000
      9 C5         6.6842    0.8521    5.0026 C.ar      1 RES1    0.0000
     10 H2         7.5806    1.0630    4.8726 H         1 RES1    0.0000
     11 C6         5.7655    1.0518    3.9991 C.ar      1 RES1    0.0000
     12 H3         6.0432    1.3766    3.1725 H         1 RES1    0.0000
     13 O4        -0.4782    0.1005    1.5885 O.3       1 RES1    0.0000
     14 C7         4.9423    0.0218    6.4441 C.ar      1 RES1    0.0000
     15 H4         4.6832   -0.3438    7.2587 H         1 RES1    0.0000
     16 N1         7.2472    0.0921    7.2681 N.pl3     1 RES1    0.0000
     17 C8         1.1686    1.3295    2.6835 C.2       1 RES1    0.0000
     18 C9         0.6640    0.0014    2.2548 C.2       1 RES1    0.0000
     19 C10        0.6657    2.4986    2.3700 C.2       1 RES1    0.0000
     20 H5         1.0072    3.2713    2.7585 H         1 RES1    0.0000
     21 H6        -0.0327    2.5549    1.7577 H         1 RES1    0.0000
     22 O5         6.8764   -0.5097    8.2702 O.2       1 RES1    0.0000
     23 O6         8.3801    0.4746    7.0993 O.2       1 RES1    0.0000
     24 C11       -1.0562   -1.1502    1.1334 C.3       1 RES1    0.0000
     25 H7        -1.7457   -0.9688    0.4890 H         1 RES1    0.0000
     26 H8        -1.4337   -1.6198    1.8810 H         1 RES1    0.0000
     27 H9        -0.3737   -1.6901    0.7275 H         1 RES1    0.0000
@<TRIPOS>BOND
     1    1    8 1
     2    2    8 2
     3    3   18 2
     4    4    6 ar
     5    5    9 ar
     6    6    7 1
     7    8    4 1
     8    9   10 1
     9   11    4 ar
    10   12   11 1
    11   13   18 1
    12   14    5 ar
    13   15   14 1
    14   16    5 1
    15   17    1 1
    16   18   17 1
    17   19   17 2
    18   20   19 1
    19   21   19 1
    20   22   16 2
    21   23   16 2
    22   24   13 1
    23   25   24 1
    24   26   24 1
    25   27   24 1
    26    6   14 ar
    27    9   11 ar
@<TRIPOS>SUBSTRUCTURE
     1 RES1 1

@<TRIPOS>CRYSIN
  24.0870    7.0305   13.6270  90.0000 100.5330  90.0000  15 1

