# MOL2 file generated by ConQuest
# Please check atom types

@<TRIPOS>MOLECULE
CACRAA
    45    48     1
SMALL
NO_CHARGES
****
Generated from CSD

@<TRIPOS>ATOM
      1 C1         7.9729    2.0085   10.1727 C.ar      1 RES1    0.0000
      2 C2         6.8564    1.1993   10.0314 C.ar      1 RES1    0.0000
      3 C3         5.6013    1.7859    9.9987 C.ar      1 RES1    0.0000
      4 C4         5.4605    3.1596   10.0814 C.ar      1 RES1    0.0000
      5 C5         6.5707    3.9349   10.2071 C.ar      1 RES1    0.0000
      6 C6         7.8357    3.3771   10.2691 C.ar      1 RES1    0.0000
      7 C7         9.0072    4.2752   10.4121 C.2       1 RES1    0.0000
      8 O1         8.8615    5.4618   10.6516 O.2       1 RES1    0.0000
      9 C8        10.3840    3.6996   10.2657 C.2       1 RES1    0.0000
     10 C9        10.7192    3.1816    8.9719 C.2       1 RES1    0.0000
     11 O2         9.9608    3.2595    7.9969 O.2       1 RES1    0.0000
     12 C10       12.0378    2.5544    8.8668 C.ar      1 RES1    0.0000
     13 C11       12.9060    2.5299    9.9608 C.ar      1 RES1    0.0000
     14 N1        12.5351    3.1300   11.1529 N.pl3     1 RES1    0.0000
     15 C12       11.2736    3.6878   11.3010 C.2       1 RES1    0.0000
     16 C13       10.9738    4.2811   12.6275 C.3       1 RES1    0.0000
     17 C14       13.4813    3.1672   12.2571 C.ar      1 RES1    0.0000
     18 C15       13.3402    2.3276   13.3287 C.ar      1 RES1    0.0000
     19 C16       14.2541    2.3902   14.3623 C.ar      1 RES1    0.0000
     20 C17       15.2963    3.2713   14.3261 C.ar      1 RES1    0.0000
     21 C18       15.4452    4.0890   13.2408 C.ar      1 RES1    0.0000
     22 C19       14.5523    4.0492   12.1779 C.ar      1 RES1    0.0000
     23 C20       12.4061    1.9459    7.6747 C.ar      1 RES1    0.0000
     24 C21       13.6069    1.3145    7.5696 C.ar      1 RES1    0.0000
     25 N2        13.9426    0.6331    6.3258 N.pl3     1 RES1    0.0000
     26 O3        14.9282   -0.0804    6.3000 O.2       1 RES1    0.0000
     27 O4        13.2045    0.7863    5.3663 O.2       1 RES1    0.0000
     28 C22       14.5037    1.2882    8.6343 C.ar      1 RES1    0.0000
     29 C23       14.1625    1.8782    9.8074 C.ar      1 RES1    0.0000
     30 H1         8.8335    1.5320   10.1985 H         1 RES1    0.0000
     31 H2         7.0192    0.2285    9.8540 H         1 RES1    0.0000
     32 H3         4.8783    1.1088    9.9401 H         1 RES1    0.0000
     33 H4         4.5708    3.5295    9.9401 H         1 RES1    0.0000
     34 H5         6.5399    4.9514   10.2157 H         1 RES1    0.0000
     35 H6        10.0795    4.6637   12.6275 H         1 RES1    0.0000
     36 H7        10.8761    3.5887   13.3511 H         1 RES1    0.0000
     37 H8        11.5742    4.9514   12.9204 H         1 RES1    0.0000
     38 H9        12.5789    1.6505   13.4372 H         1 RES1    0.0000
     39 H10       14.1557    1.8113   15.1427 H         1 RES1    0.0000
     40 H11       15.9378    3.3348   15.0566 H         1 RES1    0.0000
     41 H12       16.1697    4.7568   13.1960 H         1 RES1    0.0000
     42 H13       14.6583    4.6129   11.4044 H         1 RES1    0.0000
     43 H14       11.8025    2.0144    6.8909 H         1 RES1    0.0000
     44 H15       15.3802    0.8125    8.4413 H         1 RES1    0.0000
     45 H16       14.7856    1.8536   10.5775 H         1 RES1    0.0000
@<TRIPOS>BOND
     1    1    2 ar
     2    2    3 ar
     3    3    4 ar
     4    4    5 ar
     5    5    6 ar
     6    6    1 ar
     7    7    6 1
     8    8    7 2
     9    9    7 1
    10   10    9 1
    11   11   10 2
    12   12   10 1
    13   13   12 ar
    14   14   13 1
    15   15    9 2
    16   16   15 1
    17   17   14 1
    18   18   17 ar
    19   19   18 ar
    20   20   19 ar
    21   21   20 ar
    22   22   17 ar
    23   23   12 ar
    24   24   23 ar
    25   25   24 1
    26   26   25 2
    27   27   25 2
    28   28   24 ar
    29   29   13 ar
    30   30    1 1
    31   31    2 1
    32   32    3 1
    33   33    4 1
    34   34    5 1
    35   35   16 1
    36   36   16 1
    37   37   16 1
    38   38   18 1
    39   39   19 1
    40   40   20 1
    41   41   21 1
    42   42   22 1
    43   43   23 1
    44   44   28 1
    45   45   29 1
    46   14   15 1
    47   21   22 ar
    48   28   29 ar
@<TRIPOS>SUBSTRUCTURE
     1 RES1 1

@<TRIPOS>CRYSIN
  12.8120    8.4640   17.2290  90.0000  90.8300  90.0000 231 1

