# MOL2 file generated by ConQuest
# Please check atom types

@<TRIPOS>MOLECULE
CACROO
    27    28     1
SMALL
NO_CHARGES
****
Generated from CSD

@<TRIPOS>ATOM
      1 O1        -0.1120    4.8089   13.4035 O.3       1 RES1    0.0000
      2 O2         1.5997    2.0522   17.6613 O.2       1 RES1    0.0000
      3 N1         0.9106    4.3247   14.1860 N.pl3     1 RES1    0.0000
      4 N2         2.9377    3.8377   14.8384 N.2       1 RES1    0.0000
      5 N3        -0.4627    3.3260   15.8236 N.3       1 RES1    0.0000
      6 C1         2.2573    4.4457   13.9326 C.2       1 RES1    0.0000
      7 C2         2.0129    3.2797   15.7231 C.2       1 RES1    0.0000
      8 C3         0.7287    3.5956   15.3081 C.2       1 RES1    0.0000
      9 C4         2.3748    2.5165   16.8442 C.2       1 RES1    0.0000
     10 C5        -0.4961    3.7989   12.3999 C.3       1 RES1    0.0000
     11 C6         0.6403    3.5029   11.4921 C.ar      1 RES1    0.0000
     12 C7         0.9935    4.3871   10.5015 C.ar      1 RES1    0.0000
     13 C8         2.1243    4.1677    9.7499 C.ar      1 RES1    0.0000
     14 C9         2.8864    3.0669    9.9730 C.ar      1 RES1    0.0000
     15 C10        2.5344    2.1609   10.9204 C.ar      1 RES1    0.0000
     16 C11        1.4011    2.3822   11.6885 C.ar      1 RES1    0.0000
     17 H1         2.5690    5.0387   13.2120 H         1 RES1    0.0000
     18 H2         3.3850    2.3869   16.9887 H         1 RES1    0.0000
     19 H3        -0.8500    2.8664   12.8700 H         1 RES1    0.0000
     20 H4        -1.1667    3.6646   15.4505 H         1 RES1    0.0000
     21 H5        -0.5190    2.9298   16.5424 H         1 RES1    0.0000
     22 H6        -1.2038    4.2452   11.9939 H         1 RES1    0.0000
     23 H7         0.5153    5.1512   10.3497 H         1 RES1    0.0000
     24 H8         2.4274    4.8552    9.0933 H         1 RES1    0.0000
     25 H9         3.6392    2.9392    9.4810 H         1 RES1    0.0000
     26 H10        3.0287    1.3996   11.1014 H         1 RES1    0.0000
     27 H11        1.1537    1.7221   12.3140 H         1 RES1    0.0000
@<TRIPOS>BOND
     1    1    3 1
     2    2    9 2
     3    3    6 1
     4    4    6 2
     5    5    8 1
     6    6   17 1
     7    7    4 1
     8    8    3 1
     9    9    7 1
    10   10    1 1
    11   11   10 1
    12   12   11 ar
    13   13   12 ar
    14   14   13 ar
    15   15   14 ar
    16   16   11 ar
    17   18    9 1
    18   19   10 1
    19   20    5 1
    20   21    5 1
    21   22   10 1
    22   23   12 1
    23   24   13 1
    24   25   14 1
    25   26   15 1
    26   27   16 1
    27    7    8 2
    28   15   16 ar
@<TRIPOS>SUBSTRUCTURE
     1 RES1 1

@<TRIPOS>CRYSIN
   6.1860    9.4570   18.2890  90.0000  90.0000  90.0000  19 1

