# MOL2 file generated by ConQuest
# Please check atom types

@<TRIPOS>MOLECULE
CACTAB
    59    62     1
SMALL
NO_CHARGES
****
Generated from CSD

@<TRIPOS>ATOM
      1 O1        -0.6129   14.9291    2.2687 O.3       1 RES1    0.0000
      2 C1        -0.5515   15.3225    3.6842 C.3       1 RES1    0.0000
      3 C2        -0.4356   16.8622    3.6933 C.3       1 RES1    0.0000
      4 C3        -0.7041   17.1911    2.2346 C.2       1 RES1    0.0000
      5 C4        -0.7707   16.0494    1.5299 C.2       1 RES1    0.0000
      6 O2         0.3348   12.3950    3.6071 O.3       1 RES1    0.0000
      7 C5         1.0401   11.3026    3.9765 C.2       1 RES1    0.0000
      8 C6         1.6080   11.3912    5.1863 C.2       1 RES1    0.0000
      9 C7         1.3067   12.7594    5.7740 C.3       1 RES1    0.0000
     10 C8         0.2841   13.3008    4.7536 C.3       1 RES1    0.0000
     11 N1         0.4823   14.6690    4.4048 N.3       1 RES1    0.0000
     12 O3         1.7520   14.8636    3.7940 O.3       1 RES1    0.0000
     13 C9        -0.9362   15.8064    0.0718 C.3       1 RES1    0.0000
     14 C10       -0.7604   18.5334    1.6783 C.2       1 RES1    0.0000
     15 O4        -1.2858   18.7670    0.5913 O.2       1 RES1    0.0000
     16 C11       -0.1162   19.6327    2.4575 C.3       1 RES1    0.0000
     17 C12       -1.4099   17.4636    4.6767 C.ar      1 RES1    0.0000
     18 C13       -2.7701   17.3745    4.4499 C.ar      1 RES1    0.0000
     19 C14       -3.6739   17.8865    5.3564 C.ar      1 RES1    0.0000
     20 C15       -3.2343   18.4938    6.4974 C.ar      1 RES1    0.0000
     21 C16       -1.8920   18.5993    6.7274 C.ar      1 RES1    0.0000
     22 C17       -0.9751   18.0794    5.8344 C.ar      1 RES1    0.0000
     23 C18        1.0619   10.2299    2.9472 C.3       1 RES1    0.0000
     24 C19        2.5371   10.4131    5.7369 C.2       1 RES1    0.0000
     25 O5         2.6251    9.2868    5.2789 O.2       1 RES1    0.0000
     26 C20        3.4205   10.8258    6.8643 C.3       1 RES1    0.0000
     27 C21        0.7192   12.8240    7.1721 C.ar      1 RES1    0.0000
     28 C22        0.0390   11.7615    7.7300 C.ar      1 RES1    0.0000
     29 C23       -0.5558   11.8799    8.9695 C.ar      1 RES1    0.0000
     30 C24       -0.4712   13.0426    9.6772 C.ar      1 RES1    0.0000
     31 C25        0.1780   14.1053    9.1320 C.ar      1 RES1    0.0000
     32 C26        0.7712   14.0014    7.8774 C.ar      1 RES1    0.0000
     33 H1        -1.4078   15.0136    4.0722 H         1 RES1    0.0000
     34 H2         0.4570   17.0856    3.9547 H         1 RES1    0.0000
     35 H3         2.1163   13.3512    5.7543 H         1 RES1    0.0000
     36 H4        -0.6341   13.2417    5.1388 H         1 RES1    0.0000
     37 H5         2.1955   15.4613    4.3589 H         1 RES1    0.0000
     38 H6        -1.8043   15.3804   -0.0478 H         1 RES1    0.0000
     39 H7        -0.3556   15.0970   -0.2083 H         1 RES1    0.0000
     40 H8        -0.9038   16.6450   -0.4138 H         1 RES1    0.0000
     41 H9         0.8139   19.3934    2.6291 H         1 RES1    0.0000
     42 H10       -0.5582   19.7554    3.2876 H         1 RES1    0.0000
     43 H11       -0.0876   20.4341    2.0108 H         1 RES1    0.0000
     44 H12       -3.1153   16.8665    3.6345 H         1 RES1    0.0000
     45 H13       -4.6568   17.8429    5.1541 H         1 RES1    0.0000
     46 H14       -3.9548   18.8647    7.1123 H         1 RES1    0.0000
     47 H15       -1.5245   19.0504    7.4965 H         1 RES1    0.0000
     48 H16       -0.0160   18.2216    5.9683 H         1 RES1    0.0000
     49 H17        1.7196   10.4457    2.3376 H         1 RES1    0.0000
     50 H18        0.2472   10.1909    2.4733 H         1 RES1    0.0000
     51 H19        1.3507    9.4097    3.2876 H         1 RES1    0.0000
     52 H20        2.9564   10.9363    7.5883 H         1 RES1    0.0000
     53 H21        3.7088   11.7984    6.7922 H         1 RES1    0.0000
     54 H22        4.1649   10.2123    6.9240 H         1 RES1    0.0000
     55 H23       -0.0188   10.9030    7.2136 H         1 RES1    0.0000
     56 H24       -1.0594   11.1197    9.3534 H         1 RES1    0.0000
     57 H25       -0.8659   13.1155   10.5891 H         1 RES1    0.0000
     58 H26        0.2196   14.9326    9.5732 H         1 RES1    0.0000
     59 H27        1.2604   14.7516    7.4697 H         1 RES1    0.0000
@<TRIPOS>BOND
     1    1    2 1
     2    2    3 1
     3    3    4 1
     4    4    5 2
     5    5    1 1
     6    6    7 1
     7    7    8 2
     8    8    9 1
     9    9   10 1
    10   10    6 1
    11   11    2 1
    12   12   11 1
    13   13    5 1
    14   14    4 1
    15   15   14 2
    16   16   14 1
    17   17    3 1
    18   18   17 ar
    19   19   18 ar
    20   20   19 ar
    21   21   20 ar
    22   22   17 ar
    23   23    7 1
    24   24    8 1
    25   25   24 2
    26   26   24 1
    27   27    9 1
    28   28   27 ar
    29   29   28 ar
    30   30   29 ar
    31   31   30 ar
    32   32   27 ar
    33   33    2 1
    34   34    3 1
    35   35    9 1
    36   36   10 1
    37   37   12 1
    38   38   13 1
    39   39   13 1
    40   40   13 1
    41   41   16 1
    42   42   16 1
    43   43   16 1
    44   44   18 1
    45   45   19 1
    46   46   20 1
    47   47   21 1
    48   48   22 1
    49   49   23 1
    50   50   23 1
    51   51   23 1
    52   52   26 1
    53   53   26 1
    54   54   26 1
    55   55   28 1
    56   56   29 1
    57   57   30 1
    58   58   31 1
    59   59   32 1
    60   10   11 1
    61   21   22 ar
    62   31   32 ar
@<TRIPOS>SUBSTRUCTURE
     1 RES1 1

@<TRIPOS>CRYSIN
  10.3130   23.8160    9.8470  90.0000 103.9400  90.0000 231 1

