# MOL2 file generated by ConQuest
# Please check atom types

@<TRIPOS>MOLECULE
CACXUA
    41    41     1
SMALL
NO_CHARGES
****
Generated from CSD

@<TRIPOS>ATOM
      1 C1         0.2728    7.0177   10.1393 C.3       1 RES1    0.0000
      2 C2         0.4505    8.3667    9.4833 C.3       1 RES1    0.0000
      3 C3         1.8135    8.9809    9.7862 C.3       1 RES1    0.0000
      4 C4         1.9442    9.0467   11.2832 C.3       1 RES1    0.0000
      5 C5         1.7691    7.6491   11.8651 C.3       1 RES1    0.0000
      6 C6        -1.1699    6.5492   10.0388 C.2       1 RES1    0.0000
      7 C7        -2.6425    4.7897   10.4024 C.3       1 RES1    0.0000
      8 C8         1.8189   10.3487    9.1421 C.2       1 RES1    0.0000
      9 C9         2.9203    9.4086    7.1175 C.3       1 RES1    0.0000
     10 C10        4.4027    9.5434    7.1069 C.3       1 RES1    0.0000
     11 C11        2.0481   11.6883    7.1386 C.3       1 RES1    0.0000
     12 C12        0.8038   11.6742    6.3756 C.3       1 RES1    0.0000
     13 N1         3.2739    9.5543   11.7090 N.pl3     1 RES1    0.0000
     14 N2         2.2625   10.4584    7.8898 N.am      1 RES1    0.0000
     15 O1         0.4848    7.1524   11.5371 O.3       1 RES1    0.0000
     16 O2         1.1420    6.1372    9.5534 O.3       1 RES1    0.0000
     17 O3         3.4748    9.6358   12.8781 O.2       1 RES1    0.0000
     18 O4         4.0704    9.9053   10.8865 O.2       1 RES1    0.0000
     19 O5        -2.0364    7.2120    9.6460 O.2       1 RES1    0.0000
     20 O6        -1.3250    5.3491   10.3985 O.3       1 RES1    0.0000
     21 O7         1.3372   11.3045    9.7597 O.2       1 RES1    0.0000
     22 H1         1.0275    5.4525    9.8259 H         1 RES1    0.0000
     23 H2        -0.3163    8.9308    9.8523 H         1 RES1    0.0000
     24 H3         0.4038    8.3040    8.5563 H         1 RES1    0.0000
     25 H4         2.5258    8.5547    9.4423 H         1 RES1    0.0000
     26 H5         1.3062    9.5261   11.6905 H         1 RES1    0.0000
     27 H6         1.7993    7.6460   12.8014 H         1 RES1    0.0000
     28 H7         2.5372    7.1446   11.5186 H         1 RES1    0.0000
     29 H8        -3.0711    4.9668   11.1483 H         1 RES1    0.0000
     30 H9        -2.5606    3.8387   10.2094 H         1 RES1    0.0000
     31 H10       -3.1443    5.2644    9.7597 H         1 RES1    0.0000
     32 H11        2.6498    8.5861    7.4719 H         1 RES1    0.0000
     33 H12        2.5089    9.4478    6.2023 H         1 RES1    0.0000
     34 H13        4.6014   10.3565    6.7842 H         1 RES1    0.0000
     35 H14        4.7857    8.9308    6.4800 H         1 RES1    0.0000
     36 H15        4.6734    9.6672    8.0538 H         1 RES1    0.0000
     37 H16        2.8543   11.6883    6.3875 H         1 RES1    0.0000
     38 H17        2.1912   12.3621    7.6438 H         1 RES1    0.0000
     39 H18        0.7952   10.9519    5.7791 H         1 RES1    0.0000
     40 H19        0.6695   12.3934    5.9114 H         1 RES1    0.0000
     41 H20        0.0417   11.6727    7.1016 H         1 RES1    0.0000
@<TRIPOS>BOND
     1    1    2 1
     2    2    3 1
     3    3    4 1
     4    4    5 1
     5    5   15 1
     6    6    1 1
     7    7   20 1
     8    8    3 1
     9    9   10 1
    10   10   34 1
    11   11   12 1
    12   12   39 1
    13   13    4 1
    14   14    8 1
    15   15    1 1
    16   16    1 1
    17   17   13 2
    18   18   13 2
    19   19    6 2
    20   20    6 1
    21   21    8 2
    22   22   16 1
    23   23    2 1
    24   24    2 1
    25   25    3 1
    26   26    4 1
    27   27    5 1
    28   28    5 1
    29   29    7 1
    30   30    7 1
    31   31    7 1
    32   32    9 1
    33   33    9 1
    34   35   10 1
    35   36   10 1
    36   37   11 1
    37   38   11 1
    38   40   12 1
    39   41   12 1
    40    9   14 1
    41   11   14 1
@<TRIPOS>SUBSTRUCTURE
     1 RES1 1

@<TRIPOS>CRYSIN
   6.8968   15.6680   13.5420  90.0000 102.4300  90.0000  14 1

