# MOL2 file generated by ConQuest
# Please check atom types

@<TRIPOS>MOLECULE
CACXOV
    32    34     1
SMALL
NO_CHARGES
****
Generated from CSD

@<TRIPOS>ATOM
      1 O1         0.1474    2.6506   14.3886 O.3       1 RES1    0.0000
      2 O2         1.5846    0.7677   14.7844 O.3       1 RES1    0.0000
      3 O3         1.2227    3.3541   17.2425 O.2       1 RES1    0.0000
      4 O4         7.8011    2.3493   13.7473 O.2       1 RES1    0.0000
      5 O5         7.9810    4.1265   15.1682 O.3       1 RES1    0.0000
      6 C1         0.7778    1.8287   15.3808 C.3       1 RES1    0.0000
      7 C2        -0.3869    1.0884   16.1431 C.3       1 RES1    0.0000
      8 H1        -0.1359    0.1782   16.3661 H         1 RES1    0.0000
      9 H2        -0.6267    1.5590   16.9572 H         1 RES1    0.0000
     10 C3        -1.5317    1.1110   15.1405 C.3       1 RES1    0.0000
     11 H3        -1.4926    0.3412   14.5511 H         1 RES1    0.0000
     12 H4        -2.3894    1.1215   15.5917 H         1 RES1    0.0000
     13 C4        -1.3046    2.3929   14.3730 C.3       1 RES1    0.0000
     14 H5        -1.6221    2.3009   13.4603 H         1 RES1    0.0000
     15 H6        -1.7818    3.1254   14.7931 H         1 RES1    0.0000
     16 C5         1.6909    2.7510   16.2520 C.2       1 RES1    0.0000
     17 C6         3.1380    2.8756   15.8319 C.ar      1 RES1    0.0000
     18 C7         3.5816    2.1121   14.6945 C.ar      1 RES1    0.0000
     19 C8         4.9586    2.2325   14.2970 C.ar      1 RES1    0.0000
     20 H7         5.2732    1.7425   13.5710 H         1 RES1    0.0000
     21 C9         5.8269    3.0775   14.9884 C.ar      1 RES1    0.0000
     22 C10        5.3741    3.8625   16.0826 C.ar      1 RES1    0.0000
     23 H8         5.9580    4.4399   16.5199 H         1 RES1    0.0000
     24 C11        4.0258    3.7563   16.4992 C.ar      1 RES1    0.0000
     25 H9         3.7195    4.2669   17.2131 H         1 RES1    0.0000
     26 C12        7.3109    3.1248   14.5597 C.2       1 RES1    0.0000
     27 C13        9.4130    4.3116   14.7879 C.3       1 RES1    0.0000
     28 H10        9.9144    3.5323   15.0437 H         1 RES1    0.0000
     29 H11        9.7670    5.0808   15.2373 H         1 RES1    0.0000
     30 H12        9.4796    4.4351   13.8372 H         1 RES1    0.0000
     31 N1         2.6500    1.3424   13.9495 N.pl3     1 RES1    0.0000
     32 H13        2.7034    1.2241   13.0991 H         1 RES1    0.0000
@<TRIPOS>BOND
     1    1    6 1
     2    2    6 1
     3    3   16 2
     4    4   26 2
     5    5   26 1
     6    6    7 1
     7    7    8 1
     8    9    7 1
     9   10    7 1
    10   11   10 1
    11   12   10 1
    12   13    1 1
    13   14   13 1
    14   15   13 1
    15   16    6 1
    16   17   16 1
    17   18   17 ar
    18   19   18 ar
    19   20   19 1
    20   21   19 ar
    21   22   21 ar
    22   23   22 1
    23   24   17 ar
    24   25   24 1
    25   26   21 1
    26   27    5 1
    27   28   27 1
    28   29   27 1
    29   30   27 1
    30   31    2 1
    31   32   31 1
    32   10   13 1
    33   18   31 1
    34   22   24 ar
@<TRIPOS>SUBSTRUCTURE
     1 RES1 1

@<TRIPOS>CRYSIN
  14.4760    5.2580   17.3530  90.0000  95.0490  90.0000 231 1

