# MOL2 file generated by ConQuest
# Please check atom types

@<TRIPOS>MOLECULE
CADBOB
    20    20     2
SMALL
NO_CHARGES
****
Generated from CSD

@<TRIPOS>ATOM
      1 N1         7.5248    2.0971   -1.3982 N.2       1 RES1    0.0000
      2 N2         6.4378    0.5938   -0.0889 N.2       1 RES1    0.0000
      3 N3         8.3975    3.5993    0.2046 N.pl3     1 RES1    0.0000
      4 O1         6.7609    0.9734   -1.3795 O.3       1 RES1    0.0000
      5 O2         6.8530    1.5163    2.0483 O.3       1 RES1    0.0000
      6 H1         7.3376    2.0971    2.3639 H         1 RES1    0.0000
      7 O3         8.4126    3.8987    1.3795 O.2       1 RES1    0.0000
      8 O4         8.9667    4.2018   -0.6886 O.2       1 RES1    0.0000
      9 C1         6.9828    1.5055    0.7061 C.2       1 RES1    0.0000
     10 C2         7.6456    2.4176   -0.1578 C.2       1 RES1    0.0000
     11 N4        12.4408    3.4838    2.6539 N.2       2 RES2    0.0000
     12 N5        11.3763    4.9589    3.9960 N.2       2 RES2    0.0000
     13 N6        10.4146    6.4345    2.4119 N.pl3     2 RES2    0.0000
     14 O5        12.1192    3.8553    3.9714 O.3       2 RES2    0.0000
     15 O6        11.9486    4.3987    0.5436 O.3       2 RES2    0.0000
     16 H2        11.3914    4.9220    0.2467 H         2 RES2    0.0000
     17 O7        10.3165    6.6867    1.2182 O.2       2 RES2    0.0000
     18 O8         9.9103    7.0766    3.3109 O.2       2 RES2    0.0000
     19 C3        11.8625    4.3640    1.8963 C.2       2 RES2    0.0000
     20 C4        11.1952    5.2723    2.7567 C.2       2 RES2    0.0000
@<TRIPOS>BOND
     1    1    4 1
     2    2    4 1
     3    3    7 2
     4    5    6 1
     5    8    3 2
     6    9    2 2
     7   10    1 2
     8   11   14 1
     9   12   14 1
    10   13   17 2
    11   15   16 1
    12   18   13 2
    13   19   11 2
    14   20   12 2
    15    3   10 1
    16    5    9 1
    17    9   10 1
    18   13   20 1
    19   15   19 1
    20   19   20 1
@<TRIPOS>SUBSTRUCTURE
     1 RES1 1
     2 RES2 11

@<TRIPOS>CRYSIN
  15.0980    5.4231   11.6910  90.0000  90.0000  90.0000  33 1

