# MOL2 file generated by ConQuest
# Please check atom types

@<TRIPOS>MOLECULE
CADBOA
    51    55     1
SMALL
NO_CHARGES
****
Generated from CSD

@<TRIPOS>ATOM
      1 C1         3.5491   10.6377    3.0107 C.2       1 RES1    0.0000
      2 C2         4.6495   12.0648    4.6179 C.ar      1 RES1    0.0000
      3 C3         5.7476   12.8671    4.8591 C.ar      1 RES1    0.0000
      4 H1         6.3795   13.0487    4.1728 H         1 RES1    0.0000
      5 C4         5.9016   13.3978    6.1246 C.ar      1 RES1    0.0000
      6 H2         6.6543   13.9458    6.3123 H         1 RES1    0.0000
      7 C5         4.9734   13.1428    7.1280 C.ar      1 RES1    0.0000
      8 H3         5.0937   13.5213    7.9912 H         1 RES1    0.0000
      9 C6         3.8777   12.3415    6.8750 C.ar      1 RES1    0.0000
     10 H4         3.2424   12.1731    7.5612 H         1 RES1    0.0000
     11 C7         3.7046   11.7761    5.6042 C.ar      1 RES1    0.0000
     12 C8         2.6530   10.8504    5.2861 C.2       1 RES1    0.0000
     13 H5         1.9996   10.6306    5.9393 H         1 RES1    0.0000
     14 C9         2.5952   10.2954    4.0661 C.2       1 RES1    0.0000
     15 C10        1.6517    8.2859    2.8685 C.2       1 RES1    0.0000
     16 H6         2.3515    8.0731    2.2616 H         1 RES1    0.0000
     17 C11        0.4809    7.6032    3.0597 C.2       1 RES1    0.0000
     18 C12        0.0313    6.3197    2.4994 C.ar      1 RES1    0.0000
     19 C13       -0.7957    5.4923    3.2674 C.ar      1 RES1    0.0000
     20 H7        -1.1298    5.7944    4.1038 H         1 RES1    0.0000
     21 C14       -1.1247    4.2279    2.8004 C.ar      1 RES1    0.0000
     22 C15       -0.6502    3.7715    1.5744 C.ar      1 RES1    0.0000
     23 C16        0.1405    4.6016    0.7849 C.ar      1 RES1    0.0000
     24 H8         0.4468    4.3067   -0.0650 H         1 RES1    0.0000
     25 C17        0.4776    5.8646    1.2525 C.ar      1 RES1    0.0000
     26 H9         1.0209    6.4300    0.7167 H         1 RES1    0.0000
     27 C18       -1.9259    3.1759    3.5267 C.3       1 RES1    0.0000
     28 C19       -3.3883    3.5565    3.7334 C.3       1 RES1    0.0000
     29 H10       -3.7697    3.8608    2.8827 H         1 RES1    0.0000
     30 H11       -3.4479    4.2777    4.3944 H         1 RES1    0.0000
     31 H12       -3.8863    2.7763    4.0547 H         1 RES1    0.0000
     32 C20       -1.2848    2.7550    4.8429 C.3       1 RES1    0.0000
     33 H13       -1.7746    1.9917    5.2160 H         1 RES1    0.0000
     34 H14       -1.3156    3.5036    5.4748 H         1 RES1    0.0000
     35 H15       -0.3521    2.4995    4.6851 H         1 RES1    0.0000
     36 C21       -1.0496    2.3459    1.3059 C.3       1 RES1    0.0000
     37 C22        0.1398    1.3902    1.2411 C.3       1 RES1    0.0000
     38 H16        0.6439    1.5522    0.4167 H         1 RES1    0.0000
     39 H17       -0.1837    0.4658    1.2502 H         1 RES1    0.0000
     40 H18        0.7216    1.5407    2.0147 H         1 RES1    0.0000
     41 C23       -1.9553    2.1843    0.0824 C.3       1 RES1    0.0000
     42 H19       -2.7064    2.8096    0.1473 H         1 RES1    0.0000
     43 H20       -2.2967    1.2663    0.0478 H         1 RES1    0.0000
     44 H21       -1.4418    2.3722   -0.7313 H         1 RES1    0.0000
     45 N1         1.5984    9.3319    3.7330 N.pl3     1 RES1    0.0000
     46 N2         0.4389    9.3035    4.4432 N.2       1 RES1    0.0000
     47 N3        -0.2406    8.2611    4.0227 N.2       1 RES1    0.0000
     48 N4        -1.8360    2.0621    2.5451 N.3       1 RES1    0.0000
     49 O1         3.5501   10.1980    1.8865 O.2       1 RES1    0.0000
     50 O2         4.5320   11.5247    3.3501 O.3       1 RES1    0.0000
     51 O3        -2.3434    0.9141    2.7900 O.2       1 RES1    0.0000
@<TRIPOS>BOND
     1    1   14 1
     2    2    3 ar
     3    3    4 1
     4    5    3 ar
     5    6    5 1
     6    7    5 ar
     7    8    7 1
     8    9    7 ar
     9   10    9 1
    10   11    2 ar
    11   12   11 1
    12   13   12 1
    13   14   12 2
    14   15   16 1
    15   17   15 2
    16   18   17 1
    17   19   18 ar
    18   20   19 1
    19   21   19 ar
    20   22   21 ar
    21   23   22 ar
    22   24   23 1
    23   25   18 ar
    24   26   25 1
    25   27   21 1
    26   28   27 1
    27   29   28 1
    28   30   28 1
    29   31   28 1
    30   32   27 1
    31   33   32 1
    32   34   32 1
    33   35   32 1
    34   36   22 1
    35   37   36 1
    36   38   37 1
    37   39   37 1
    38   40   37 1
    39   41   36 1
    40   42   41 1
    41   43   41 1
    42   44   41 1
    43   45   14 1
    44   46   45 1
    45   47   17 1
    46   48   27 1
    47   49    1 2
    48   50    1 1
    49   51   48 1
    50    2   50 1
    51    9   11 ar
    52   15   45 1
    53   23   25 ar
    54   36   48 1
    55   46   47 2
@<TRIPOS>SUBSTRUCTURE
     1 RES1 1

@<TRIPOS>CRYSIN
   5.8079   12.9919   14.7368 112.9160  99.1120  95.0010   2 1

