# MOL2 file generated by ConQuest
# Please check atom types

@<TRIPOS>MOLECULE
CADFAO
    27    29     1
SMALL
NO_CHARGES
****
Generated from CSD

@<TRIPOS>ATOM
      1 O1        -0.3058    0.1904    7.1732 O.3       1 RES1    0.0000
      2 C1        -0.8215    1.3966    7.5339 C.2       1 RES1    0.0000
      3 C2        -0.2594    2.4484    6.9030 C.2       1 RES1    0.0000
      4 C3         1.4458   -0.4444    5.5784 C.ar      1 RES1    0.0000
      5 C4         2.3350    0.0679    4.6868 C.ar      1 RES1    0.0000
      6 C5         3.4402    1.9537    3.5217 C.ar      1 RES1    0.0000
      7 C6         3.6080    3.2944    3.3260 C.ar      1 RES1    0.0000
      8 C7         2.8200    4.2182    4.0484 C.ar      1 RES1    0.0000
      9 C8         1.8628    3.7935    4.9357 C.ar      1 RES1    0.0000
     10 C9         1.6803    2.4090    5.1358 C.ar      1 RES1    0.0000
     11 C10        2.4825    1.4633    4.4335 C.ar      1 RES1    0.0000
     12 C11        0.7193    1.8727    6.0444 C.ar      1 RES1    0.0000
     13 C12        0.6503    0.4991    6.2391 C.ar      1 RES1    0.0000
     14 N1        -1.8318    1.3528    8.5138 N.pl3     1 RES1    0.0000
     15 O2        -2.3934    2.4013    8.7915 O.2       1 RES1    0.0000
     16 O3        -2.1065    0.2835    9.0373 O.2       1 RES1    0.0000
     17 O4         3.1051    5.5294    3.7856 O.3       1 RES1    0.0000
     18 C13        2.3231    6.5199    4.4506 C.3       1 RES1    0.0000
     19 H1        -0.4961    3.4258    7.0530 H         1 RES1    0.0000
     20 H2         1.3656   -1.4655    5.7518 H         1 RES1    0.0000
     21 H3         2.9625   -0.5604    4.1335 H         1 RES1    0.0000
     22 H4         4.0249    1.2631    2.9929 H         1 RES1    0.0000
     23 H5         4.3238    3.6469    2.6780 H         1 RES1    0.0000
     24 H6         1.2763    4.4590    5.4709 H         1 RES1    0.0000
     25 H7         2.3096    6.3569    5.4624 H         1 RES1    0.0000
     26 H8         1.3227    6.5364    4.1165 H         1 RES1    0.0000
     27 H9         2.7748    7.4404    4.2825 H         1 RES1    0.0000
@<TRIPOS>BOND
     1    1    2 1
     2    2    3 2
     3    3   12 1
     4    4    5 ar
     5    5   11 ar
     6    6    7 ar
     7    7    8 ar
     8    8    9 ar
     9    9   10 ar
    10   10   11 ar
    11   11    6 ar
    12   12   10 ar
    13   13    1 1
    14   14    2 1
    15   15   14 2
    16   16   14 2
    17   17    8 1
    18   18   17 1
    19   19    3 1
    20   20    4 1
    21   21    5 1
    22   22    6 1
    23   23    7 1
    24   24    9 1
    25   25   18 1
    26   26   18 1
    27   27   18 1
    28    4   13 ar
    29   12   13 ar
@<TRIPOS>SUBSTRUCTURE
     1 RES1 1

@<TRIPOS>CRYSIN
   9.4000   10.9450   10.7390  90.0000  97.8000  90.0000  14 1

