# MOL2 file generated by ConQuest
# Please check atom types

@<TRIPOS>MOLECULE
CAFCUK01
    92    94     2
SMALL
NO_CHARGES
****
Generated from CSD

@<TRIPOS>ATOM
      1 O1        -0.1686    4.7134    9.5116 O.2       1 RES1    0.0000
      2 N1        -0.5793    3.5278    9.7154 N.pl3     1 RES1    0.0000
      3 C1        -1.3430    3.1441   10.9451 C.3       1 RES1    0.0000
      4 C2        -2.2584    4.2575   11.3985 C.3       1 RES1    0.0000
      5 H1        -2.7325    3.9816   12.1868 H         1 RES1    0.0000
      6 H2        -1.7362    5.0389   11.5955 H         1 RES1    0.0000
      7 H3        -2.8862    4.4601   10.7006 H         1 RES1    0.0000
      8 C3        -0.2752    2.8358   12.0291 C.3       1 RES1    0.0000
      9 H4        -0.7123    2.5815   12.8466 H         1 RES1    0.0000
     10 H5         0.2867    2.1169   11.7302 H         1 RES1    0.0000
     11 H6         0.2594    3.6173   12.1822 H         1 RES1    0.0000
     12 C4        -2.0242    1.8690   10.4533 C.3       1 RES1    0.0000
     13 C5        -2.2488    0.7653   11.4695 C.3       1 RES1    0.0000
     14 H7        -2.8833    1.0606   12.1275 H         1 RES1    0.0000
     15 H8        -2.5901   -0.0140   11.0248 H         1 RES1    0.0000
     16 H9        -1.4182    0.5519   11.8992 H         1 RES1    0.0000
     17 C6        -3.3263    2.1870    9.6474 C.3       1 RES1    0.0000
     18 H10       -3.1482    2.8876    9.0157 H         1 RES1    0.0000
     19 H11       -3.6128    1.4001    9.1801 H         1 RES1    0.0000
     20 H12       -4.0156    2.4694   10.2531 H         1 RES1    0.0000
     21 N2        -1.0280    1.4195    9.4075 N.pl3     1 RES1    0.0000
     22 O2        -0.9742    0.2436    8.9223 O.2       1 RES1    0.0000
     23 C7        -0.3565    2.4801    8.9360 C.2       1 RES1    0.0000
     24 C8         0.4904    2.4413    7.7454 C.2       1 RES1    0.0000
     25 C9         1.9746    2.4985    7.6801 C.3       1 RES1    0.0000
     26 C10        2.5695    3.8339    8.0796 C.3       1 RES1    0.0000
     27 H13        2.4435    3.9719    9.0225 H         1 RES1    0.0000
     28 H14        3.5069    3.8393    7.8787 H         1 RES1    0.0000
     29 H15        2.1336    4.5367    7.5934 H         1 RES1    0.0000
     30 C11        2.6203    1.3462    8.4719 C.3       1 RES1    0.0000
     31 H16        2.5012    1.4982    9.4129 H         1 RES1    0.0000
     32 H17        2.2050    0.5163    8.2258 H         1 RES1    0.0000
     33 H18        3.5577    1.3064    8.2714 H         1 RES1    0.0000
     34 N3         2.1567    2.2656    6.2338 N.3       1 RES1    0.0000
     35 O3         3.3094    2.2301    5.7026 O.2       1 RES1    0.0000
     36 C12        0.9547    2.0393    5.4829 C.3       1 RES1    0.0000
     37 C13        0.7585    3.0924    4.4325 C.3       1 RES1    0.0000
     38 H19       -0.0515    2.9145    3.9474 H         1 RES1    0.0000
     39 H20        0.6983    3.9546    4.8514 H         1 RES1    0.0000
     40 H21        1.5026    3.0816    3.8264 H         1 RES1    0.0000
     41 C14        0.9052    0.6219    4.9567 C.3       1 RES1    0.0000
     42 H22        0.0938    0.4926    4.4588 H         1 RES1    0.0000
     43 H23        1.6590    0.4667    4.3834 H         1 RES1    0.0000
     44 H24        0.9300    0.0054    5.6939 H         1 RES1    0.0000
     45 N4        -0.0477    2.1999    6.5852 N.pl3     1 RES1    0.0000
     46 O4        -1.2886    2.0727    6.3254 O.2       1 RES1    0.0000
     47 O5         6.9067    0.2145    4.0177 O.2       2 RES2    0.0000
     48 N5         7.3521    1.3764    4.1010 N.pl3     2 RES2    0.0000
     49 C15        8.1554    1.8194    5.2722 C.3       2 RES2    0.0000
     50 C16        7.1427    2.2559    6.3436 C.3       2 RES2    0.0000
     51 H25        7.6143    2.5523    7.1253 H         2 RES2    0.0000
     52 H26        6.6054    2.9738    6.0021 H         2 RES2    0.0000
     53 H27        6.5781    1.5144    6.5728 H         2 RES2    0.0000
     54 C17        9.0025    0.6640    5.8103 C.3       2 RES2    0.0000
     55 H28        9.5138    0.9668    6.5637 H         2 RES2    0.0000
     56 H29        8.4269   -0.0550    6.0820 H         2 RES2    0.0000
     57 H30        9.5972    0.3568    5.1231 H         2 RES2    0.0000
     58 C18        8.9461    2.9695    4.6327 C.3       2 RES2    0.0000
     59 C19       10.1959    2.5125    3.8912 C.3       2 RES2    0.0000
     60 H31       10.8621    2.2387    4.5250 H         2 RES2    0.0000
     61 H32        9.9766    1.7741    3.3195 H         2 RES2    0.0000
     62 H33       10.5371    3.2379    3.3629 H         2 RES2    0.0000
     63 C20        9.2436    4.1357    5.5480 C.3       2 RES2    0.0000
     64 H34        9.8673    3.8598    6.2235 H         2 RES2    0.0000
     65 H35        9.6205    4.8546    5.0364 H         2 RES2    0.0000
     66 H36        8.4310    4.4310    5.9656 H         2 RES2    0.0000
     67 N6         7.9770    3.3726    3.5736 N.pl3     2 RES2    0.0000
     68 O6         8.0262    4.4828    2.9631 O.2       2 RES2    0.0000
     69 C21        7.1944    2.3314    3.2257 C.2       2 RES2    0.0000
     70 C22        6.3691    2.3109    2.0419 C.2       2 RES2    0.0000
     71 C23        4.8780    2.3885    1.9938 C.3       2 RES2    0.0000
     72 C24        4.3491    3.6485    2.6821 C.3       2 RES2    0.0000
     73 H37        4.4835    3.5752    3.6300 H         2 RES2    0.0000
     74 H38        4.8219    4.4160    2.3515 H         2 RES2    0.0000
     75 H39        3.4130    3.7455    2.4976 H         2 RES2    0.0000
     76 C25        4.1832    1.1425    2.5305 C.3       2 RES2    0.0000
     77 H40        4.3122    1.0876    3.4793 H         2 RES2    0.0000
     78 H41        3.2444    1.1899    2.3378 H         2 RES2    0.0000
     79 H42        4.5559    0.3632    2.1118 H         2 RES2    0.0000
     80 N7         4.6845    2.4780    0.5438 N.3       2 RES2    0.0000
     81 O7         3.5412    2.5523    0.0080 O.2       2 RES2    0.0000
     82 C26        5.9138    2.4758   -0.2466 C.3       2 RES2    0.0000
     83 C27        5.9740    1.3107   -1.1778 C.3       2 RES2    0.0000
     84 H43        6.7935    1.3441   -1.6780 H         2 RES2    0.0000
     85 H44        5.9412    0.4958   -0.6735 H         2 RES2    0.0000
     86 H45        5.2283    1.3441   -1.7808 H         2 RES2    0.0000
     87 C28        6.1124    3.8102   -0.9475 C.3       2 RES2    0.0000
     88 H46        6.9237    3.7843   -1.4589 H         2 RES2    0.0000
     89 H47        5.3709    3.9773   -1.5342 H         2 RES2    0.0000
     90 H48        6.1673    4.5097   -0.2922 H         2 RES2    0.0000
     91 N8         6.9098    2.3486    0.8634 N.pl3     2 RES2    0.0000
     92 O8         8.1375    2.2915    0.5778 O.2       2 RES2    0.0000
@<TRIPOS>BOND
     1    1    2 1
     2    2    3 1
     3    3    4 1
     4    4    5 1
     5    6    4 1
     6    7    4 1
     7    8    3 1
     8    9    8 1
     9   10    8 1
    10   11    8 1
    11   12    3 1
    12   13   12 1
    13   14   13 1
    14   15   13 1
    15   16   13 1
    16   17   12 1
    17   18   17 1
    18   19   17 1
    19   20   17 1
    20   21   12 1
    21   22   21 1
    22   23    2 2
    23   24   23 1
    24   25   24 1
    25   26   25 1
    26   27   26 1
    27   28   26 1
    28   29   26 1
    29   30   25 1
    30   31   30 1
    31   32   30 1
    32   33   30 1
    33   34   25 1
    34   35   34 1
    35   36   34 1
    36   37   36 1
    37   38   37 1
    38   39   37 1
    39   40   37 1
    40   41   36 1
    41   42   41 1
    42   43   41 1
    43   44   41 1
    44   45   24 2
    45   46   45 1
    46   47   48 1
    47   48   49 1
    48   49   50 1
    49   50   51 1
    50   52   50 1
    51   53   50 1
    52   54   49 1
    53   55   54 1
    54   56   54 1
    55   57   54 1
    56   58   49 1
    57   59   58 1
    58   60   59 1
    59   61   59 1
    60   62   59 1
    61   63   58 1
    62   64   63 1
    63   65   63 1
    64   66   63 1
    65   67   58 1
    66   68   67 1
    67   69   48 2
    68   70   69 1
    69   71   70 1
    70   72   71 1
    71   73   72 1
    72   74   72 1
    73   75   72 1
    74   76   71 1
    75   77   76 1
    76   78   76 1
    77   79   76 1
    78   80   71 1
    79   81   80 1
    80   82   80 1
    81   83   82 1
    82   84   83 1
    83   85   83 1
    84   86   83 1
    85   87   82 1
    86   88   87 1
    87   89   87 1
    88   90   87 1
    89   91   70 2
    90   92   91 1
    91   21   23 1
    92   36   45 1
    93   67   69 1
    94   82   91 1
@<TRIPOS>SUBSTRUCTURE
     1 RES1 1
     2 RES2 47

@<TRIPOS>CRYSIN
  13.7053   10.7785   22.8303  90.0000  89.9920  90.0000  14 1

