# MOL2 file generated by ConQuest
# Please check atom types

@<TRIPOS>MOLECULE
CAGFUO
    56    60     1
SMALL
NO_CHARGES
****
Generated from CSD

@<TRIPOS>ATOM
      1 C1         4.4056    9.0676    9.0022 C.ar      1 RES1    0.0000
      2 C2         5.0843   10.2169    8.9834 C.ar      1 RES1    0.0000
      3 H1         6.0148   10.2129    8.9661 H         1 RES1    0.0000
      4 C3         4.3907   11.4150    8.9877 C.ar      1 RES1    0.0000
      5 H2         4.8534   12.2213    8.9935 H         1 RES1    0.0000
      6 C4         3.0006   11.4140    8.9834 C.ar      1 RES1    0.0000
      7 C5         2.2917   10.2060    9.0022 C.ar      1 RES1    0.0000
      8 C6         3.0262    9.0556    9.0310 C.ar      1 RES1    0.0000
      9 H3         2.5833    8.2393    9.0713 H         1 RES1    0.0000
     10 C7         0.7964   10.2527    8.9474 C.3       1 RES1    0.0000
     11 H4         0.4581   10.8940    9.6075 H         1 RES1    0.0000
     12 C8         0.2582   10.5997    7.5566 C.3       1 RES1    0.0000
     13 H5        -0.1947   11.4567    7.5623 H         1 RES1    0.0000
     14 H6         0.9750   10.6265    6.9022 H         1 RES1    0.0000
     15 C9        -0.6909    9.4941    7.2611 C.2       1 RES1    0.0000
     16 C10       -0.0863    8.4680   10.4593 C.ar      1 RES1    0.0000
     17 C11       -0.9026    7.3724   10.6366 C.ar      1 RES1    0.0000
     18 H7        -1.2495    6.9359    9.8914 H         1 RES1    0.0000
     19 C12       -1.2081    6.9240   11.8660 C.ar      1 RES1    0.0000
     20 H8        -1.7661    6.1842   11.9524 H         1 RES1    0.0000
     21 C13       -0.7231    7.5225   12.9829 C.ar      1 RES1    0.0000
     22 H9        -0.9616    7.2163   13.8275 H         1 RES1    0.0000
     23 C14        0.1418    8.6082   12.8388 C.ar      1 RES1    0.0000
     24 H10        0.5035    9.0248   13.5868 H         1 RES1    0.0000
     25 C15        0.4567    9.0616   11.5618 C.ar      1 RES1    0.0000
     26 H11        1.0454    9.7755   11.4581 H         1 RES1    0.0000
     27 C16        2.8549   13.7942    8.8869 C.3       1 RES1    0.0000
     28 H12        3.3713   13.8608    8.0697 H         1 RES1    0.0000
     29 H13        3.4491   13.9334    9.6406 H         1 RES1    0.0000
     30 C17        1.7697   14.8004    8.8941 C.3       1 RES1    0.0000
     31 H14        2.1486   15.6803    8.8350 H         1 RES1    0.0000
     32 H15        1.1902   14.6503    8.1432 H         1 RES1    0.0000
     33 H16        1.2655   14.7229    9.7084 H         1 RES1    0.0000
     34 N1         5.1452    7.8297    8.9978 N.pl3     1 RES1    0.0000
     35 N2         0.2000    8.9254    9.1823 N.3       1 RES1    0.0000
     36 N3        -0.7103    8.5923    8.1734 N.2       1 RES1    0.0000
     37 O1         6.3545    7.8725    8.9618 O.2       1 RES1    0.0000
     38 O2         4.5302    6.7967    9.0079 O.2       1 RES1    0.0000
     39 O3         2.2290   12.5077    8.9762 O.3       1 RES1    0.0000
     40 C18       -1.4808    9.4513    5.9928 C.ar      1 RES1    0.0000
     41 C19       -1.3117   10.5003    5.1151 C.ar      1 RES1    0.0000
     42 H17       -0.7345   11.1873    5.3601 H         1 RES1    0.0000
     43 C20       -1.9644   10.5927    3.8612 C.ar      1 RES1    0.0000
     44 H18       -1.8434   11.3245    3.3005 H         1 RES1    0.0000
     45 C21       -2.7565    9.5846    3.5297 C.ar      1 RES1    0.0000
     46 H19       -3.1507    9.6084    2.6880 H         1 RES1    0.0000
     47 C22       -3.0467    8.4790    4.3526 C.ar      1 RES1    0.0000
     48 C23       -2.3759    8.4432    5.6411 C.ar      1 RES1    0.0000
     49 C24       -2.6616    7.3704    6.4208 C.ar      1 RES1    0.0000
     50 H20       -2.2656    7.2938    7.2582 H         1 RES1    0.0000
     51 C25       -3.5468    6.3741    5.9841 C.ar      1 RES1    0.0000
     52 H21       -3.7299    5.6344    6.5174 H         1 RES1    0.0000
     53 C26       -4.1506    6.5183    4.7230 C.ar      1 RES1    0.0000
     54 H22       -4.7563    5.8641    4.4578 H         1 RES1    0.0000
     55 C27       -3.9115    7.5513    3.8568 C.ar      1 RES1    0.0000
     56 H23       -4.3010    7.6140    3.0151 H         1 RES1    0.0000
@<TRIPOS>BOND
     1    1    2 ar
     2    2    3 1
     3    4    2 ar
     4    5    4 1
     5    6    4 ar
     6    7    6 ar
     7    8    1 ar
     8    9    8 1
     9   10    7 1
    10   11   10 1
    11   12   10 1
    12   13   12 1
    13   14   12 1
    14   15   12 1
    15   16   17 ar
    16   17   18 1
    17   19   17 ar
    18   20   19 1
    19   21   19 ar
    20   22   21 1
    21   23   21 ar
    22   24   23 1
    23   25   16 ar
    24   26   25 1
    25   27   28 1
    26   29   27 1
    27   30   27 1
    28   31   30 1
    29   32   30 1
    30   33   30 1
    31   34    1 1
    32   35   10 1
    33   36   15 2
    34   37   34 2
    35   38   34 2
    36   39    6 1
    37   40   15 1
    38   41   40 ar
    39   42   41 1
    40   43   41 ar
    41   44   43 1
    42   45   43 ar
    43   46   45 1
    44   47   45 ar
    45   48   40 ar
    46   49   48 ar
    47   50   49 1
    48   51   49 ar
    49   52   51 1
    50   53   51 ar
    51   54   53 1
    52   55   47 ar
    53   56   55 1
    54    7    8 ar
    55   16   35 1
    56   23   25 ar
    57   27   39 1
    58   35   36 1
    59   47   48 ar
    60   53   55 ar
@<TRIPOS>SUBSTRUCTURE
     1 RES1 1

@<TRIPOS>CRYSIN
  15.8696    9.9425   15.5068  90.0000 111.6520  90.0000  14 1

