# MOL2 file generated by ConQuest
# Please check atom types

@<TRIPOS>MOLECULE
CAGGUN
    48    52     2
SMALL
USER_CHARGES
****
Generated from CSD

@<TRIPOS>ATOM
      1 N1         1.0390    6.7996    0.2100 N.pl3     1 RES1    0.0000
      2 N2         1.0047    8.1557    0.0987 N.2       1 RES1    0.0000
      3 N3         0.5287    8.3872   -1.1069 N.pl3     1 RES1    1.0000
      4 C1         0.2398    7.2325   -1.7559 C.ar      1 RES1    0.0000
      5 C2        -0.2640    7.0459   -3.0811 C.ar      1 RES1    0.0000
      6 H1        -0.4636    7.7763   -3.6545 H         1 RES1    0.0000
      7 C3        -0.4387    5.7557   -3.4676 C.ar      1 RES1    0.0000
      8 H2        -0.7721    5.5840   -4.3413 H         1 RES1    0.0000
      9 C4        -0.1455    4.6570   -2.6275 C.ar      1 RES1    0.0000
     10 H3        -0.3115    3.7749   -2.9383 H         1 RES1    0.0000
     11 C5         0.3839    4.8499   -1.3505 C.ar      1 RES1    0.0000
     12 H4         0.5923    4.1258   -0.7729 H         1 RES1    0.0000
     13 C6         0.5857    6.1787   -0.9808 C.ar      1 RES1    0.0000
     14 O1         0.3451    9.5965   -1.5351 O.2       1 RES1   -1.0000
     15 N4         1.5896    4.8959    1.3988 N.ar      1 RES1    0.0000
     16 C7         1.5326    6.2110    1.3694 C.ar      1 RES1    0.0000
     17 C8         1.8967    7.0310    2.5036 C.ar      1 RES1    0.0000
     18 H5         1.8236    7.9778    2.4826 H         1 RES1    0.0000
     19 C9         2.3647    6.3541    3.6398 C.ar      1 RES1    0.0000
     20 H6         2.6221    6.8468    4.4106 H         1 RES1    0.0000
     21 C10        2.4524    4.9967    3.6461 C.ar      1 RES1    0.0000
     22 H7         2.7764    4.5376    4.4127 H         1 RES1    0.0000
     23 C11        2.0620    4.2975    2.5225 C.ar      1 RES1    0.0000
     24 H8         2.1263    3.3494    2.5351 H         1 RES1    0.0000
     25 N5         0.7890   11.8547    3.4886 N.pl3     2 RES2    0.0000
     26 N6         0.8862   10.4923    3.5894 N.2       2 RES2    0.0000
     27 N7         1.4017   10.2833    4.7950 N.pl3     2 RES2    1.0000
     28 C12        1.6101   11.4392    5.5112 C.ar      2 RES2    0.0000
     29 C13        2.1461   11.6855    6.8050 C.ar      2 RES2    0.0000
     30 H9         2.4188   10.9850    7.3868 H         2 RES2    0.0000
     31 C14        2.2397   13.0006    7.1452 C.ar      2 RES2    0.0000
     32 H10        2.5965   13.2209    7.9979 H         2 RES2    0.0000
     33 C15        1.8368   14.0420    6.3072 C.ar      2 RES2    0.0000
     34 H11        1.9252   14.9354    6.6180 H         2 RES2    0.0000
     35 C16        1.3315   13.8367    5.0848 C.ar      2 RES2    0.0000
     36 H12        1.0471   14.5671    4.5492 H         2 RES2    0.0000
     37 C17        1.2277   12.4893    4.5997 C.ar      2 RES2    0.0000
     38 O2         1.6284    9.0988    5.2360 O.2       2 RES2   -1.0000
     39 N8         0.1748   13.7434    2.2767 N.ar      2 RES2    0.0000
     40 C18        0.2910   12.4233    2.2200 C.ar      2 RES2    0.0000
     41 C19       -0.0336   11.5885    1.1972 C.ar      2 RES2    0.0000
     42 H13        0.0556   10.6454    1.2518 H         2 RES2    0.0000
     43 C20       -0.5067   12.2355    0.0651 C.ar      2 RES2    0.0000
     44 H14       -0.7436   11.7229   -0.6994 H         2 RES2    0.0000
     45 C21       -0.6383   13.5916    0.0231 C.ar      2 RES2    0.0000
     46 H15       -0.9586   14.0308   -0.7561 H         2 RES2    0.0000
     47 C22       -0.2866   14.3108    1.1615 C.ar      2 RES2    0.0000
     48 H16       -0.3810   15.2564    1.1447 H         2 RES2    0.0000
@<TRIPOS>BOND
     1    1    2 1
     2    2    3 2
     3    3    4 1
     4    4    5 ar
     5    5    6 1
     6    7    5 ar
     7    8    7 1
     8    9    7 ar
     9   10    9 1
    10   11    9 ar
    11   12   11 1
    12   13    1 1
    13   14    3 1
    14   15   16 ar
    15   16    1 1
    16   17   16 ar
    17   18   17 1
    18   19   17 ar
    19   20   19 1
    20   21   19 ar
    21   22   21 1
    22   23   15 ar
    23   24   23 1
    24   25   26 1
    25   26   27 2
    26   27   28 1
    27   28   29 ar
    28   29   30 1
    29   31   29 ar
    30   32   31 1
    31   33   31 ar
    32   34   33 1
    33   35   33 ar
    34   36   35 1
    35   37   25 1
    36   38   27 1
    37   39   40 ar
    38   40   25 1
    39   41   40 ar
    40   42   41 1
    41   43   41 ar
    42   44   43 1
    43   45   43 ar
    44   46   45 1
    45   47   39 ar
    46   48   47 1
    47    4   13 ar
    48   11   13 ar
    49   21   23 ar
    50   28   37 ar
    51   35   37 ar
    52   45   47 ar
@<TRIPOS>SUBSTRUCTURE
     1 RES1 1
     2 RES2 25

@<TRIPOS>CRYSIN
   7.3120   12.4420   21.0030  90.0000  90.0000  90.0000  29 1

