# MOL2 file generated by ConQuest
# Please check atom types

@<TRIPOS>MOLECULE
CAGGOH
    30    33     1
SMALL
USER_CHARGES
****
Generated from CSD

@<TRIPOS>ATOM
      1 O1        11.5763    2.8525    4.5780 O.2       1 RES1   -1.0000
      2 C1        10.2174    1.6510    6.0166 C.ar      1 RES1    0.0000
      3 N1        11.4282    2.1140    5.6391 N.pl3     1 RES1    1.0000
      4 C2        12.5574    1.8393    6.3930 C.ar      1 RES1    0.0000
      5 H1        13.4069    2.1287    6.0847 H         1 RES1    0.0000
      6 C3        12.4694    1.1702    7.5569 C.ar      1 RES1    0.0000
      7 H2        13.2580    1.0009    8.0603 H         1 RES1    0.0000
      8 C4        11.2167    0.7135    8.0418 C.ar      1 RES1    0.0000
      9 C5        11.0804    0.0270    9.2703 C.ar      1 RES1    0.0000
     10 H3        11.8516   -0.1574    9.7945 H         1 RES1    0.0000
     11 C6         9.8483   -0.3746    9.7090 C.ar      1 RES1    0.0000
     12 H4         9.7729   -0.8380   10.5346 H         1 RES1    0.0000
     13 C7         8.6968   -0.1090    8.9528 C.ar      1 RES1    0.0000
     14 H5         7.8429   -0.3690    9.2807 H         1 RES1    0.0000
     15 C8         8.8002    0.5308    7.7300 C.ar      1 RES1    0.0000
     16 H6         8.0200    0.6878    7.2105 H         1 RES1    0.0000
     17 C9        10.0564    0.9506    7.2520 C.ar      1 RES1    0.0000
     18 N2         9.1656    1.8777    5.1160 N.pl3     1 RES1    0.0000
     19 N3         7.9920    2.5013    5.5340 N.2       1 RES1    0.0000
     20 N4         7.2183    2.6448    4.5214 N.2       1 RES1    0.0000
     21 C10        7.8558    2.1334    3.3968 C.ar      1 RES1    0.0000
     22 C11        7.4156    2.0771    2.0621 C.ar      1 RES1    0.0000
     23 H7         6.5700    2.4196    1.7966 H         1 RES1    0.0000
     24 C12        8.2818    1.4968    1.1627 C.ar      1 RES1    0.0000
     25 H8         8.0251    1.4381    0.2494 H         1 RES1    0.0000
     26 C13        9.5278    0.9906    1.5495 C.ar      1 RES1    0.0000
     27 H9        10.0808    0.5871    0.8902 H         1 RES1    0.0000
     28 C14        9.9871    1.0532    2.8496 C.ar      1 RES1    0.0000
     29 H10       10.8353    0.7147    3.1082 H         1 RES1    0.0000
     30 C15        9.1094    1.6522    3.7594 C.ar      1 RES1    0.0000
@<TRIPOS>BOND
     1    1    3 1
     2    2    3 ar
     3    3    4 ar
     4    4    5 1
     5    6    4 ar
     6    7    6 1
     7    8    6 ar
     8    9    8 ar
     9   10    9 1
    10   11    9 ar
    11   12   11 1
    12   13   11 ar
    13   14   13 1
    14   15   13 ar
    15   16   15 1
    16   17    2 ar
    17   18    2 1
    18   19   18 1
    19   20   19 2
    20   21   20 1
    21   22   21 ar
    22   23   22 1
    23   24   22 ar
    24   25   24 1
    25   26   24 ar
    26   27   26 1
    27   28   26 ar
    28   29   28 1
    29   30   18 1
    30    8   17 ar
    31   15   17 ar
    32   21   30 ar
    33   28   30 ar
@<TRIPOS>SUBSTRUCTURE
     1 RES1 1

@<TRIPOS>CRYSIN
  25.6640    3.9640   11.5460  90.0000  90.0000  90.0000  29 1

