# MOL2 file generated by ConQuest
# Please check atom types

@<TRIPOS>MOLECULE
CAGGIB
    27    29     1
SMALL
USER_CHARGES
****
Generated from CSD

@<TRIPOS>ATOM
      1 O1         1.4812    6.7957    0.9483 O.2       1 RES1   -1.0000
      2 N1         1.9527    7.2031   -0.2068 N.pl3     1 RES1    1.0000
      3 C1         2.4021    8.4676   -0.3781 C.ar      1 RES1    0.0000
      4 C2         2.8690    8.9067   -1.6127 C.ar      1 RES1    0.0000
      5 H1         3.1970    9.7943   -1.7020 H         1 RES1    0.0000
      6 C3         2.8614    8.0438   -2.7396 C.ar      1 RES1    0.0000
      7 C4         2.4097    6.7217   -2.4900 C.ar      1 RES1    0.0000
      8 H2         2.4089    6.0901   -3.2009 H         1 RES1    0.0000
      9 C5         1.9792    6.3354   -1.2628 C.ar      1 RES1    0.0000
     10 H3         1.6885    5.4408   -1.1343 H         1 RES1    0.0000
     11 C6         3.3443    8.4934   -4.0783 C.3       1 RES1    0.0000
     12 H4         4.2705    8.8057   -4.0036 H         1 RES1    0.0000
     13 H5         2.7779    9.2249   -4.4001 H         1 RES1    0.0000
     14 H6         3.3018    7.7444   -4.7096 H         1 RES1    0.0000
     15 N2         2.3156    9.3705    0.6962 N.pl3     1 RES1    0.0000
     16 N3         1.8001   10.6456    0.4368 N.2       1 RES1    0.0000
     17 N4         1.8684   11.3512    1.5283 N.2       1 RES1    0.0000
     18 C7         2.4089   10.5681    2.5390 C.ar      1 RES1    0.0000
     19 C8         2.6891   10.8863    3.8739 C.ar      1 RES1    0.0000
     20 H7         2.4811   11.7375    4.2410 H         1 RES1    0.0000
     21 C9         3.2706    9.9153    4.6081 C.ar      1 RES1    0.0000
     22 H8         3.4680   10.1078    5.5172 H         1 RES1    0.0000
     23 C10        3.6047    8.6390    4.1260 C.ar      1 RES1    0.0000
     24 H9         4.0344    8.0109    4.6937 H         1 RES1    0.0000
     25 C11        3.3002    8.2974    2.7984 C.ar      1 RES1    0.0000
     26 H10        3.4764    7.4309    2.4521 H         1 RES1    0.0000
     27 C12        2.7225    9.3059    2.0116 C.ar      1 RES1    0.0000
@<TRIPOS>BOND
     1    1    2 1
     2    2    3 ar
     3    3    4 ar
     4    4    5 1
     5    6    4 ar
     6    7    6 ar
     7    8    7 1
     8    9    2 ar
     9   10    9 1
    10   11    6 1
    11   12   11 1
    12   13   11 1
    13   14   11 1
    14   15    3 1
    15   16   15 1
    16   17   16 2
    17   18   17 1
    18   19   18 ar
    19   20   19 1
    20   21   19 ar
    21   22   21 1
    22   23   21 ar
    23   24   23 1
    24   25   23 ar
    25   26   25 1
    26   27   15 1
    27    7    9 ar
    28   18   27 ar
    29   25   27 ar
@<TRIPOS>SUBSTRUCTURE
     1 RES1 1

@<TRIPOS>CRYSIN
   7.5920   11.7410   12.2360  90.0000  90.0000  90.0000  19 1

