# MOL2 file generated by ConQuest
# Please check atom types

@<TRIPOS>MOLECULE
CAGHAU
    30    33     1
SMALL
USER_CHARGES
****
Generated from CSD

@<TRIPOS>ATOM
      1 N1         7.6663   -0.5305   12.0252 N.pl3     1 RES1    0.0000
      2 N2         6.7614    0.4891   12.1911 N.2       1 RES1    0.0000
      3 N3         6.2918    0.3452   13.4065 N.pl3     1 RES1    1.0000
      4 O1         5.4097    1.1316   13.9008 O.2       1 RES1   -1.0000
      5 C1         6.8585   -0.7396   14.0619 C.ar      1 RES1    0.0000
      6 C2         6.6740   -1.1889   15.3637 C.ar      1 RES1    0.0000
      7 H1         6.0522   -0.7827   15.9569 H         1 RES1    0.0000
      8 C3         7.4531   -2.2639   15.7379 C.ar      1 RES1    0.0000
      9 H2         7.3737   -2.6192   16.6164 H         1 RES1    0.0000
     10 C4         8.3685   -2.8423   14.8300 C.ar      1 RES1    0.0000
     11 H3         8.8964   -3.5729   15.1297 H         1 RES1    0.0000
     12 C5         8.5369   -2.4069   13.5399 C.ar      1 RES1    0.0000
     13 H4         9.1476   -2.8213   12.9422 H         1 RES1    0.0000
     14 C6         7.7496   -1.3105   13.1627 C.ar      1 RES1    0.0000
     15 N4         9.1122   -1.6896   10.6552 N.ar      1 RES1    0.0000
     16 C7         8.4066   -0.5939   10.8174 C.ar      1 RES1    0.0000
     17 C8         8.3642    0.4960    9.9174 C.ar      1 RES1    0.0000
     18 H5         7.8418    1.2681   10.1039 H         1 RES1    0.0000
     19 C9         9.0960    0.4005    8.7768 C.ar      1 RES1    0.0000
     20 H6         9.0810    1.1094    8.1449 H         1 RES1    0.0000
     21 C10        9.8815   -0.7522    8.5272 C.ar      1 RES1    0.0000
     22 C11       10.6943   -0.9095    7.3803 C.ar      1 RES1    0.0000
     23 H7        10.7005   -0.2342    6.7127 H         1 RES1    0.0000
     24 C12       11.4715   -2.0250    7.2247 C.ar      1 RES1    0.0000
     25 H8        12.0161   -2.1197    6.4515 H         1 RES1    0.0000
     26 C13       11.4646   -3.0306    8.2072 C.ar      1 RES1    0.0000
     27 H9        12.0072   -3.8023    8.0905 H         1 RES1    0.0000
     28 C14       10.6902   -2.9164    9.3282 C.ar      1 RES1    0.0000
     29 H10       10.7002   -3.6040    9.9842 H         1 RES1    0.0000
     30 C15        9.8720   -1.7731    9.5149 C.ar      1 RES1    0.0000
@<TRIPOS>BOND
     1    1    2 1
     2    2    3 2
     3    3    4 1
     4    5    3 1
     5    6    5 ar
     6    7    6 1
     7    8    6 ar
     8    9    8 1
     9   10    8 ar
    10   11   10 1
    11   12   10 ar
    12   13   12 1
    13   14    1 1
    14   15   16 ar
    15   16    1 1
    16   17   16 ar
    17   18   17 1
    18   19   17 ar
    19   20   19 1
    20   21   19 ar
    21   22   21 ar
    22   23   22 1
    23   24   22 ar
    24   25   24 1
    25   26   24 ar
    26   27   26 1
    27   28   26 ar
    28   29   28 1
    29   30   15 ar
    30    5   14 ar
    31   12   14 ar
    32   21   30 ar
    33   28   30 ar
@<TRIPOS>SUBSTRUCTURE
     1 RES1 1

@<TRIPOS>CRYSIN
  11.8870    9.4420   21.9930  90.0000  98.2340  90.0000  15 1

