# MOL2 file generated by ConQuest
# Please check atom types

@<TRIPOS>MOLECULE
CAHDAT
    33    35     1
SMALL
NO_CHARGES
****
Generated from CSD

@<TRIPOS>ATOM
      1 O1         2.1891    1.7607    2.4689 O.3       1 RES1    0.0000
      2 O2         4.1096    2.8385    5.3571 O.3       1 RES1    0.0000
      3 N1         3.0415    2.4654    1.5403 N.3       1 RES1    0.0000
      4 C1         4.8856    2.4242    3.0969 C.ar      1 RES1    0.0000
      5 C2         5.7821    1.7229    2.2885 C.ar      1 RES1    0.0000
      6 H1         5.7350    1.8404    1.3675 H         1 RES1    0.0000
      7 C3         3.8379    3.3248    2.4597 C.3       1 RES1    0.0000
      8 C4         4.9743    2.2469    4.4644 C.ar      1 RES1    0.0000
      9 C5         6.8050    0.7186    4.1751 C.ar      1 RES1    0.0000
     10 H2         7.4452    0.1574    4.5493 H         1 RES1    0.0000
     11 C6         5.9374    1.3966    4.9987 C.ar      1 RES1    0.0000
     12 H3         5.9936    1.2851    5.9207 H         1 RES1    0.0000
     13 C7         2.8233    3.7959    3.5182 C.3       1 RES1    0.0000
     14 H4         2.4188    4.6361    3.2183 H         1 RES1    0.0000
     15 C8         6.7434    0.8573    2.7976 C.ar      1 RES1    0.0000
     16 C9         4.5064    4.4825    1.7186 C.3       1 RES1    0.0000
     17 H5         5.0308    4.1372    0.9927 H         1 RES1    0.0000
     18 H6         5.0767    4.9637    2.3236 H         1 RES1    0.0000
     19 H7         3.8340    5.0744    1.3741 H         1 RES1    0.0000
     20 C10        2.1686    3.1973    0.6185 C.3       1 RES1    0.0000
     21 H8         1.5655    2.5829    0.1933 H         1 RES1    0.0000
     22 H9         2.7019    3.6350   -0.0483 H         1 RES1    0.0000
     23 H10        1.6663    3.8531    1.1063 H         1 RES1    0.0000
     24 C11        3.4632    4.0160    4.8688 C.3       1 RES1    0.0000
     25 H11        4.1140    4.7318    4.8001 H         1 RES1    0.0000
     26 H12        2.7822    4.2914    5.5028 H         1 RES1    0.0000
     27 C12        7.6560    0.0904    1.8768 C.3       1 RES1    0.0000
     28 H13        7.2852    0.0830    0.9914 H         1 RES1    0.0000
     29 H14        7.7458   -0.8117    2.1943 H         1 RES1    0.0000
     30 H15        8.5191    0.5106    1.8586 H         1 RES1    0.0000
     31 C13        1.7684    2.6977    3.4782 C.3       1 RES1    0.0000
     32 H16        1.7031    2.2595    4.3416 H         1 RES1    0.0000
     33 H17        0.9014    3.0702    3.2536 H         1 RES1    0.0000
@<TRIPOS>BOND
     1    1    3 1
     2    2    8 1
     3    3    7 1
     4    4    5 ar
     5    5    6 1
     6    7    4 1
     7    8    4 ar
     8    9   10 1
     9   11    8 ar
    10   12   11 1
    11   13    7 1
    12   14   13 1
    13   15    5 ar
    14   16    7 1
    15   17   16 1
    16   18   16 1
    17   19   16 1
    18   20    3 1
    19   21   20 1
    20   22   20 1
    21   23   20 1
    22   24    2 1
    23   25   24 1
    24   26   24 1
    25   27   15 1
    26   28   27 1
    27   29   27 1
    28   30   27 1
    29   31    1 1
    30   32   31 1
    31   33   31 1
    32    9   11 ar
    33    9   15 ar
    34   13   24 1
    35   13   31 1
@<TRIPOS>SUBSTRUCTURE
     1 RES1 1

@<TRIPOS>CRYSIN
   8.4486   10.6381   13.5040  90.0000 104.7100  90.0000  14 1

