# MOL2 file generated by ConQuest
# Please check atom types

@<TRIPOS>MOLECULE
CAHDAQ
    32    32     2
SMALL
NO_CHARGES
****
Generated from CSD

@<TRIPOS>ATOM
      1 C1         8.3123   -2.0845   17.3075 C.ar      1 RES1    0.0000
      2 C2         9.0971   -2.7248   16.3660 C.ar      1 RES1    0.0000
      3 C3         9.1651   -2.2351   15.0685 C.ar      1 RES1    0.0000
      4 C4         8.4453   -1.1027   14.6989 C.ar      1 RES1    0.0000
      5 C5         7.6178   -0.4856   15.6463 C.ar      1 RES1    0.0000
      6 C6         7.5657   -0.9720   16.9438 C.ar      1 RES1    0.0000
      7 C7         8.5879   -0.5832   13.3352 C.2       1 RES1    0.0000
      8 N1         8.2272    0.6063   13.0414 N.2       1 RES1    0.0000
      9 O1         8.5012    0.9124   11.7022 O.3       1 RES1    0.0000
     10 H1         8.2840   -2.4402   18.1822 H         1 RES1    0.0000
     11 H2         9.6044   -3.4908   16.5764 H         1 RES1    0.0000
     12 H3         9.7153   -2.6801   14.4353 H         1 RES1    0.0000
     13 H4         7.0611    0.2812   15.3978 H         1 RES1    0.0000
     14 H5         7.0239   -0.4798   17.6047 H         1 RES1    0.0000
     15 H6         8.9919   -1.1664   12.6522 H         1 RES1    0.0000
     16 H7         8.0885    1.6958   11.5614 H         1 RES1    0.0000
     17 C8        11.2527    1.6743   14.4568 C.ar      2 RES2    0.0000
     18 C9        12.0648    2.0779   15.5042 C.ar      2 RES2    0.0000
     19 C10       13.3646    1.5990   15.6009 C.ar      2 RES2    0.0000
     20 C11       13.8559    0.6957   14.6609 C.ar      2 RES2    0.0000
     21 C12       13.0331    0.3011   13.5961 C.ar      2 RES2    0.0000
     22 C13       11.7412    0.7900   13.5015 C.ar      2 RES2    0.0000
     23 C14       15.2171    0.1729   14.8245 C.2       2 RES2    0.0000
     24 N2        15.5627   -0.9248   14.2693 N.2       2 RES2    0.0000
     25 O2        16.8982   -1.2540   14.5370 O.3       2 RES2    0.0000
     26 H8        10.3543    2.0266   14.3948 H         2 RES2    0.0000
     27 H9        11.7265    2.7132   16.1897 H         2 RES2    0.0000
     28 H10       13.9374    1.8777   16.3450 H         2 RES2    0.0000
     29 H11       13.3866   -0.2895   12.9139 H         2 RES2    0.0000
     30 H12       11.1961    0.5294   12.7586 H         2 RES2    0.0000
     31 H13       15.8308    0.6618   15.3758 H         2 RES2    0.0000
     32 H14       17.0299   -2.0184   14.0689 H         2 RES2    0.0000
@<TRIPOS>BOND
     1    1    2 ar
     2    2    3 ar
     3    3    4 ar
     4    4    5 ar
     5    5    6 ar
     6    6    1 ar
     7    7    4 1
     8    8    7 2
     9    9    8 1
    10   10    1 1
    11   11    2 1
    12   12    3 1
    13   13    5 1
    14   14    6 1
    15   15    7 1
    16   16    9 1
    17   17   18 ar
    18   18   19 ar
    19   19   20 ar
    20   20   21 ar
    21   21   22 ar
    22   22   17 ar
    23   23   20 1
    24   24   23 2
    25   25   24 1
    26   26   17 1
    27   27   18 1
    28   28   19 1
    29   29   21 1
    30   30   22 1
    31   31   23 1
    32   32   25 1
@<TRIPOS>SUBSTRUCTURE
     1 RES1 1
     2 RES2 17

@<TRIPOS>CRYSIN
  18.5000    8.2720   17.2240  90.0000 101.3800  90.0000  15 1

