# MOL2 file generated by ConQuest
# Please check atom types

@<TRIPOS>MOLECULE
CAHOAM
     9     8     1
SMALL
NO_CHARGES
****
Generated from CSD

@<TRIPOS>ATOM
      1 C1         5.3144    1.4413   -3.1508 C.2       1 RES1    0.0000
      2 H1         3.2091    3.4349   -2.8790 H         1 RES1    0.0000
      3 H2         2.5335    1.7915   -2.1593 H         1 RES1    0.0000
      4 H3         3.9438    1.3470   -4.6064 H         1 RES1    0.0000
      5 H4         5.3457    0.4445   -4.8943 H         1 RES1    0.0000
      6 N1         3.2142    2.4219   -2.8462 N.3       1 RES1    0.0000
      7 N2         4.7740    0.9362   -4.2477 N.am      1 RES1    0.0000
      8 O1         4.5789    2.2428   -2.3648 O.3       1 RES1    0.0000
      9 O2         6.4807    1.2460   -2.7713 O.2       1 RES1    0.0000
@<TRIPOS>BOND
     1    1    7 1
     2    2    6 1
     3    3    6 1
     4    4    7 1
     5    5    7 1
     6    6    8 1
     7    8    1 1
     8    9    1 2
@<TRIPOS>SUBSTRUCTURE
     1 RES1 1

@<TRIPOS>CRYSIN
   8.4450   13.4700    5.7580  90.0000  90.0000  90.0000  61 1

