# MOL2 file generated by ConQuest
# Please check atom types

@<TRIPOS>MOLECULE
CAJTAI
    24    26     1
SMALL
NO_CHARGES
****
Generated from CSD

@<TRIPOS>ATOM
      1 O1        -1.8936    1.9058    2.0452 O.2       1 RES1    0.0000
      2 O2         0.6436    1.6842   -3.3388 O.2       1 RES1    0.0000
      3 O3        -1.1944    1.9058   -2.1938 O.2       1 RES1    0.0000
      4 N1         0.7863    1.4724    1.2935 N.pl3     1 RES1    0.0000
      5 N2         0.0214    1.7463   -2.2725 N.pl3     1 RES1    0.0000
      6 C1         2.5814    1.2337    2.6104 C.2       1 RES1    0.0000
      7 C2         1.4498    1.3762    3.4320 C.2       1 RES1    0.0000
      8 C3         0.3268    1.5521    2.6250 C.2       1 RES1    0.0000
      9 C4         0.1170    1.6201    0.1136 C.2       1 RES1    0.0000
     10 C5         0.8020    1.6639   -1.0547 C.2       1 RES1    0.0000
     11 C6         2.1947    1.4920   -1.1013 C.2       1 RES1    0.0000
     12 C7         2.8511    1.2854    0.0670 C.2       1 RES1    0.0000
     13 C8         2.1733    1.2984    1.2819 C.2       1 RES1    0.0000
     14 C9         1.5440    1.3168    4.9207 C.ar      1 RES1    0.0000
     15 C10        2.0692    0.2870    5.5704 C.ar      1 RES1    0.0000
     16 C11        2.1933    0.2785    6.9747 C.ar      1 RES1    0.0000
     17 C12        1.8052    1.4632    7.6797 C.ar      1 RES1    0.0000
     18 C13        1.2872    2.4557    7.0242 C.ar      1 RES1    0.0000
     19 C14        1.1730    2.4910    5.6403 C.ar      1 RES1    0.0000
     20 C15       -1.0974    1.6535    2.9134 C.2       1 RES1    0.0000
     21 C16       -1.6025    1.3390    4.3060 C.3       1 RES1    0.0000
     22 H1         2.7113    1.3076   -2.0394 H         1 RES1    0.0000
     23 H2         3.9956    1.1768    0.2913 H         1 RES1    0.0000
     24 H3         2.2832   -0.3269    4.9528 H         1 RES1    0.0000
@<TRIPOS>BOND
     1    1   20 2
     2    2    5 2
     3    3    5 2
     4    4    8 1
     5    5   10 1
     6    6    7 1
     7    7    8 2
     8    8   20 1
     9    9    4 1
    10   10    9 2
    11   11   10 1
    12   12   11 2
    13   13    4 1
    14   14    7 1
    15   15   14 ar
    16   16   15 ar
    17   17   16 ar
    18   18   17 ar
    19   19   14 ar
    20   20   21 1
    21   22   11 1
    22   23   12 1
    23   24   15 1
    24    6   13 2
    25   12   13 1
    26   18   19 ar
@<TRIPOS>SUBSTRUCTURE
     1 RES1 1

@<TRIPOS>CRYSIN
  14.2700    6.5380   29.1340  90.0000  90.0000  90.0000  61 1

