# MOL2 file generated by ConQuest
# Please check atom types

@<TRIPOS>MOLECULE
CAJTIQ
    26    28     1
SMALL
NO_CHARGES
****
Generated from CSD

@<TRIPOS>ATOM
      1 O1         1.1768    4.8394   -0.4715 O.2       1 RES1    0.0000
      2 O2         0.6529    2.9800   -1.4484 O.2       1 RES1    0.0000
      3 N1         5.9096    1.5112    1.5365 N.2       1 RES1    0.0000
      4 N2         1.3786    3.6592   -0.7312 N.pl3     1 RES1    0.0000
      5 N3         4.3515    3.1086    1.3109 N.pl3     1 RES1    0.0000
      6 C1         6.1847    2.5734    2.3836 C.2       1 RES1    0.0000
      7 C2         5.2508    3.5459    2.2631 C.2       1 RES1    0.0000
      8 C3         3.2366    3.7023    0.7945 C.2       1 RES1    0.0000
      9 C4         2.5516    3.0160   -0.1469 C.2       1 RES1    0.0000
     10 C5         2.9372    1.7367   -0.5982 C.2       1 RES1    0.0000
     11 C6         4.0560    1.1731   -0.0850 C.2       1 RES1    0.0000
     12 C7         4.8070    1.8482    0.8950 C.2       1 RES1    0.0000
     13 C8         7.3823    2.5640    3.2447 C.ar      1 RES1    0.0000
     14 C9         8.2249    1.4587    3.2586 C.ar      1 RES1    0.0000
     15 C10        9.3645    1.4599    4.0500 C.ar      1 RES1    0.0000
     16 C11        9.6640    2.5451    4.8260 C.ar      1 RES1    0.0000
     17 C12        8.8416    3.6415    4.8260 C.ar      1 RES1    0.0000
     18 C13        7.6921    3.6568    4.0469 C.ar      1 RES1    0.0000
     19 H1         5.1290    4.3844    2.6588 H         1 RES1    0.0000
     20 H2         2.9807    4.5556    1.1284 H         1 RES1    0.0000
     21 H3         4.3751    0.3777   -0.4019 H         1 RES1    0.0000
     22 H4         7.9824    0.6727    2.7206 H         1 RES1    0.0000
     23 H5         9.9319    0.6432    4.0037 H         1 RES1    0.0000
     24 H6        10.4390    2.5256    5.3640 H         1 RES1    0.0000
     25 H7         9.0710    4.4258    5.3331 H         1 RES1    0.0000
     26 H8         7.1120    4.4376    4.0346 H         1 RES1    0.0000
@<TRIPOS>BOND
     1    1    4 2
     2    2    4 2
     3    3    6 1
     4    4    9 1
     5    5    7 1
     6    6    7 2
     7    7   19 1
     8    8    5 1
     9    9    8 2
    10   10    9 1
    11   11   10 2
    12   12    3 2
    13   13    6 1
    14   14   13 ar
    15   15   14 ar
    16   16   15 ar
    17   17   16 ar
    18   18   13 ar
    19   20    8 1
    20   21   11 1
    21   22   14 1
    22   23   15 1
    23   24   16 1
    24   25   17 1
    25   26   18 1
    26    5   12 1
    27   11   12 1
    28   17   18 ar
@<TRIPOS>SUBSTRUCTURE
     1 RES1 1

@<TRIPOS>CRYSIN
  11.7310    5.9010   15.6190  90.0000  98.2300  90.0000  14 1

