# MOL2 file generated by ConQuest
# Please check atom types

@<TRIPOS>MOLECULE
CAKPUB
    28    25     2
SMALL
NO_CHARGES
****
Generated from CSD

@<TRIPOS>ATOM
      1 N1         0.6268   -1.5394    1.7942 N.ar      1 RES1    0.0000
      2 N2        -0.5307    0.3221    2.8145 N.ar      1 RES1    0.0000
      3 C1         0.5248    0.3832    3.6504 C.ar      1 RES1    0.0000
      4 C2         1.6380   -0.4378    3.6335 C.ar      1 RES1    0.0000
      5 C3         1.6685   -1.4442    2.6457 C.ar      1 RES1    0.0000
      6 N3         2.5123   -0.0956    4.6429 N.2       1 RES1    0.0000
      7 C4         1.9110    0.9143    5.2378 C.2       1 RES1    0.0000
      8 H1         2.2741    1.3565    5.9708 H         1 RES1    0.0000
      9 N4         0.7164    1.2540    4.6901 N.pl3     1 RES1    0.0000
     10 C5        -0.2003    2.2999    5.1321 C.3       1 RES1    0.0000
     11 H2         0.2380    2.8557    5.7805 H         1 RES1    0.0000
     12 H3        -0.9769    1.8980    5.5274 H         1 RES1    0.0000
     13 H4        -0.4641    2.8333    4.3791 H         1 RES1    0.0000
     14 N5         2.6903   -2.2959    2.5651 N.3       1 RES1    0.0000
     15 H5         3.4434   -2.2405    2.9973 H         1 RES1    0.0000
     16 O1         2.6804   -3.3292    1.6440 O.3       1 RES1    0.0000
     17 C6         3.2242   -2.8975    0.3969 C.3       1 RES1    0.0000
     18 H6         3.2458   -3.6370   -0.2156 H         1 RES1    0.0000
     19 H7         4.1164   -2.5700    0.5341 H         1 RES1    0.0000
     20 H8         2.6777   -2.1975    0.0343 H         1 RES1    0.0000
     21 C7        -0.3422   -0.6497    1.9649 C.ar      1 RES1    0.0000
     22 N6        -1.4547   -0.7903    0.9514 N.pl3     1 RES1    0.0000
     23 O2        -1.2246   -1.4201   -0.0645 O.2       1 RES1    0.0000
     24 O3        -2.5153   -0.2556    1.2022 O.2       1 RES1    0.0000
     25 C8        -0.3422   -0.6497    1.9649 Du        2 SUP2    0.0000
     26 N7        -1.4111   -0.8293    0.9147 Du        2 SUP2    0.0000
     27 O4        -1.4621   -1.8971    0.3348 Du        2 SUP2    0.0000
     28 O5        -2.2270    0.0648    0.8004 Du        2 SUP2    0.0000
@<TRIPOS>BOND
     1    1    5 ar
     2    2    3 ar
     3    3    4 ar
     4    4    5 ar
     5    5   14 1
     6    6    4 1
     7    7    6 2
     8    8    7 1
     9    9    3 1
    10   10    9 1
    11   11   10 1
    12   12   10 1
    13   13   10 1
    14   14   15 1
    15   16   14 1
    16   17   16 1
    17   18   17 1
    18   19   17 1
    19   20   17 1
    20   21    1 ar
    21   22   21 1
    22   23   22 2
    23   24   22 2
    24    2   21 ar
    25    7    9 1
@<TRIPOS>SUBSTRUCTURE
     1 RES1 1
     2 SUP2 25

@<TRIPOS>CRYSIN
   7.9360    8.1590    8.6790 107.5610  90.4600 115.5710   2 1

