# MOL2 file generated by ConQuest
# Please check atom types

@<TRIPOS>MOLECULE
CAKQAI
    27    28     1
SMALL
NO_CHARGES
****
Generated from CSD

@<TRIPOS>ATOM
      1 O1         1.9088    0.4789    6.2676 O.3       1 RES1    0.0000
      2 N1         2.0266    2.9977    6.6658 N.pl3     1 RES1    0.0000
      3 H1         2.3724    2.4005    7.2605 H         1 RES1    0.0000
      4 N2         1.6761    5.3161    6.2398 N.2       1 RES1    0.0000
      5 N3         0.2437    3.5213    3.4646 N.2       1 RES1    0.0000
      6 N4         0.5579    5.6426    4.1194 N.pl3     1 RES1    0.0000
      7 N5         2.6996    4.5986    8.1844 N.pl3     1 RES1    0.0000
      8 H2         3.0202    3.9467    8.6163 H         1 RES1    0.0000
      9 N6         1.2859    1.2469    5.2289 N.2       1 RES1    0.0000
     10 C1         2.1238    4.3418    6.9981 C.2       1 RES1    0.0000
     11 C2         1.0870    4.8542    5.1054 C.2       1 RES1    0.0000
     12 C3         0.8916    3.5550    4.6901 C.2       1 RES1    0.0000
     13 C4         1.4014    2.5072    5.5204 C.2       1 RES1    0.0000
     14 C5         0.0720    4.7948    3.1700 C.2       1 RES1    0.0000
     15 H3        -0.3524    5.1329    2.4042 H         1 RES1    0.0000
     16 C6         0.5531    7.0921    4.0882 C.3       1 RES1    0.0000
     17 H4        -0.1555    7.4042    3.4876 H         1 RES1    0.0000
     18 H5         1.4205    7.4149    3.7658 H         1 RES1    0.0000
     19 H6         0.3912    7.4376    4.9907 H         1 RES1    0.0000
     20 C7         2.8862    5.9615    8.6407 C.3       1 RES1    0.0000
     21 H7         3.2945    5.9550    9.5314 H         1 RES1    0.0000
     22 H8         2.0177    6.4140    8.6829 H         1 RES1    0.0000
     23 H9         3.4723    6.4377    8.0155 H         1 RES1    0.0000
     24 C8         1.6031   -0.8878    6.0431 C.3       1 RES1    0.0000
     25 H10        2.0612   -1.4395    6.7111 H         1 RES1    0.0000
     26 H11        1.9011   -1.1464    5.1461 H         1 RES1    0.0000
     27 H12        0.6355   -1.0225    6.1174 H         1 RES1    0.0000
@<TRIPOS>BOND
     1    1    9 1
     2    2    3 1
     3    4   10 2
     4    5   12 1
     5    6   11 1
     6    7    8 1
     7    9   13 2
     8   10    2 1
     9   11    4 1
    10   12   11 2
    11   13    2 1
    12   14    5 2
    13   15   14 1
    14   16    6 1
    15   17   16 1
    16   18   16 1
    17   19   16 1
    18   20    7 1
    19   21   20 1
    20   22   20 1
    21   23   20 1
    22   24    1 1
    23   25   24 1
    24   26   24 1
    25   27   24 1
    26    6   14 1
    27    7   10 1
    28   12   13 1
@<TRIPOS>SUBSTRUCTURE
     1 RES1 1

@<TRIPOS>CRYSIN
   7.6562   10.7744   11.7192  90.0000  94.1940  90.0000 231 1

