# MOL2 file generated by ConQuest
# Please check atom types

@<TRIPOS>MOLECULE
CAKWOB
    44    48     1
SMALL
NO_CHARGES
****
Generated from CSD

@<TRIPOS>ATOM
      1 O1        -0.6075   -5.7313   -8.7951 O.3       1 RES1    0.0000
      2 N1        -0.3293   -6.9481   -8.0375 N.3       1 RES1    0.0000
      3 N2        -0.8445   -7.9869  -11.2606 N.3       1 RES1    0.0000
      4 C1         0.6029   -5.5743   -9.5207 C.3       1 RES1    0.0000
      5 H1         1.3184   -5.3218   -8.8942 H         1 RES1    0.0000
      6 C2         0.9031   -6.9789  -10.0799 C.3       1 RES1    0.0000
      7 H2         1.8469   -7.1706  -10.0134 H         1 RES1    0.0000
      8 C3         0.0958   -7.8968   -9.1079 C.3       1 RES1    0.0000
      9 H3         0.6970   -8.6376   -8.7221 H         1 RES1    0.0000
     10 C4        -0.9548   -8.4733   -9.9883 C.2       1 RES1    0.0000
     11 C5        -1.9956   -9.3895   -9.9811 C.2       1 RES1    0.0000
     12 H4        -2.3174   -9.8996   -9.2112 H         1 RES1    0.0000
     13 C6        -2.4998   -9.4448  -11.3076 C.2       1 RES1    0.0000
     14 H5        -3.1828   -9.9600  -11.5942 H         1 RES1    0.0000
     15 C7        -1.7697   -8.5884  -12.0710 C.2       1 RES1    0.0000
     16 H6        -1.8864   -8.4270  -13.0401 H         1 RES1    0.0000
     17 C8         0.3955   -7.2661  -11.5160 C.3       1 RES1    0.0000
     18 H7         1.0048   -7.8557  -11.9386 H         1 RES1    0.0000
     19 C9         0.1853   -6.0560  -12.4212 C.3       1 RES1    0.0000
     20 H8         1.0571   -5.7696  -12.7877 H         1 RES1    0.0000
     21 H9        -0.3891   -6.3171  -13.1829 H         1 RES1    0.0000
     22 C10       -0.4466   -4.9007  -11.6979 C.3       1 RES1    0.0000
     23 H10       -1.3591   -5.1758  -11.3418 H         1 RES1    0.0000
     24 H11       -0.5767   -4.1272  -12.3396 H         1 RES1    0.0000
     25 C11        0.4414   -4.4739  -10.5485 C.3       1 RES1    0.0000
     26 H12        0.0581   -3.6920  -10.1190 H         1 RES1    0.0000
     27 H13        1.3184   -4.2268  -10.8957 H         1 RES1    0.0000
     28 C12       -1.5664   -7.2897   -7.3412 C.3       1 RES1    0.0000
     29 H14       -2.3290   -7.4949   -8.0588 H         1 RES1    0.0000
     30 C13       -1.3364   -8.5298   -6.4879 C.ar      1 RES1    0.0000
     31 C14       -0.1684   -8.6895   -5.7421 C.ar      1 RES1    0.0000
     32 H15        0.4588   -8.0719   -5.7811 H         1 RES1    0.0000
     33 C15        0.0087   -9.8055   -4.9398 C.ar      1 RES1    0.0000
     34 H16        0.8189   -9.9150   -4.4452 H         1 RES1    0.0000
     35 C16       -0.9891  -10.7615   -4.8554 C.ar      1 RES1    0.0000
     36 H17       -0.8764  -11.5112   -4.2965 H         1 RES1    0.0000
     37 C17       -2.1397  -10.6197   -5.5850 C.ar      1 RES1    0.0000
     38 H18       -2.8459  -11.3146   -5.5306 H         1 RES1    0.0000
     39 C18       -2.3238   -9.5051   -6.4042 C.ar      1 RES1    0.0000
     40 H19       -3.1479   -9.4097   -6.9201 H         1 RES1    0.0000
     41 C19       -2.0125   -6.1206   -6.4502 C.3       1 RES1    0.0000
     42 H20       -2.1763   -5.2839   -7.0356 H         1 RES1    0.0000
     43 H21       -1.2720   -5.9156   -5.7560 H         1 RES1    0.0000
     44 H22       -2.8866   -6.3747   -5.9595 H         1 RES1    0.0000
@<TRIPOS>BOND
     1    1    2 1
     2    2    8 1
     3    3   10 1
     4    4    1 1
     5    5    4 1
     6    6    4 1
     7    7    6 1
     8    8    6 1
     9    9    8 1
    10   10    8 1
    11   11   10 2
    12   12   11 1
    13   13   11 1
    14   14   13 1
    15   15    3 1
    16   16   15 1
    17   17    3 1
    18   18   17 1
    19   19   17 1
    20   20   19 1
    21   21   19 1
    22   22   19 1
    23   23   22 1
    24   24   22 1
    25   25    4 1
    26   26   25 1
    27   27   25 1
    28   28    2 1
    29   29   28 1
    30   30   28 1
    31   31   30 ar
    32   32   31 1
    33   33   31 ar
    34   34   33 1
    35   35   33 ar
    36   36   35 1
    37   37   35 ar
    38   38   37 1
    39   39   30 ar
    40   40   39 1
    41   41   28 1
    42   42   41 1
    43   43   41 1
    44   44   41 1
    45    6   17 1
    46   13   15 2
    47   22   25 1
    48   37   39 ar
@<TRIPOS>SUBSTRUCTURE
     1 RES1 1

@<TRIPOS>CRYSIN
   5.8080   14.0380   19.5650  90.0000  90.0000  90.0000  19 1

