# MOL2 file generated by ConQuest
# Please check atom types

@<TRIPOS>MOLECULE
CAMDEC
    52    55     1
SMALL
NO_CHARGES
****
Generated from CSD

@<TRIPOS>ATOM
      1 O1         8.1445    7.4631    2.6428 O.3       1 RES1    0.0000
      2 N1         7.4163    6.4818    1.8810 N.2       1 RES1    0.0000
      3 C1         9.5659    7.4602    2.3500 C.3       1 RES1    0.0000
      4 C2         9.7888    7.4469    0.8381 C.ar      1 RES1    0.0000
      5 C3        10.7801    6.7037    0.2347 C.ar      1 RES1    0.0000
      6 H1        11.3159    6.1474    0.7528 H         1 RES1    0.0000
      7 C4        10.9898    6.7723   -1.1329 C.ar      1 RES1    0.0000
      8 H2        11.6687    6.2719   -1.5264 H         1 RES1    0.0000
      9 C5        10.1927    7.5804   -1.9084 C.ar      1 RES1    0.0000
     10 H3        10.3310    7.6292   -2.8262 H         1 RES1    0.0000
     11 C6         9.1885    8.3198   -1.3225 C.ar      1 RES1    0.0000
     12 H4         8.6435    8.8590   -1.8487 H         1 RES1    0.0000
     13 C7         8.9869    8.2623    0.0370 C.ar      1 RES1    0.0000
     14 H5         8.3125    8.7714    0.4257 H         1 RES1    0.0000
     15 C8         9.9932    8.7964    2.9759 C.ar      1 RES1    0.0000
     16 C9        10.8536    9.6801    2.3417 C.ar      1 RES1    0.0000
     17 H6        11.1901    9.4762    1.4989 H         1 RES1    0.0000
     18 C10       11.2139   10.8680    2.9627 C.ar      1 RES1    0.0000
     19 H7        11.7908   11.4562    2.5304 H         1 RES1    0.0000
     20 C11       10.7297   11.1850    4.2065 C.ar      1 RES1    0.0000
     21 H8        10.9625   11.9905    4.6095 H         1 RES1    0.0000
     22 C12        9.8921   10.2981    4.8541 C.ar      1 RES1    0.0000
     23 H9         9.5724   10.4983    5.7035 H         1 RES1    0.0000
     24 C13        9.5312    9.1184    4.2454 C.ar      1 RES1    0.0000
     25 H10        8.9681    8.5280    4.6920 H         1 RES1    0.0000
     26 C14       10.2793    6.3219    3.0912 C.ar      1 RES1    0.0000
     27 C15        9.6248    5.1593    3.4519 C.ar      1 RES1    0.0000
     28 H11        8.7339    5.0367    3.2120 H         1 RES1    0.0000
     29 C16       10.2860    4.1732    4.1677 C.ar      1 RES1    0.0000
     30 H12        9.8305    3.3968    4.4028 H         1 RES1    0.0000
     31 C17       11.5922    4.3193    4.5336 C.ar      1 RES1    0.0000
     32 H13       12.0182    3.6572    5.0285 H         1 RES1    0.0000
     33 C18       12.2722    5.4574    4.1629 C.ar      1 RES1    0.0000
     34 H14       13.1692    5.5586    4.3857 H         1 RES1    0.0000
     35 C19       11.6146    6.4517    3.4557 C.ar      1 RES1    0.0000
     36 H15       12.0778    7.2240    3.2206 H         1 RES1    0.0000
     37 C20        6.1837    6.8009    1.8401 C.2       1 RES1    0.0000
     38 C21        5.2747    5.8923    1.0751 C.3       1 RES1    0.0000
     39 H16        4.5978    5.5293    1.6676 H         1 RES1    0.0000
     40 H17        5.7825    5.1543    0.7035 H         1 RES1    0.0000
     41 C22        4.6120    6.6790   -0.0455 C.3       1 RES1    0.0000
     42 H18        5.2828    6.9348   -0.6968 H         1 RES1    0.0000
     43 H19        3.9618    6.1144   -0.4920 H         1 RES1    0.0000
     44 C23        3.9192    7.9246    0.4759 C.3       1 RES1    0.0000
     45 H20        3.5580    8.4279   -0.2711 H         1 RES1    0.0000
     46 H21        3.1806    7.6659    1.0476 H         1 RES1    0.0000
     47 C24        4.8712    8.8000    1.2533 C.3       1 RES1    0.0000
     48 H22        4.3825    9.5531    1.6231 H         1 RES1    0.0000
     49 H23        5.5473    9.1498    0.6523 H         1 RES1    0.0000
     50 C25        5.5494    8.0401    2.3834 C.3       1 RES1    0.0000
     51 H24        6.2255    8.6005    2.7968 H         1 RES1    0.0000
     52 H25        4.8952    7.8044    3.0594 H         1 RES1    0.0000
@<TRIPOS>BOND
     1    1    2 1
     2    2   37 2
     3    3    1 1
     4    4    3 1
     5    5    4 ar
     6    6    5 1
     7    7    5 ar
     8    8    7 1
     9    9    7 ar
    10   10    9 1
    11   11    9 ar
    12   12   11 1
    13   13    4 ar
    14   14   13 1
    15   15    3 1
    16   16   15 ar
    17   17   16 1
    18   18   16 ar
    19   19   18 1
    20   20   18 ar
    21   21   20 1
    22   22   20 ar
    23   23   22 1
    24   24   15 ar
    25   25   24 1
    26   26    3 1
    27   27   26 ar
    28   28   27 1
    29   29   27 ar
    30   30   29 1
    31   31   29 ar
    32   32   31 1
    33   33   31 ar
    34   34   33 1
    35   35   26 ar
    36   36   35 1
    37   37   38 1
    38   38   39 1
    39   40   38 1
    40   41   38 1
    41   42   41 1
    42   43   41 1
    43   44   41 1
    44   45   44 1
    45   46   44 1
    46   47   44 1
    47   48   47 1
    48   49   47 1
    49   50   37 1
    50   51   50 1
    51   52   50 1
    52   11   13 ar
    53   22   24 ar
    54   33   35 ar
    55   47   50 1
@<TRIPOS>SUBSTRUCTURE
     1 RES1 1

@<TRIPOS>CRYSIN
  10.2780   10.5560   10.7930  61.7510  78.0140  72.2130   2 1

