# MOL2 file generated by ConQuest
# Please check atom types

@<TRIPOS>MOLECULE
CAMJUW
    49    51     1
SMALL
NO_CHARGES
****
Generated from CSD

@<TRIPOS>ATOM
      1 C1         8.4503    3.1435   20.3295 C.2       1 RES1    0.0000
      2 O1         8.1465    4.2770   20.0686 O.2       1 RES1    0.0000
      3 C2         9.3681    2.7259   21.4129 C.ar      1 RES1    0.0000
      4 C3         9.7174    1.4184   21.6090 C.ar      1 RES1    0.0000
      5 H1         9.3635    0.7400   20.9692 H         1 RES1    0.0000
      6 C4        10.5503    1.0663   22.6509 C.ar      1 RES1    0.0000
      7 H2        10.8456    0.1233   22.7759 H         1 RES1    0.0000
      8 C5        11.0386    2.0114   23.4995 C.ar      1 RES1    0.0000
      9 H3        11.7073    1.7042   24.2709 H         1 RES1    0.0000
     10 C6        10.6905    3.3143   23.3189 C.ar      1 RES1    0.0000
     11 H4        11.0984    3.9690   23.9047 H         1 RES1    0.0000
     12 C7         9.8599    3.6887   22.2772 C.ar      1 RES1    0.0000
     13 H5         9.6048    4.6418   22.0708 H         1 RES1    0.0000
     14 C8         6.3465    1.3287   18.3245 C.2       1 RES1    0.0000
     15 O2         7.9593    2.0710   19.6682 O.3       1 RES1    0.0000
     16 N1         6.8912    2.4275   18.7491 N.2       1 RES1    0.0000
     17 C9         5.1485    1.5284   17.4745 C.ar      1 RES1    0.0000
     18 C10        4.3778    2.6678   17.6376 C.ar      1 RES1    0.0000
     19 H6         4.6542    3.3188   18.3515 H         1 RES1    0.0000
     20 C11        3.2927    2.9028   16.8120 C.ar      1 RES1    0.0000
     21 H7         2.7574    3.6887   16.9261 H         1 RES1    0.0000
     22 C12        2.9391    2.0197   15.8124 C.ar      1 RES1    0.0000
     23 C13        1.7532    2.2850   14.9281 C.3       1 RES1    0.0000
     24 H8         1.5395    1.6370   14.3386 H         1 RES1    0.0000
     25 H9         0.9536    2.4442   15.3736 H         1 RES1    0.0000
     26 H10        1.8382    3.1730   14.5081 H         1 RES1    0.0000
     27 C14        3.7109    0.8835   15.6611 C.ar      1 RES1    0.0000
     28 H11        3.4938    0.2242   14.9529 H         1 RES1    0.0000
     29 C15        4.8042    0.6373   16.4803 C.ar      1 RES1    0.0000
     30 H12        5.3229   -0.1558   16.3693 H         1 RES1    0.0000
     31 N2         6.8485    0.0845   18.5319 N.pl3     1 RES1    0.0000
     32 H13        7.6540    0.0482   18.9356 H         1 RES1    0.0000
     33 C16        6.0784   -1.1089   18.7053 C.ar      1 RES1    0.0000
     34 C17        6.5177   -2.2699   18.1070 C.ar      1 RES1    0.0000
     35 H14        7.2760   -2.2110   17.5374 H         1 RES1    0.0000
     36 C18        5.8893   -3.4835   18.3354 C.ar      1 RES1    0.0000
     37 C19        6.4258   -4.7225   17.6657 C.3       1 RES1    0.0000
     38 H15        7.2610   -4.5409   17.0956 H         1 RES1    0.0000
     39 H16        6.6292   -5.4490   18.3696 H         1 RES1    0.0000
     40 H17        5.7215   -5.1239   17.2196 H         1 RES1    0.0000
     41 C20        4.7921   -3.5251   19.1813 C.ar      1 RES1    0.0000
     42 C21        4.0637   -4.8212   19.4742 C.3       1 RES1    0.0000
     43 H18        3.4927   -4.5969   20.3337 H         1 RES1    0.0000
     44 H19        3.5156   -5.1127   18.7237 H         1 RES1    0.0000
     45 H20        4.6990   -5.4939   19.7315 H         1 RES1    0.0000
     46 C22        4.3474   -2.3545   19.7560 C.ar      1 RES1    0.0000
     47 H21        3.5846   -2.3882   20.3640 H         1 RES1    0.0000
     48 C23        4.9765   -1.1495   19.5317 C.ar      1 RES1    0.0000
     49 H22        4.6760   -0.3274   19.9463 H         1 RES1    0.0000
@<TRIPOS>BOND
     1    1    2 2
     2    3    1 1
     3    4    3 ar
     4    5    4 1
     5    6    4 ar
     6    7    6 1
     7    8    6 ar
     8    9    8 1
     9   10    8 ar
    10   11   10 1
    11   12    3 ar
    12   13   12 1
    13   14   16 2
    14   15    1 1
    15   16   15 1
    16   17   14 1
    17   18   17 ar
    18   19   18 1
    19   20   18 ar
    20   21   20 1
    21   22   20 ar
    22   23   22 1
    23   24   23 1
    24   25   23 1
    25   26   23 1
    26   27   22 ar
    27   28   27 1
    28   29   17 ar
    29   30   29 1
    30   31   14 1
    31   32   31 1
    32   33   31 1
    33   34   33 ar
    34   35   34 1
    35   36   34 ar
    36   37   36 1
    37   38   37 1
    38   39   37 1
    39   40   37 1
    40   41   36 ar
    41   42   41 1
    42   43   42 1
    43   44   42 1
    44   45   42 1
    45   46   41 ar
    46   47   46 1
    47   48   33 ar
    48   49   48 1
    49   10   12 ar
    50   27   29 ar
    51   46   48 ar
@<TRIPOS>SUBSTRUCTURE
     1 RES1 1

@<TRIPOS>CRYSIN
  11.4890   11.2120   30.2630  90.0000  90.0000  90.0000  61 1

