# MOL2 file generated by ConQuest
# Please check atom types

@<TRIPOS>MOLECULE
CAMMEI10
    54    60     2
SMALL
NO_CHARGES
****
Generated from CSD

@<TRIPOS>ATOM
      1 O1        -1.9979   -4.7550    5.7868 O.3       1 RES1    0.0000
      2 O2        -3.7339   -3.3914    6.3892 O.2       1 RES1    0.0000
      3 O3         2.5795    0.3147    8.1809 O.2       1 RES1    0.0000
      4 O4         1.1298    0.7692    9.2559 O.2       1 RES1    0.0000
      5 N1         1.4922   -0.0699    8.5087 N.pl3     1 RES1    0.0000
      6 C1        -4.7022   -6.4332    2.8057 C.3       1 RES1    0.0000
      7 C2        -5.3480   -7.7618    1.8832 C.3       1 RES1    0.0000
      8 C3        -5.7993   -8.9855    2.7371 C.3       1 RES1    0.0000
      9 C4        -4.8635   -9.4750    3.6063 C.3       1 RES1    0.0000
     10 C5        -4.0880   -8.3911    3.8426 C.3       1 RES1    0.0000
     11 C6        -3.4261   -7.2373    3.3852 C.3       1 RES1    0.0000
     12 C7        -2.7579   -8.2513    2.2034 C.3       1 RES1    0.0000
     13 C8        -3.7962   -8.0415    1.1665 C.3       1 RES1    0.0000
     14 C9        -3.4697   -6.5730    0.5489 C.3       1 RES1    0.0000
     15 C10       -4.0067   -5.6290    1.5249 C.3       1 RES1    0.0000
     16 C11       -3.6336   -9.2302    0.0915 C.3       1 RES1    0.0000
     17 C12       -6.3543   -7.1325    0.8920 C.3       1 RES1    0.0000
     18 C13       -2.3103   -6.5031    4.0333 C.3       1 RES1    0.0000
     19 C14       -3.0980   -5.5941    5.0549 C.3       1 RES1    0.0000
     20 C15       -1.1565   -7.1674    4.5975 C.3       1 RES1    0.0000
     21 C16       -2.4429   -3.4264    6.2672 C.2       1 RES1    0.0000
     22 C17       -1.3492   -2.7970    6.9686 C.ar      1 RES1    0.0000
     23 C18       -0.0126   -3.0767    6.8161 C.ar      1 RES1    0.0000
     24 C19        0.8553   -2.2027    7.3651 C.ar      1 RES1    0.0000
     25 C20        0.3084   -0.9440    7.8911 C.ar      1 RES1    0.0000
     26 C21       -0.9606   -0.6643    7.9064 C.ar      1 RES1    0.0000
     27 C22       -1.9543   -1.4684    7.5709 C.ar      1 RES1    0.0000
     28 O5         2.5392    1.2936    5.7106 O.3       2 RES2    0.0000
     29 O6         4.2568    0.2098    4.6356 O.2       2 RES2    0.0000
     30 O7        -0.2047   -4.2655    2.2797 O.2       2 RES2    0.0000
     31 O8        -1.9337   -2.8670    2.7219 O.2       2 RES2    0.0000
     32 N2        -0.7270   -3.1816    2.8515 N.pl3     2 RES2    0.0000
     33 C23        3.4333    4.7899    8.9967 C.3       2 RES2    0.0000
     34 C24        4.5496    5.2794    9.8048 C.3       2 RES2    0.0000
     35 C25        5.9927    5.8738    8.9967 C.3       2 RES2    0.0000
     36 C26        5.6486    6.0136    7.3041 C.3       2 RES2    0.0000
     37 C27        4.4603    4.9997    6.9457 C.3       2 RES2    0.0000
     38 C28        3.9485    4.1606    7.8302 C.3       2 RES2    0.0000
     39 C29        5.0710    3.2166    8.5621 C.3       2 RES2    0.0000
     40 C30        5.4435    4.0207    9.8277 C.3       2 RES2    0.0000
     41 C31        4.3995    3.1117   10.7808 C.3       2 RES2    0.0000
     42 C32        2.9128    3.7760   10.1556 C.3       2 RES2    0.0000
     43 C33        6.6690    3.9858   10.5368 C.3       2 RES2    0.0000
     44 C34        4.6079    6.0136   11.1848 C.3       2 RES2    0.0000
     45 C35        3.0116    3.0418    7.2888 C.3       2 RES2    0.0000
     46 C36        3.7943    2.3425    6.0156 C.3       2 RES2    0.0000
     47 C37        1.7787    3.9159    6.5798 C.3       2 RES2    0.0000
     48 C38        3.0699    0.4196    4.7576 C.2       2 RES2    0.0000
     49 C39        2.1571   -0.7342    4.4526 C.ar      2 RES2    0.0000
     50 C40        0.6689   -0.2797    4.3992 C.ar      2 RES2    0.0000
     51 C41       -0.3384   -1.0839    3.7893 C.ar      2 RES2    0.0000
     52 C42        0.1618   -2.1327    3.2708 C.ar      2 RES2    0.0000
     53 C43        1.5923   -2.6572    3.2632 C.ar      2 RES2    0.0000
     54 C44        2.4347   -1.7481    3.7969 C.ar      2 RES2    0.0000
@<TRIPOS>BOND
     1    1   19 1
     2    2   21 2
     3    3    5 2
     4    4    5 2
     5    5   25 1
     6    6    7 1
     7    7    8 1
     8    8    9 1
     9    9   10 1
    10   10   11 1
    11   11    6 1
    12   12   11 1
    13   13    7 1
    14   14   13 1
    15   15    6 1
    16   16   13 1
    17   17    7 1
    18   18   11 1
    19   19   18 1
    20   20   18 1
    21   21    1 1
    22   22   21 1
    23   23   22 ar
    24   24   23 ar
    25   25   24 ar
    26   26   25 ar
    27   27   22 ar
    28   28   46 1
    29   29   48 2
    30   30   32 2
    31   31   32 2
    32   32   52 1
    33   33   34 1
    34   34   35 1
    35   35   36 1
    36   36   37 1
    37   37   38 1
    38   38   33 1
    39   39   38 1
    40   40   34 1
    41   41   40 1
    42   42   33 1
    43   43   40 1
    44   44   34 1
    45   45   38 1
    46   46   45 1
    47   47   45 1
    48   48   28 1
    49   49   48 1
    50   50   49 ar
    51   51   50 ar
    52   52   51 ar
    53   53   52 ar
    54   54   49 ar
    55   12   13 1
    56   14   15 1
    57   26   27 ar
    58   39   40 1
    59   41   42 1
    60   53   54 ar
@<TRIPOS>SUBSTRUCTURE
     1 RES1 1
     2 RES2 28

@<TRIPOS>CRYSIN
   7.4400   34.9630    7.9090  90.0000 105.4200  90.0000   4 1

