# MOL2 file generated by ConQuest
# Please check atom types

@<TRIPOS>MOLECULE
CAMMUA
    31    32     1
SMALL
NO_CHARGES
****
Generated from CSD

@<TRIPOS>ATOM
      1 N1        16.5703    6.8126   -1.9547 N.pl3     1 RES1    0.0000
      2 O1        17.7618    7.0281   -2.1009 O.2       1 RES1    0.0000
      3 O2        15.7035    7.3345   -2.6411 O.2       1 RES1    0.0000
      4 O3        21.2751    1.4724    2.8900 O.3       1 RES1    0.0000
      5 H1        21.4738    0.8108    2.4293 H         1 RES1    0.0000
      6 O4        15.3996    0.8618    4.7305 O.2       1 RES1    0.0000
      7 C1        14.5476    4.3879   -0.0081 C.ar      1 RES1    0.0000
      8 H2        13.6961    3.9913   -0.0366 H         1 RES1    0.0000
      9 C2        14.9016    5.2950   -0.9875 C.ar      1 RES1    0.0000
     10 H3        14.3077    5.5136   -1.6826 H         1 RES1    0.0000
     11 C3        16.1547    5.8725   -0.9150 C.ar      1 RES1    0.0000
     12 C4        17.0426    5.5814    0.0952 C.ar      1 RES1    0.0000
     13 H4        17.8851    5.9989    0.1247 H         1 RES1    0.0000
     14 C5        16.6796    4.6680    1.0641 C.ar      1 RES1    0.0000
     15 H5        17.2791    4.4618    1.7580 H         1 RES1    0.0000
     16 C6        15.4272    4.0460    1.0241 C.ar      1 RES1    0.0000
     17 C7        14.9776    3.1241    2.0661 C.2       1 RES1    0.0000
     18 H6        14.0461    3.0674    2.1758 H         1 RES1    0.0000
     19 C8        15.7018    2.3435    2.8923 C.2       1 RES1    0.0000
     20 C9        17.1704    2.1274    2.8593 C.ar      1 RES1    0.0000
     21 C10       17.7810    1.4540    1.8143 C.ar      1 RES1    0.0000
     22 H7        17.2566    1.1568    1.0937 H         1 RES1    0.0000
     23 C11       19.1341    1.2082    1.8010 C.ar      1 RES1    0.0000
     24 H8        19.5261    0.7377    1.0879 H         1 RES1    0.0000
     25 C12       19.9130    1.6650    2.8529 C.ar      1 RES1    0.0000
     26 C13       19.3371    2.3465    3.8973 C.ar      1 RES1    0.0000
     27 H9        19.8705    2.6677    4.6016 H         1 RES1    0.0000
     28 C14       17.9730    2.5573    3.9095 C.ar      1 RES1    0.0000
     29 H10       17.5802    2.9989    4.6405 H         1 RES1    0.0000
     30 C15       14.9347    1.6251    3.9089 C.2       1 RES1    0.0000
     31 H11       14.0047    1.7667    3.9280 H         1 RES1    0.0000
@<TRIPOS>BOND
     1    1    2 2
     2    3    1 2
     3    4    5 1
     4    6   30 2
     5    7    8 1
     6    9    7 ar
     7   10    9 1
     8   11    1 1
     9   12   11 ar
    10   13   12 1
    11   14   12 ar
    12   15   14 1
    13   16    7 ar
    14   17   16 1
    15   18   17 1
    16   19   17 2
    17   20   19 1
    18   21   20 ar
    19   22   21 1
    20   23   21 ar
    21   24   23 1
    22   25    4 1
    23   26   25 ar
    24   27   26 1
    25   28   20 ar
    26   29   28 1
    27   30   19 1
    28   31   30 1
    29    9   11 ar
    30   14   16 ar
    31   23   25 ar
    32   26   28 ar
@<TRIPOS>SUBSTRUCTURE
     1 RES1 1

@<TRIPOS>CRYSIN
  18.8185   11.4200    5.8021  90.0000  90.0000  90.0000  33 1

