# MOL2 file generated by ConQuest
# Please check atom types

@<TRIPOS>MOLECULE
CAMPHX10
    55    57     2
SMALL
NO_CHARGES
****
Generated from CSD

@<TRIPOS>ATOM
      1 O1         2.6089    1.1144    3.0593 O.3       1 RES1    0.0000
      2 N1         3.8136    1.4036    2.3571 N.2       1 RES1    0.0000
      3 C1         6.1953    0.8677    2.2859 C.3       1 RES1    0.0000
      4 C2         4.7885    0.7284    2.8173 C.2       1 RES1    0.0000
      5 C3         4.7907   -0.2798    3.9344 C.3       1 RES1    0.0000
      6 C4         6.2889   -0.6941    3.9351 C.3       1 RES1    0.0000
      7 C5         7.0468    0.4628    4.5407 C.3       1 RES1    0.0000
      8 C6         6.9709    1.5606    3.4447 C.3       1 RES1    0.0000
      9 C7         6.6923   -0.6032    2.4468 C.3       1 RES1    0.0000
     10 C8         6.3311    1.5441    0.9633 C.3       1 RES1    0.0000
     11 C9         5.9385   -1.5831    1.5244 C.3       1 RES1    0.0000
     12 C10        8.2200   -0.7874    2.1722 C.3       1 RES1    0.0000
     13 H1         2.0289    1.5347    2.5688 H         1 RES1    0.0000
     14 H2         4.2622   -0.8854    3.6768 H         1 RES1    0.0000
     15 H3         4.5002    0.2597    4.7425 H         1 RES1    0.0000
     16 H4         6.4672   -1.4992    4.4602 H         1 RES1    0.0000
     17 H5         7.8223    0.0590    4.9260 H         1 RES1    0.0000
     18 H6         6.5849    0.8382    5.3141 H         1 RES1    0.0000
     19 H7         7.8827    1.8416    3.0417 H         1 RES1    0.0000
     20 H8         6.5917    2.2311    3.7404 H         1 RES1    0.0000
     21 H9         5.9867    2.6679    0.9598 H         1 RES1    0.0000
     22 H10        5.8264    1.0625    0.2823 H         1 RES1    0.0000
     23 H11        7.1733    1.5583    0.5858 H         1 RES1    0.0000
     24 H12        5.1061   -1.5465    1.5173 H         1 RES1    0.0000
     25 H13        6.1913   -2.4082    1.7996 H         1 RES1    0.0000
     26 H14        6.5148   -1.4048    0.4870 H         1 RES1    0.0000
     27 H15        8.7785   -0.0708    2.6747 H         1 RES1    0.0000
     28 H16        8.3497   -0.7083    1.1080 H         1 RES1    0.0000
     29 H17        8.4147   -1.6881    2.4065 H         1 RES1    0.0000
     30 O2         2.6452    3.2936    0.6027 O.3       2 RES2    0.0000
     31 N2         1.4881    3.1354    1.3846 N.2       2 RES2    0.0000
     32 C11       -0.7660    4.0715    1.7509 C.3       2 RES2    0.0000
     33 C12        0.5952    3.9795    1.0649 C.2       2 RES2    0.0000
     34 C13        0.6733    5.1139    0.0621 C.3       2 RES2    0.0000
     35 C14       -0.7043    5.7762    0.2710 C.3       2 RES2    0.0000
     36 C15       -0.6662    6.4691    1.6204 C.3       2 RES2    0.0000
     37 C16       -0.6889    5.3689    2.6239 C.3       2 RES2    0.0000
     38 C17       -1.6323    4.5803    0.5512 C.3       2 RES2    0.0000
     39 C18       -1.2020    2.8179    2.4933 C.3       2 RES2    0.0000
     40 C19       -1.7522    3.5993   -0.6253 C.3       2 RES2    0.0000
     41 C20       -3.0559    4.9829    0.9704 C.3       2 RES2    0.0000
     42 H18        3.3208    2.8568    0.8186 H         2 RES2    0.0000
     43 H19        0.6081    4.6158   -0.6563 H         2 RES2    0.0000
     44 H20        1.4206    5.8199    0.2964 H         2 RES2    0.0000
     45 H21       -0.9354    6.2803   -0.3811 H         2 RES2    0.0000
     46 H22       -1.4560    7.1774    1.7925 H         2 RES2    0.0000
     47 H23        0.0895    6.9413    1.7149 H         2 RES2    0.0000
     48 H24       -1.5206    5.2768    3.3522 H         2 RES2    0.0000
     49 H25        0.0238    5.3595    3.2111 H         2 RES2    0.0000
     50 H26       -2.2012    3.0103    2.8229 H         2 RES2    0.0000
     51 H27       -0.6298    2.8686    3.0840 H         2 RES2    0.0000
     52 H28       -1.2741    2.1485    1.9266 H         2 RES2    0.0000
     53 H29       -3.0795    5.7608    1.6232 H         2 RES2    0.0000
     54 H30       -3.5397    4.1672    1.2844 H         2 RES2    0.0000
     55 H31       -3.5211    5.3831    0.4093 H         2 RES2    0.0000
@<TRIPOS>BOND
     1    1    2 1
     2    2    4 2
     3    3    4 1
     4    4    5 1
     5    5    6 1
     6    6    7 1
     7    7    8 1
     8    8    3 1
     9    9    3 1
    10   10    3 1
    11   11    9 1
    12   12    9 1
    13   13    1 1
    14   14    5 1
    15   15    5 1
    16   16    6 1
    17   17    7 1
    18   18    7 1
    19   19    8 1
    20   20    8 1
    21   21   10 1
    22   22   10 1
    23   23   10 1
    24   24   11 1
    25   25   11 1
    26   26   11 1
    27   27   12 1
    28   28   12 1
    29   29   12 1
    30   30   31 1
    31   31   33 2
    32   32   33 1
    33   33   34 1
    34   34   35 1
    35   35   36 1
    36   36   37 1
    37   37   32 1
    38   38   32 1
    39   39   32 1
    40   40   38 1
    41   41   38 1
    42   42   30 1
    43   43   34 1
    44   44   34 1
    45   45   35 1
    46   46   36 1
    47   47   36 1
    48   48   37 1
    49   49   37 1
    50   50   39 1
    51   51   39 1
    52   52   39 1
    53   53   41 1
    54   54   41 1
    55   55   41 1
    56    6    9 1
    57   35   38 1
@<TRIPOS>SUBSTRUCTURE
     1 RES1 1
     2 RES2 30

@<TRIPOS>CRYSIN
  12.0640   11.8050    7.1620  90.0000  99.8100  90.0000   4 1

