# MOL2 file generated by ConQuest
# Please check atom types

@<TRIPOS>MOLECULE
CAMWOE
    98    81     2
SMALL
USER_CHARGES
****
Generated from CSD

@<TRIPOS>ATOM
      1 O1         5.9761    1.7510   23.9328 O.2       1 RES1   -1.0000
      2 O2         5.4953   11.6534   16.7420 O.3       1 RES1    0.0000
      3 N1         8.4969   -3.5956   25.9953 N.pl3     1 RES1    0.0000
      4 N2         7.0138    1.1940   23.4717 N.pl3     1 RES1    1.0000
      5 N3         7.7472    1.6340   22.5286 N.2       1 RES1    0.0000
      6 N4         6.0760    6.4054   20.0865 N.2       1 RES1    0.0000
      7 N5         6.8945    6.9200   19.2971 N.2       1 RES1    0.0000
      8 C1         7.7977   -4.0344   27.1826 C.3       1 RES1    0.0000
      9 H1         7.7273   -3.3035   27.8022 H         1 RES1    0.0000
     10 H2         8.2831   -4.7541   27.5919 H         1 RES1    0.0000
     11 H3         6.9184   -4.3368   26.9421 H         1 RES1    0.0000
     12 C2         9.5911   -4.4013   25.5148 C.3       1 RES1    0.0000
     13 H4         9.4883   -4.5507   24.5723 H         1 RES1    0.0000
     14 H5         9.5931   -5.2444   25.9742 H         1 RES1    0.0000
     15 H6        10.4201   -3.9462   25.6777 H         1 RES1    0.0000
     16 C3         8.1395   -2.4299   25.3647 C.ar      1 RES1    0.0000
     17 C4         7.0121   -1.7196   25.7594 C.ar      1 RES1    0.0000
     18 H7         6.4954   -2.0352   26.4649 H         1 RES1    0.0000
     19 C5         6.6474   -0.5513   25.1201 C.ar      1 RES1    0.0000
     20 H8         5.8845   -0.0925   25.3892 H         1 RES1    0.0000
     21 C6         7.4080   -0.0691   24.0905 C.ar      1 RES1    0.0000
     22 C7         8.5293   -0.7478   23.6650 C.ar      1 RES1    0.0000
     23 H9         9.0376   -0.4186   22.9600 H         1 RES1    0.0000
     24 C8         8.8900   -1.9199   24.2951 C.ar      1 RES1    0.0000
     25 H10        9.6443   -2.3802   24.0061 H         1 RES1    0.0000
     26 C9         7.2713    2.8714   21.9592 C.ar      1 RES1    0.0000
     27 C10        6.1924    2.8498   21.0854 C.ar      1 RES1    0.0000
     28 C11        5.8127    4.0378   20.4588 C.ar      1 RES1    0.0000
     29 C12        6.5658    5.1988   20.7085 C.ar      1 RES1    0.0000
     30 C13        7.6406    5.2132   21.5901 C.ar      1 RES1    0.0000
     31 C14        8.0136    4.0295   22.2223 C.ar      1 RES1    0.0000
     32 C15        5.4228    1.5648   20.8363 C.3       1 RES1    0.0000
     33 H11        4.6464    1.5422   21.4017 H         1 RES1    0.0000
     34 H12        5.9847    0.8118   21.0350 H         1 RES1    0.0000
     35 H13        5.1502    1.5277   19.9161 H         1 RES1    0.0000
     36 C16        4.6478    4.0752   19.5106 C.3       1 RES1    0.0000
     37 H14        4.9154    3.7185   18.6597 H         1 RES1    0.0000
     38 H15        4.3544    4.9817   19.3985 H         1 RES1    0.0000
     39 H16        3.9289    3.5472   19.8649 H         1 RES1    0.0000
     40 C17        8.3989    6.4898   21.8902 C.3       1 RES1    0.0000
     41 H17        9.2094    6.5085   21.3747 H         1 RES1    0.0000
     42 H18        8.6127    6.5224   22.8252 H         1 RES1    0.0000
     43 H19        7.8557    7.2464   21.6605 H         1 RES1    0.0000
     44 C18        9.1654    3.9807   23.1811 C.3       1 RES1    0.0000
     45 H20        8.9014    4.3685   24.0196 H         1 RES1    0.0000
     46 H21        9.9044    4.4740   22.8171 H         1 RES1    0.0000
     47 H22        9.4278    3.0673   23.3186 H         1 RES1    0.0000
     48 C19        6.4248    8.1393   18.6975 C.ar      1 RES1    0.0000
     49 C20        5.2830    8.8131   19.0752 C.ar      1 RES1    0.0000
     50 H23        4.7452    8.4745   19.7543 H         1 RES1    0.0000
     51 C21        4.9371   10.0009   18.4392 C.ar      1 RES1    0.0000
     52 H24        4.1669   10.4583   18.6894 H         1 RES1    0.0000
     53 C22        5.7426   10.4952   17.4352 C.ar      1 RES1    0.0000
     54 C23        6.8946    9.8216   17.0518 C.ar      1 RES1    0.0000
     55 H25        7.4284   10.1560   16.3680 H         1 RES1    0.0000
     56 C24        7.2416    8.6479   17.6994 C.ar      1 RES1    0.0000
     57 H26        8.0222    8.2015   17.4653 H         1 RES1    0.0000
     58 C25        4.3336   12.4238   17.1022 C.3       1 RES1    0.0000
     59 H27        4.4150   12.7565   18.0100 H         1 RES1    0.0000
     60 H28        3.5332   11.8778   17.0421 H         1 RES1    0.0000
     61 C26        4.2648   13.5736   16.1203 C.3       1 RES1    0.0000
     62 H29        4.9906   14.1867   16.3168 H         1 RES1    0.0000
     63 H30        4.4134   13.2228   15.2276 H         1 RES1    0.0000
     64 C27        2.9755   14.3508   16.1146 C.3       1 RES1    0.0000
     65 H31        2.8380   14.7328   16.9962 H         1 RES1    0.0000
     66 H32        2.2426   13.7397   15.9420 H         1 RES1    0.0000
     67 C28        2.9328   15.4728   15.0820 C.3       1 RES1    0.0000
     68 H33        3.7260   16.0218   15.1898 H         1 RES1    0.0000
     69 H34        2.9679   15.0787   14.1977 H         1 RES1    0.0000
     70 C29        1.7161   16.3657   15.1656 C.3       1 RES1    0.0000
     71 H35        1.6853   16.7806   16.0418 H         1 RES1    0.0000
     72 H36        0.9173   15.8231   15.0658 H         1 RES1    0.0000
     73 C30        1.7158   17.4461   14.1033 C.3       1 RES1    0.0000
     74 H37        1.6796   17.0261   13.2298 H         1 RES1    0.0000
     75 H38        2.5506   17.9383   14.1599 H         1 RES1    0.0000
     76 C31        0.5295   18.4559   14.2246 C.3       1 RES1    0.0000
     77 H39        0.5824   18.9122   15.0685 H         1 RES1    0.0000
     78 H40       -0.3025   17.9804   14.1707 H         1 RES1    0.0000
     79 H41        0.5792   19.0957   13.5129 H         1 RES1    0.0000
     80 C32        4.2648   13.5736   16.1203 Du        2 SUP2    0.0000
     81 C33        5.5075   14.5141   16.1928 Du        2 SUP2    0.0000
     82 C34        5.4266   15.5738   15.1090 Du        2 SUP2    0.0000
     83 C35        6.5980   16.5375   15.0577 Du        2 SUP2    0.0000
     84 C36        6.5106   17.4914   13.8768 Du        2 SUP2    0.0000
     85 C37        7.6862   18.4439   13.7555 Du        2 SUP2    0.0000
     86 H42        3.4655   14.0930   16.2979 Du        2 SUP2    0.0000
     87 H43        4.1907   13.2168   15.2222 Du        2 SUP2    0.0000
     88 H44        5.5436   14.9402   17.0636 Du        2 SUP2    0.0000
     89 H45        6.3176   13.9922   16.0769 Du        2 SUP2    0.0000
     90 H46        5.3549   15.1304   14.2516 Du        2 SUP2    0.0000
     91 H47        4.6143   16.0868   15.2411 Du        2 SUP2    0.0000
     92 H48        7.4231   16.0311   14.9957 Du        2 SUP2    0.0000
     93 H49        6.6251   17.0510   15.8800 Du        2 SUP2    0.0000
     94 H50        6.4473   16.9713   13.0599 Du        2 SUP2    0.0000
     95 H51        5.6954   18.0109   13.9577 Du        2 SUP2    0.0000
     96 H52        7.6662   19.0701   14.4835 Du        2 SUP2    0.0000
     97 H53        7.6290   18.9192   12.9251 Du        2 SUP2    0.0000
     98 H54        8.5060   17.9458   13.7852 Du        2 SUP2    0.0000
@<TRIPOS>BOND
     1    1    4 1
     2    2   53 1
     3    3    8 1
     4    4    5 2
     5    5   26 1
     6    6    7 2
     7    7   48 1
     8    8    9 1
     9   10    8 1
    10   11    8 1
    11   12    3 1
    12   13   12 1
    13   14   12 1
    14   15   12 1
    15   16    3 1
    16   17   16 ar
    17   18   17 1
    18   19   17 ar
    19   20   19 1
    20   21    4 1
    21   22   21 ar
    22   23   22 1
    23   24   16 ar
    24   25   24 1
    25   26   27 ar
    26   27   28 ar
    27   28   29 ar
    28   29    6 1
    29   30   29 ar
    30   31   26 ar
    31   32   27 1
    32   33   32 1
    33   34   32 1
    34   35   32 1
    35   36   28 1
    36   37   36 1
    37   38   36 1
    38   39   36 1
    39   40   30 1
    40   41   40 1
    41   42   40 1
    42   43   40 1
    43   44   31 1
    44   45   44 1
    45   46   44 1
    46   47   44 1
    47   48   49 ar
    48   49   50 1
    49   51   49 ar
    50   52   51 1
    51   53   51 ar
    52   54   53 ar
    53   55   54 1
    54   56   48 ar
    55   57   56 1
    56   58    2 1
    57   59   58 1
    58   60   58 1
    59   61   58 1
    60   62   61 1
    61   63   61 1
    62   64   61 1
    63   65   64 1
    64   66   64 1
    65   67   64 1
    66   68   67 1
    67   69   67 1
    68   70   67 1
    69   71   70 1
    70   72   70 1
    71   73   70 1
    72   74   73 1
    73   75   73 1
    74   76   73 1
    75   77   76 1
    76   78   76 1
    77   79   76 1
    78   19   21 ar
    79   22   24 ar
    80   30   31 ar
    81   54   56 ar
@<TRIPOS>SUBSTRUCTURE
     1 RES1 1
     2 SUP2 80

@<TRIPOS>CRYSIN
   5.6665    9.3701   27.1800  82.7500  87.5280  75.1060   2 1

