# MOL2 file generated by ConQuest
# Please check atom types

@<TRIPOS>MOLECULE
CANFAA
    38    39     1
SMALL
NO_CHARGES
****
Generated from CSD

@<TRIPOS>ATOM
      1 C1        -6.1089    9.6621   10.1799 C.ar      1 RES1    0.0000
      2 N1        -7.3398    9.6279   10.9167 N.pl3     1 RES1    0.0000
      3 O1        -7.3831    9.0293   11.9868 O.2       1 RES1    0.0000
      4 O2        -8.3256   10.2157   10.4442 O.2       1 RES1    0.0000
      5 C2        -4.9628    9.0959   10.7253 C.ar      1 RES1    0.0000
      6 H1        -4.9961    8.6865   11.5815 H         1 RES1    0.0000
      7 C3        -3.7814    9.1299   10.0241 C.ar      1 RES1    0.0000
      8 H2        -3.0011    8.7439   10.4047 H         1 RES1    0.0000
      9 C4        -3.7067    9.7317    8.7399 C.ar      1 RES1    0.0000
     10 C5        -4.9032   10.2793    8.2136 C.ar      1 RES1    0.0000
     11 H3        -4.8928   10.6709    7.3483 H         1 RES1    0.0000
     12 C6        -6.0790   10.2568    8.9250 C.ar      1 RES1    0.0000
     13 H4        -6.8654   10.6446    8.5609 H         1 RES1    0.0000
     14 N2        -2.5248    9.8272    8.0588 N.3       1 RES1    0.0000
     15 C7        -1.3801    9.0037    8.4586 C.3       1 RES1    0.0000
     16 H5        -1.5366    8.0679    8.1744 H         1 RES1    0.0000
     17 H6        -1.3013    9.0121    9.4457 H         1 RES1    0.0000
     18 C8        -0.0836    9.5014    7.8491 C.3       1 RES1    0.0000
     19 H7         0.1372   10.3888    8.2290 H         1 RES1    0.0000
     20 H8         0.6488    8.8787    8.0839 H         1 RES1    0.0000
     21 C9        -1.2067   10.6001    6.1241 C.3       1 RES1    0.0000
     22 H9        -1.2603   10.7562    5.1481 H         1 RES1    0.0000
     23 H10       -0.9592   11.4554    6.5565 H         1 RES1    0.0000
     24 C10       -2.5513   10.1557    6.6321 C.3       1 RES1    0.0000
     25 H11       -3.2118   10.8771    6.4774 H         1 RES1    0.0000
     26 H12       -2.8451    9.3609    6.1210 H         1 RES1    0.0000
     27 N3        -0.1783    9.6085    6.3974 N.3       1 RES1    0.0000
     28 C11        1.0789   10.0491    5.7961 C.3       1 RES1    0.0000
     29 H13        1.4135   10.8368    6.2947 H         1 RES1    0.0000
     30 H14        0.9055   10.3345    4.8643 H         1 RES1    0.0000
     31 C12        2.1521    8.9804    5.7896 C.3       1 RES1    0.0000
     32 H15        2.3846    8.7454    6.7228 H         1 RES1    0.0000
     33 H16        1.7982    8.1671    5.3504 H         1 RES1    0.0000
     34 C13        3.3973    9.4328    5.0674 C.3       1 RES1    0.0000
     35 H17        3.7420   10.2632    5.4809 H         1 RES1    0.0000
     36 H18        4.0986    8.7377    5.1375 H         1 RES1    0.0000
     37 O3         3.0862    9.6672    3.7013 O.3       1 RES1    0.0000
     38 H19        3.7938    9.8229    3.2758 H         1 RES1    0.0000
@<TRIPOS>BOND
     1    1    2 1
     2    2    3 2
     3    4    2 2
     4    5    1 ar
     5    6    5 1
     6    7    5 ar
     7    8    7 1
     8    9    7 ar
     9   10    9 ar
    10   11   10 1
    11   12    1 ar
    12   13   12 1
    13   14    9 1
    14   15   14 1
    15   16   15 1
    16   17   15 1
    17   18   15 1
    18   19   18 1
    19   20   18 1
    20   21   22 1
    21   23   21 1
    22   24   14 1
    23   25   24 1
    24   26   24 1
    25   27   18 1
    26   28   27 1
    27   29   28 1
    28   30   28 1
    29   31   28 1
    30   32   31 1
    31   33   31 1
    32   34   31 1
    33   35   34 1
    34   36   34 1
    35   37   34 1
    36   38   37 1
    37   10   12 ar
    38   21   24 1
    39   21   27 1
@<TRIPOS>SUBSTRUCTURE
     1 RES1 1

@<TRIPOS>CRYSIN
  10.1903   15.5033    8.9660  90.0000 114.5600  90.0000  14 1

