# MOL2 file generated by ConQuest
# Please check atom types

@<TRIPOS>MOLECULE
CANJEH
    89    90     2
SMALL
NO_CHARGES
****
Generated from CSD

@<TRIPOS>ATOM
      1 O1        21.0320    6.1903   10.6244 O.3       1 RES1    0.0000
      2 C1        21.4911    6.6029   12.9232 C.ar      1 RES1    0.0000
      3 C2        21.9605    6.3278   11.6622 C.ar      1 RES1    0.0000
      4 C3        23.3202    6.3915   11.3145 C.ar      1 RES1    0.0000
      5 H1        23.6118    6.1762   10.4366 H         1 RES1    0.0000
      6 C4        24.2135    6.7711   12.2764 C.ar      1 RES1    0.0000
      7 H2        25.1305    6.8630   12.0422 H         1 RES1    0.0000
      8 C5        23.8182    7.0312   13.6038 C.ar      1 RES1    0.0000
      9 C6        24.7728    7.4893   14.5561 C.ar      1 RES1    0.0000
     10 H3        25.6859    7.5844   14.3091 H         1 RES1    0.0000
     11 C7        24.3766    7.7911   15.8198 C.ar      1 RES1    0.0000
     12 H4        24.9988    8.1730   16.4268 H         1 RES1    0.0000
     13 C8        23.0589    7.5475   16.2449 C.ar      1 RES1    0.0000
     14 C9        22.6434    7.8752   17.6580 C.2       1 RES1    0.0000
     15 O2        23.5084    8.2540   18.4534 O.2       1 RES1    0.0000
     16 C10       21.2198    7.8202   18.0162 C.2       1 RES1    0.0000
     17 C11       20.3770    7.1247   17.2299 C.2       1 RES1    0.0000
     18 C12       20.8939    6.4583   15.9858 C.2       1 RES1    0.0000
     19 O3        20.3622    5.4461   15.5447 O.2       1 RES1    0.0000
     20 C13       22.1275    7.0052   15.3667 C.ar      1 RES1    0.0000
     21 C14       22.4517    6.8567   13.9664 C.ar      1 RES1    0.0000
     22 C15       20.8062    8.5793   19.2384 C.3       1 RES1    0.0000
     23 H5        21.5858    8.6776   19.8413 H         1 RES1    0.0000
     24 H6        20.1089    8.0685   19.7204 H         1 RES1    0.0000
     25 C16       20.2607    9.9719   18.8826 C.3       1 RES1    0.0000
     26 H7        19.4378    9.8721   18.3386 H         1 RES1    0.0000
     27 H8        20.0190   10.4513   19.7152 H         1 RES1    0.0000
     28 C17       21.2766   10.7900   18.1091 C.3       1 RES1    0.0000
     29 H9        20.8891   11.6615   17.8806 H         1 RES1    0.0000
     30 H10       21.5184   10.3161   17.2862 H         1 RES1    0.0000
     31 H11       22.0770   10.9220   18.6603 H         1 RES1    0.0000
     32 C18       18.9199    6.9243   17.5407 C.3       1 RES1    0.0000
     33 H12       18.4136    6.9447   16.6893 H         1 RES1    0.0000
     34 H13       18.6094    7.6905   18.0865 H         1 RES1    0.0000
     35 C19       18.5629    5.6308   18.2812 C.3       1 RES1    0.0000
     36 H14       18.6897    4.8488   17.6876 H         1 RES1    0.0000
     37 H15       19.1424    5.5200   19.0771 H         1 RES1    0.0000
     38 H16       17.5756    5.5530   18.2949 Du        2 SUP2    0.0000
     39 H17       18.9080    4.8724   17.7468 Du        2 SUP2    0.0000
     40 C20       17.1171    5.7431   18.6963 C.3       1 RES1    0.0000
     41 H18       16.8468    4.9274   19.1697 H         1 RES1    0.0000
     42 H19       16.5578    5.8602   17.9012 H         1 RES1    0.0000
     43 H20       17.0073    6.5156   19.2907 H         1 RES1    0.0000
     44 C21       19.0429    5.4657   19.6586 Du        2 SUP2    0.0000
     45 H21       18.7571    4.5942   20.0034 Du        2 SUP2    0.0000
     46 H22       18.6737    6.1769   20.2222 Du        2 SUP2    0.0000
     47 H23       20.0222    5.5152   19.6715 Du        2 SUP2    0.0000
     48 C22       20.2087    5.0005   10.5974 C.3       1 RES1    0.0000
     49 C23       18.9610    5.3416    9.7707 C.ar      1 RES1    0.0000
     50 C24       18.0524    4.3333    9.5612 C.ar      1 RES1    0.0000
     51 H24       18.2113    3.4688    9.9220 H         1 RES1    0.0000
     52 C25       16.9033    4.5785    8.8214 C.ar      1 RES1    0.0000
     53 H25       16.2688    3.8822    8.6997 H         1 RES1    0.0000
     54 C26       16.6708    5.8044    8.2667 C.ar      1 RES1    0.0000
     55 H26       15.8964    5.9553    7.7374 H         1 RES1    0.0000
     56 C27       17.5624    6.8017    8.4849 C.ar      1 RES1    0.0000
     57 H27       17.3990    7.6599    8.1105 H         1 RES1    0.0000
     58 C28       18.7083    6.5974    9.2419 C.ar      1 RES1    0.0000
     59 H28       19.3126    7.3133    9.3970 H         1 RES1    0.0000
     60 O4        19.8703    4.6154   11.9377 O.3       1 RES1    0.0000
     61 C29       20.0350    6.6823   13.1221 C.ar      1 RES1    0.0000
     62 C30       19.2519    5.6512   12.6603 C.ar      1 RES1    0.0000
     63 C31       17.9060    5.5113   13.0138 C.ar      1 RES1    0.0000
     64 H29       17.4022    4.7592   12.7292 H         1 RES1    0.0000
     65 C32       17.3431    6.4811   13.7770 C.ar      1 RES1    0.0000
     66 C33       18.0049    7.7055   14.1213 C.ar      1 RES1    0.0000
     67 C34       17.3878    8.8261   14.7499 C.ar      1 RES1    0.0000
     68 H30       16.4711    8.7837   15.0013 H         1 RES1    0.0000
     69 C35       18.1038    9.9570   14.9933 C.ar      1 RES1    0.0000
     70 H31       17.6848   10.6910   15.4284 H         1 RES1    0.0000
     71 C36       19.4324   10.0544   14.6169 C.ar      1 RES1    0.0000
     72 H32       19.9066   10.8631   14.7723 H         1 RES1    0.0000
     73 C37       20.0735    8.9982   14.0222 C.ar      1 RES1    0.0000
     74 H33       20.9886    9.0744   13.7842 H         1 RES1    0.0000
     75 C38       19.3736    7.7903   13.7603 C.ar      1 RES1    0.0000
     76 C39       21.0005    3.8547    9.9948 C.ar      1 RES1    0.0000
     77 C40       20.7979    2.5501   10.4078 C.ar      1 RES1    0.0000
     78 H34       20.2020    2.3576   11.1210 H         1 RES1    0.0000
     79 C41       21.4840    1.5230    9.7593 C.ar      1 RES1    0.0000
     80 H35       21.3546    0.6271   10.0455 H         1 RES1    0.0000
     81 C42       22.3503    1.7776    8.7090 C.ar      1 RES1    0.0000
     82 H36       22.8059    1.0633    8.2803 H         1 RES1    0.0000
     83 C43       22.5439    3.0743    8.2929 C.ar      1 RES1    0.0000
     84 H37       23.1398    3.2684    7.5778 H         1 RES1    0.0000
     85 C44       21.8574    4.0912    8.9341 C.ar      1 RES1    0.0000
     86 H38       21.9775    4.9848    8.6354 H         1 RES1    0.0000
     87 N1        16.0026    6.1785   14.2921 N.pl3     1 RES1    0.0000
     88 O5        15.2818    5.4146   13.6689 O.2       1 RES1    0.0000
     89 O6        15.6716    6.6241   15.3880 O.2       1 RES1    0.0000
@<TRIPOS>BOND
     1    1    3 1
     2    2    3 ar
     3    3    4 ar
     4    4    5 1
     5    6    4 ar
     6    7    6 1
     7    8    6 ar
     8    9    8 ar
     9   10    9 1
    10   11    9 ar
    11   12   11 1
    12   13   11 ar
    13   14   13 1
    14   15   14 2
    15   16   14 1
    16   17   16 2
    17   18   17 1
    18   19   18 2
    19   20   13 ar
    20   21    2 ar
    21   22   16 1
    22   23   22 1
    23   24   22 1
    24   25   22 1
    25   26   25 1
    26   27   25 1
    27   28   25 1
    28   29   28 1
    29   30   28 1
    30   31   28 1
    31   32   17 1
    32   33   32 1
    33   34   32 1
    34   35   32 1
    35   36   35 1
    36   37   35 1
    37   40   35 1
    38   41   40 1
    39   42   40 1
    40   43   40 1
    41   48    1 1
    42   49   48 1
    43   50   49 ar
    44   51   50 1
    45   52   50 ar
    46   53   52 1
    47   54   52 ar
    48   55   54 1
    49   56   54 ar
    50   57   56 1
    51   58   49 ar
    52   59   58 1
    53   60   48 1
    54   61    2 1
    55   62   60 1
    56   63   62 ar
    57   64   63 1
    58   65   63 ar
    59   66   65 ar
    60   67   66 ar
    61   68   67 1
    62   69   67 ar
    63   70   69 1
    64   71   69 ar
    65   72   71 1
    66   73   71 ar
    67   74   73 1
    68   75   61 ar
    69   76   48 1
    70   77   76 ar
    71   78   77 1
    72   79   77 ar
    73   80   79 1
    74   81   79 ar
    75   82   81 1
    76   83   81 ar
    77   84   83 1
    78   85   76 ar
    79   86   85 1
    80   87   65 1
    81   88   87 2
    82   89   87 2
    83    8   21 ar
    84   18   20 1
    85   20   21 ar
    86   56   58 ar
    87   61   62 ar
    88   66   75 ar
    89   73   75 ar
    90   83   85 ar
@<TRIPOS>SUBSTRUCTURE
     1 RES1 1
     2 SUP2 38

@<TRIPOS>CRYSIN
  32.1074    7.8587   25.7312  90.0000  90.0000  90.0000  60 1

