# MOL2 file generated by ConQuest
# Please check atom types

@<TRIPOS>MOLECULE
CANKIL
    32    33     1
SMALL
NO_CHARGES
****
Generated from CSD

@<TRIPOS>ATOM
      1 O1         0.6289   13.5256    4.4907 O.2       1 RES1    0.0000
      2 N1         0.9009   12.3190    4.8156 N.pl3     1 RES1    0.0000
      3 N2        -1.2115   10.3170    2.6469 N.2       1 RES1    0.0000
      4 O2         1.8251   12.0747    5.6033 O.2       1 RES1    0.0000
      5 N3        -0.8562    8.0855    3.2698 N.3       1 RES1    0.0000
      6 N4         0.8060    9.0553    5.2708 N.2       1 RES1    0.0000
      7 N5        -1.1095   12.6512    2.6555 N.3       1 RES1    0.0000
      8 C1         0.2461    9.9014    4.4888 C.2       1 RES1    0.0000
      9 C2        -0.7410   11.4967    3.1634 C.2       1 RES1    0.0000
     10 C3         1.4483    9.3830    6.4754 C.ar      1 RES1    0.0000
     11 C4        -0.6508    9.3711    3.4030 C.2       1 RES1    0.0000
     12 C5         0.1583   11.3180    4.2617 C.2       1 RES1    0.0000
     13 C6         0.8419   10.1769    7.4357 C.ar      1 RES1    0.0000
     14 C7        -2.0223   12.8031    1.5410 C.3       1 RES1    0.0000
     15 C8         2.6718    8.7708    6.7485 C.ar      1 RES1    0.0000
     16 C9         2.6931    9.7956    8.9191 C.ar      1 RES1    0.0000
     17 C10        1.4658   10.3751    8.6537 C.ar      1 RES1    0.0000
     18 C11        3.2884    9.0091    7.9599 C.ar      1 RES1    0.0000
     19 C12       -1.7641    7.5001    2.3000 C.3       1 RES1    0.0000
     20 H1         3.0726    9.9505    9.7558 H         1 RES1    0.0000
     21 H2        -1.5456   12.9595    0.6900 H         1 RES1    0.0000
     22 H3         0.8209   10.9486    9.3437 H         1 RES1    0.0000
     23 H4        -2.5439   12.0509    1.4183 H         1 RES1    0.0000
     24 H5        -1.4965    7.6863    1.3608 H         1 RES1    0.0000
     25 H6         4.1305    8.6099    8.1170 H         1 RES1    0.0000
     26 H7        -2.5884   13.4809    1.6771 H         1 RES1    0.0000
     27 H8        -0.4168    7.5225    3.9483 H         1 RES1    0.0000
     28 H9        -0.0500   10.5613    7.2641 H         1 RES1    0.0000
     29 H10       -1.7546    6.5989    2.3479 H         1 RES1    0.0000
     30 H11       -2.6008    7.9694    2.2042 H         1 RES1    0.0000
     31 H12       -0.7021   13.3319    3.1241 H         1 RES1    0.0000
     32 H13        3.0562    8.2226    6.0566 H         1 RES1    0.0000
@<TRIPOS>BOND
     1    1    2 2
     2    2    4 2
     3    3    9 1
     4    5   11 1
     5    6    8 2
     6    7    9 1
     7    8   11 1
     8    9   12 2
     9   10    6 1
    10   11    3 2
    11   12    2 1
    12   13   10 ar
    13   14    7 1
    14   15   10 ar
    15   16   17 ar
    16   17   13 ar
    17   18   15 ar
    18   19    5 1
    19   20   16 1
    20   21   14 1
    21   22   17 1
    22   23   14 1
    23   24   19 1
    24   25   18 1
    25   26   14 1
    26   27    5 1
    27   28   13 1
    28   29   19 1
    29   30   19 1
    30   31    7 1
    31   32   15 1
    32    8   12 1
    33   16   18 ar
@<TRIPOS>SUBSTRUCTURE
     1 RES1 1

@<TRIPOS>CRYSIN
   8.9180   14.8960   10.2480  90.0000 110.7500  90.0000  14 2

