# MOL2 file generated by ConQuest
# Please check atom types

@<TRIPOS>MOLECULE
CANTAP
    98   104     2
SMALL
NO_CHARGES
****
Generated from CSD

@<TRIPOS>ATOM
      1 C1         2.6684   15.2120   16.8327 C.2       1 RES1    0.0000
      2 C2         3.4994   16.4263   17.0305 C.3       1 RES1    0.0000
      3 H1         4.0792   16.5555   16.2504 H         1 RES1    0.0000
      4 H2         4.0508   16.3185   17.8326 H         1 RES1    0.0000
      5 H3         2.9166   17.2080   17.1372 H         1 RES1    0.0000
      6 C3         2.3920   13.1657   14.1078 C.2       1 RES1    0.0000
      7 C4         1.6912   11.9453   13.6495 C.ar      1 RES1    0.0000
      8 C5         1.6644   10.7968   14.4312 C.ar      1 RES1    0.0000
      9 H4         2.1105   10.7880   15.2709 H         1 RES1    0.0000
     10 C6         0.9929    9.6683   13.9980 C.ar      1 RES1    0.0000
     11 H5         0.9889    8.8848   14.5348 H         1 RES1    0.0000
     12 C7         0.3334    9.6759   12.7972 C.ar      1 RES1    0.0000
     13 H6        -0.1183    8.8961   12.4942 H         1 RES1    0.0000
     14 C8         0.3290   10.8188   12.0296 C.ar      1 RES1    0.0000
     15 H7        -0.1519   10.8338   11.2119 H         1 RES1    0.0000
     16 C9         1.0144   11.9458   12.4362 C.ar      1 RES1    0.0000
     17 H8         1.0241   12.7204   11.8868 H         1 RES1    0.0000
     18 C10        3.1520   14.0009   13.1456 C.2       1 RES1    0.0000
     19 H9         3.0238   14.9419   13.1770 H         1 RES1    0.0000
     20 C11        4.0096   13.5121   12.2321 C.2       1 RES1    0.0000
     21 C12        4.5771   14.4023   11.1915 C.ar      1 RES1    0.0000
     22 C13        3.8428   15.4650   10.6876 C.ar      1 RES1    0.0000
     23 H10        2.9604   15.6215   11.0031 H         1 RES1    0.0000
     24 C14        4.3924   16.3123    9.7144 C.ar      1 RES1    0.0000
     25 H11        3.8794   17.0308    9.3644 H         1 RES1    0.0000
     26 C15        5.6638   16.1005    9.2687 C.ar      1 RES1    0.0000
     27 H12        6.0396   16.6883    8.6235 H         1 RES1    0.0000
     28 C16        6.4113   15.0420    9.7474 C.ar      1 RES1    0.0000
     29 H13        7.2885   14.8888    9.4162 H         1 RES1    0.0000
     30 C17        5.8789   14.2081   10.7049 C.ar      1 RES1    0.0000
     31 H14        6.4008   13.4884   11.0408 H         1 RES1    0.0000
     32 C18        4.4667   12.1115   12.2792 C.2       1 RES1    0.0000
     33 C19        4.7701   11.4155   13.4172 C.2       1 RES1    0.0000
     34 H15        4.7379   11.7773   14.2946 H         1 RES1    0.0000
     35 C20        5.0495    9.9603   11.7550 C.ar      1 RES1    0.0000
     36 C21        5.3343    8.8474   10.9796 C.ar      1 RES1    0.0000
     37 H16        5.6352    8.0361   11.3720 H         1 RES1    0.0000
     38 C22        5.1635    8.9622    9.6344 C.ar      1 RES1    0.0000
     39 H17        5.3556    8.2141    9.0803 H         1 RES1    0.0000
     40 C23        4.7140   10.1522    9.0364 C.ar      1 RES1    0.0000
     41 H18        4.5825   10.1878    8.0961 H         1 RES1    0.0000
     42 C24        4.4630   11.2702    9.8118 C.ar      1 RES1    0.0000
     43 H19        4.1729   12.0793    9.4068 H         1 RES1    0.0000
     44 C25        4.6384   11.1985   11.1977 C.ar      1 RES1    0.0000
     45 N1         5.1253   10.1296   13.1205 N.pl3     1 RES1    0.0000
     46 H20        5.4459    9.4997   13.7358 H         1 RES1    0.0000
     47 N2         2.2008   13.4728   15.3384 N.2       1 RES1    0.0000
     48 O1         2.9695   14.6625   15.6285 O.3       1 RES1    0.0000
     49 O2         1.8638   14.7749   17.6014 O.2       1 RES1    0.0000
     50 C26        3.7702   23.6183   16.7605 C.2       2 RES2    0.0000
     51 C27        3.0047   24.8597   16.9740 C.3       2 RES2    0.0000
     52 H21        2.3773   24.9886   16.2315 H         2 RES2    0.0000
     53 H22        3.6214   25.6217   17.0164 H         2 RES2    0.0000
     54 H23        2.5069   24.7960   17.8153 H         2 RES2    0.0000
     55 C28        3.9218   21.5361   14.0654 C.2       2 RES2    0.0000
     56 C29        4.6027   20.2921   13.5993 C.ar      2 RES2    0.0000
     57 C30        4.6291   19.1560   14.3747 C.ar      2 RES2    0.0000
     58 H24        4.2047   19.1531   15.2238 H         2 RES2    0.0000
     59 C31        5.2740   18.0118   13.9210 C.ar      2 RES2    0.0000
     60 H25        5.2720   17.2232   14.4500 H         2 RES2    0.0000
     61 C32        5.9157   18.0211   12.7046 C.ar      2 RES2    0.0000
     62 H26        6.3569   17.2385   12.3954 H         2 RES2    0.0000
     63 C33        5.9182   19.1448   11.9433 C.ar      2 RES2    0.0000
     64 H27        6.3784   19.1569   11.1114 H         2 RES2    0.0000
     65 C34        5.2482   20.2736   12.3812 C.ar      2 RES2    0.0000
     66 H28        5.2333   21.0507   11.8334 H         2 RES2    0.0000
     67 C35        3.1331   22.3578   13.1456 C.2       2 RES2    0.0000
     68 H29        3.2670   23.2975   13.1817 H         2 RES2    0.0000
     69 C36        2.2342   21.8999   12.2525 C.2       2 RES2    0.0000
     70 C37        1.6105   22.8301   11.2762 C.ar      2 RES2    0.0000
     71 C38        2.3061   23.9275   10.7786 C.ar      2 RES2    0.0000
     72 H30        3.2078   24.0674   11.0408 H         2 RES2    0.0000
     73 C39        1.7096   24.8120    9.9138 C.ar      2 RES2    0.0000
     74 H31        2.2010   25.5526    9.5794 H         2 RES2    0.0000
     75 C40        0.3909   24.6253    9.5292 C.ar      2 RES2    0.0000
     76 H32       -0.0313   25.2487    8.9500 H         2 RES2    0.0000
     77 C41       -0.2942   23.5421    9.9860 C.ar      2 RES2    0.0000
     78 H33       -1.1884   23.4030    9.6987 H         2 RES2    0.0000
     79 C42        0.2865   22.6354   10.8618 C.ar      2 RES2    0.0000
     80 H34       -0.2094   21.8889   11.1789 H         2 RES2    0.0000
     81 C43        1.7810   20.5009   12.2572 C.2       2 RES2    0.0000
     82 C44        1.5301   19.7465   13.3811 C.2       2 RES2    0.0000
     83 H35        1.6150   20.0622   14.2726 H         2 RES2    0.0000
     84 C45        1.1278   18.4016   11.6702 C.ar      2 RES2    0.0000
     85 C46        0.7750   17.3258   10.8524 C.ar      2 RES2    0.0000
     86 H36        0.5134   16.4900   11.2197 H         2 RES2    0.0000
     87 C47        0.8233   17.5295    9.4947 C.ar      2 RES2    0.0000
     88 H37        0.5885   16.8153    8.9139 H         2 RES2    0.0000
     89 C48        1.2092   18.7556    8.9406 C.ar      2 RES2    0.0000
     90 H38        1.2180   18.8633    7.9957 H         2 RES2    0.0000
     91 C49        1.5753   19.8087    9.7490 C.ar      2 RES2    0.0000
     92 H39        1.8626   20.6312    9.3707 H         2 RES2    0.0000
     93 C50        1.5156   19.6444   11.1428 C.ar      2 RES2    0.0000
     94 N3         4.1595   21.8257   15.3017 N.2       2 RES2    0.0000
     95 N4         1.1468   18.4991   13.0417 N.pl3     2 RES2    0.0000
     96 H40        1.0022   17.8021   13.6071 H         2 RES2    0.0000
     97 O3         3.3912   23.0321   15.6109 O.3       2 RES2    0.0000
     98 O4         4.6173   23.1784   17.4960 O.2       2 RES2    0.0000
@<TRIPOS>BOND
     1    1    2 1
     2    2    3 1
     3    4    2 1
     4    5    2 1
     5    6    7 1
     6    7    8 ar
     7    8    9 1
     8   10    8 ar
     9   11   10 1
    10   12   10 ar
    11   13   12 1
    12   14   12 ar
    13   15   14 1
    14   16    7 ar
    15   17   16 1
    16   18    6 1
    17   19   18 1
    18   20   18 2
    19   21   20 1
    20   22   21 ar
    21   23   22 1
    22   24   22 ar
    23   25   24 1
    24   26   24 ar
    25   27   26 1
    26   28   26 ar
    27   29   28 1
    28   30   21 ar
    29   31   30 1
    30   32   20 1
    31   33   32 2
    32   34   33 1
    33   35   36 ar
    34   36   37 1
    35   38   36 ar
    36   39   38 1
    37   40   38 ar
    38   41   40 1
    39   42   40 ar
    40   43   42 1
    41   44   32 1
    42   45   33 1
    43   46   45 1
    44   47    6 2
    45   48    1 1
    46   49    1 2
    47   50   51 1
    48   51   52 1
    49   53   51 1
    50   54   51 1
    51   55   56 1
    52   56   57 ar
    53   57   58 1
    54   59   57 ar
    55   60   59 1
    56   61   59 ar
    57   62   61 1
    58   63   61 ar
    59   64   63 1
    60   65   56 ar
    61   66   65 1
    62   67   55 1
    63   68   67 1
    64   69   67 2
    65   70   69 1
    66   71   70 ar
    67   72   71 1
    68   73   71 ar
    69   74   73 1
    70   75   73 ar
    71   76   75 1
    72   77   75 ar
    73   78   77 1
    74   79   70 ar
    75   80   79 1
    76   81   69 1
    77   82   81 2
    78   83   82 1
    79   84   85 ar
    80   85   86 1
    81   87   85 ar
    82   88   87 1
    83   89   87 ar
    84   90   89 1
    85   91   89 ar
    86   92   91 1
    87   93   81 1
    88   94   55 2
    89   95   82 1
    90   96   95 1
    91   97   50 1
    92   98   50 2
    93   14   16 ar
    94   28   30 ar
    95   35   44 ar
    96   35   45 1
    97   42   44 ar
    98   47   48 1
    99   63   65 ar
   100   77   79 ar
   101   84   93 ar
   102   84   95 1
   103   91   93 ar
   104   94   97 1
@<TRIPOS>SUBSTRUCTURE
     1 RES1 1
     2 RES2 50

@<TRIPOS>CRYSIN
   8.2571   16.8590   17.1654  66.4160  86.3950  89.7900   2 1

