# MOL2 file generated by ConQuest
# Please check atom types

@<TRIPOS>MOLECULE
CAPXUM
   114   122     2
SMALL
NO_CHARGES
****
Generated from CSD

@<TRIPOS>ATOM
      1 O1         2.8079    7.4969    1.0860 O.3       1 RES1    0.0000
      2 O2         3.8862    8.1593   -0.8192 O.3       1 RES1    0.0000
      3 O3         2.3810    5.6965   -1.2936 O.3       1 RES1    0.0000
      4 O4         2.0280    4.9870    1.4792 O.3       1 RES1    0.0000
      5 O5         2.9191    5.3367    3.5046 O.2       1 RES1    0.0000
      6 O6        -4.0558    4.9241    2.4592 O.2       1 RES1    0.0000
      7 O7        -2.7324    5.4881    0.8067 O.2       1 RES1    0.0000
      8 O8        -2.3480    5.3310    6.9578 O.2       1 RES1    0.0000
      9 O9        -0.2680    5.2068    7.2901 O.2       1 RES1    0.0000
     10 O10        5.7229    5.5852   -2.7712 O.3       1 RES1    0.0000
     11 C1         3.3367    5.1069    0.8645 C.3       1 RES1    0.0000
     12 H1         3.9586    4.5215    1.3014 H         1 RES1    0.0000
     13 C2         3.8603    6.5674    0.9035 C.3       1 RES1    0.0000
     14 H2         4.5518    6.6774    1.5604 H         1 RES1    0.0000
     15 C3         4.3824    6.8658   -0.5165 C.3       1 RES1    0.0000
     16 H3         5.3427    6.8644   -0.5321 H         1 RES1    0.0000
     17 C4         3.8224    5.8079   -1.4324 C.3       1 RES1    0.0000
     18 C5         3.1837    4.7300   -0.5742 C.3       1 RES1    0.0000
     19 H4         3.2079    3.8091   -0.8395 H         1 RES1    0.0000
     20 C6         4.2959    5.5666   -2.8087 C.3       1 RES1    0.0000
     21 H5         4.0004    4.6971   -3.0880 H         1 RES1    0.0000
     22 H6         3.9513    6.2205   -3.4204 H         1 RES1    0.0000
     23 C7         3.0301    8.6319    0.2309 C.3       1 RES1    0.0000
     24 C8         1.7398    9.0102   -0.3433 C.3       1 RES1    0.0000
     25 H7         1.3304    8.2692   -0.7958 H         1 RES1    0.0000
     26 H8         1.1617    9.3143    0.3604 H         1 RES1    0.0000
     27 H9         1.8864    9.7241   -0.9674 H         1 RES1    0.0000
     28 C9         3.7779    9.7041    1.0049 C.3       1 RES1    0.0000
     29 H10        4.5979    9.3314    1.3373 H         1 RES1    0.0000
     30 H11        3.9748   10.4336    0.4119 H         1 RES1    0.0000
     31 H12        3.2501   10.0225    1.7414 H         1 RES1    0.0000
     32 C10        1.9629    5.1768    2.7775 C.2       1 RES1    0.0000
     33 C11        0.5368    5.1911    3.2862 C.ar      1 RES1    0.0000
     34 C12       -0.5523    5.2068    2.4046 C.ar      1 RES1    0.0000
     35 H13       -0.4160    5.2182    1.4543 H         1 RES1    0.0000
     36 C13       -1.8028    5.2011    2.9351 C.ar      1 RES1    0.0000
     37 C14       -2.0616    5.1954    4.2677 C.ar      1 RES1    0.0000
     38 H14       -2.9622    5.1826    4.6000 H         1 RES1    0.0000
     39 C15       -0.9765    5.2454    5.1056 C.ar      1 RES1    0.0000
     40 C16        0.3389    5.2397    4.6437 C.ar      1 RES1    0.0000
     41 H15        1.0822    5.2739    5.2507 H         1 RES1    0.0000
     42 C17        6.3095    5.3325   -4.0086 C.3       1 RES1    0.0000
     43 H16        5.9713    5.9592   -4.6515 H         1 RES1    0.0000
     44 H17        6.0866    4.4459   -4.3051 H         1 RES1    0.0000
     45 C18        7.8235    5.4795   -3.9103 C.ar      1 RES1    0.0000
     46 C19        8.4474    5.5538   -2.6558 C.ar      1 RES1    0.0000
     47 H18        7.9330    5.5052   -1.8459 H         1 RES1    0.0000
     48 C20        9.8291    5.7051   -2.5965 C.ar      1 RES1    0.0000
     49 H19       10.2653    5.7750   -1.7445 H         1 RES1    0.0000
     50 C21       10.5794    5.7593   -3.7527 C.ar      1 RES1    0.0000
     51 H20       11.5351    5.8207   -3.6888 H         1 RES1    0.0000
     52 C22        9.9795    5.6908   -4.9620 C.ar      1 RES1    0.0000
     53 H21       10.5117    5.7893   -5.7547 H         1 RES1    0.0000
     54 C23        8.5696    5.5495   -5.0588 C.ar      1 RES1    0.0000
     55 H22        8.1481    5.4752   -5.9185 H         1 RES1    0.0000
     56 N1        -2.9464    5.2068    1.9739 N.pl3     1 RES1    0.0000
     57 N2        -1.2115    5.2568    6.5474 N.pl3     1 RES1    0.0000
     58 O11        3.8706    6.8216    8.8302 O.3       2 RES2    0.0000
     59 O12        2.7360    6.1448    6.9484 O.3       2 RES2    0.0000
     60 O13        4.1879    8.7061    6.5318 O.3       2 RES2    0.0000
     61 O14        4.5354    9.3343    9.3046 O.3       2 RES2    0.0000
     62 O15        3.6996    8.9888   11.3440 O.2       2 RES2    0.0000
     63 O16       10.6039    9.1944   10.0583 O.2       2 RES2    0.0000
     64 O17        9.2440    8.7689    8.4979 O.2       2 RES2    0.0000
     65 O18        7.0049    8.8046   15.0484 O.2       2 RES2    0.0000
     66 O19        9.0858    8.8632   14.6333 O.2       2 RES2    0.0000
     67 O20        0.8505    8.6533    5.0479 O.3       2 RES2    0.0000
     68 C24        3.2380    9.1687    8.7023 C.3       2 RES2    0.0000
     69 H23        2.6093    9.7341    9.1595 H         2 RES2    0.0000
     70 C25        2.7731    7.7024    8.7070 C.3       2 RES2    0.0000
     71 H24        2.1005    7.5325    9.3701 H         2 RES2    0.0000
     72 C26        2.2530    7.4269    7.2823 C.3       2 RES2    0.0000
     73 H25        1.2928    7.4140    7.2605 H         2 RES2    0.0000
     74 C27        2.7612    8.5177    6.4226 C.3       2 RES2    0.0000
     75 C28        3.3268    9.5742    7.2652 C.3       2 RES2    0.0000
     76 H26        3.2395   10.4936    7.0030 H         2 RES2    0.0000
     77 C29        2.2673    8.7104    5.0151 C.3       2 RES2    0.0000
     78 H27        2.5833    9.5385    4.6468 H         2 RES2    0.0000
     79 H28        2.5934    7.9908    4.4721 H         2 RES2    0.0000
     80 C30        3.6816    5.7565    7.9580 C.3       2 RES2    0.0000
     81 C31        4.9865    5.4295    7.2386 C.3       2 RES2    0.0000
     82 H29        5.2733    6.2291    6.7908 H         2 RES2    0.0000
     83 H30        5.6295    5.1911    7.9096 H         2 RES2    0.0000
     84 H31        4.9081    4.7171    6.6004 H         2 RES2    0.0000
     85 C32        3.1465    4.5401    8.6851 C.3       2 RES2    0.0000
     86 H32        2.2962    4.7557    9.0752 H         2 RES2    0.0000
     87 H33        3.0407    3.8120    8.0688 H         2 RES2    0.0000
     88 H34        3.7611    4.2860    9.3779 H         2 RES2    0.0000
     89 C33        4.6112    9.1287   10.6153 C.2       2 RES2    0.0000
     90 C34        6.0576    9.1073   11.0600 C.ar      2 RES2    0.0000
     91 C35        7.1025    9.0773   10.1238 C.ar      2 RES2    0.0000
     92 H35        6.9337    9.0973    9.2094 H         2 RES2    0.0000
     93 C36        8.3857    9.0145   10.6138 C.ar      2 RES2    0.0000
     94 C37        8.7084    8.9717   11.9635 C.ar      2 RES2    0.0000
     95 H36        9.6180    9.0016   12.2693 H         2 RES2    0.0000
     96 C38        7.6374    8.9474   12.8435 C.ar      2 RES2    0.0000
     97 C39        6.3013    9.0202   12.4363 C.ar      2 RES2    0.0000
     98 H37        5.5878    9.0102   13.0776 H         2 RES2    0.0000
     99 C40        0.2571    8.9688    3.7980 C.3       2 RES2    0.0000
    100 H38        0.6227    8.3863    3.1286 H         2 RES2    0.0000
    101 H39        0.4495    9.8768    3.5514 H         2 RES2    0.0000
    102 C41       -1.2198    8.7461    3.8885 C.ar      2 RES2    0.0000
    103 C42       -1.8819    8.6975    5.0806 C.ar      2 RES2    0.0000
    104 H40       -1.3835    8.7889    5.8967 H         2 RES2    0.0000
    105 C43       -3.2514    8.4920    5.1337 C.ar      2 RES2    0.0000
    106 H41       -3.6850    8.4277    5.9872 H         2 RES2    0.0000
    107 C44       -3.9567    8.3820    3.9821 C.ar      2 RES2    0.0000
    108 H42       -4.9118    8.2835    4.0118 H         2 RES2    0.0000
    109 C45       -3.3251    8.4420    2.7759 C.ar      2 RES2    0.0000
    110 H43       -3.8234    8.3520    1.9614 H         2 RES2    0.0000
    111 C46       -1.9524    8.6076    2.7244 C.ar      2 RES2    0.0000
    112 H44       -1.5062    8.6447    1.8756 H         2 RES2    0.0000
    113 N3         9.4803    8.9774    9.6370 N.pl3     2 RES2    0.0000
    114 N4         7.9398    8.8475   14.2775 N.pl3     2 RES2    0.0000
@<TRIPOS>BOND
     1    1   13 1
     2    2   15 1
     3    3   17 1
     4    4   11 1
     5    5   32 2
     6    6   56 2
     7    7   56 2
     8    8   57 2
     9    9   57 2
    10   10   20 1
    11   11   12 1
    12   13   11 1
    13   14   13 1
    14   15   13 1
    15   16   15 1
    16   17   15 1
    17   18    3 1
    18   19   18 1
    19   20   17 1
    20   21   20 1
    21   22   20 1
    22   23    1 1
    23   24   23 1
    24   25   24 1
    25   26   24 1
    26   27   24 1
    27   28   23 1
    28   29   28 1
    29   30   28 1
    30   31   28 1
    31   32    4 1
    32   33   32 1
    33   34   33 ar
    34   35   34 1
    35   36   34 ar
    36   37   36 ar
    37   38   37 1
    38   39   37 ar
    39   40   33 ar
    40   41   40 1
    41   42   10 1
    42   43   42 1
    43   44   42 1
    44   45   42 1
    45   46   45 ar
    46   47   46 1
    47   48   46 ar
    48   49   48 1
    49   50   48 ar
    50   51   50 1
    51   52   50 ar
    52   53   52 1
    53   54   45 ar
    54   55   54 1
    55   56   36 1
    56   57   39 1
    57   58   70 1
    58   59   72 1
    59   60   74 1
    60   61   68 1
    61   62   89 2
    62   63  113 2
    63   64  113 2
    64   65  114 2
    65   66  114 2
    66   67   77 1
    67   68   69 1
    68   70   68 1
    69   71   70 1
    70   72   70 1
    71   73   72 1
    72   74   72 1
    73   75   60 1
    74   76   75 1
    75   77   74 1
    76   78   77 1
    77   79   77 1
    78   80   58 1
    79   81   80 1
    80   82   81 1
    81   83   81 1
    82   84   81 1
    83   85   80 1
    84   86   85 1
    85   87   85 1
    86   88   85 1
    87   89   61 1
    88   90   89 1
    89   91   90 ar
    90   92   91 1
    91   93   91 ar
    92   94   93 ar
    93   95   94 1
    94   96   94 ar
    95   97   90 ar
    96   98   97 1
    97   99   67 1
    98  100   99 1
    99  101   99 1
   100  102   99 1
   101  103  102 ar
   102  104  103 1
   103  105  103 ar
   104  106  105 1
   105  107  105 ar
   106  108  107 1
   107  109  107 ar
   108  110  109 1
   109  111  102 ar
   110  112  111 1
   111  113   93 1
   112  114   96 1
   113    2   23 1
   114   11   18 1
   115   17   18 1
   116   39   40 ar
   117   52   54 ar
   118   59   80 1
   119   68   75 1
   120   74   75 1
   121   96   97 ar
   122  109  111 ar
@<TRIPOS>SUBSTRUCTURE
     1 RES1 1
     2 RES2 58

@<TRIPOS>CRYSIN
  10.5170   14.2770   15.6040  90.0000  90.2300  90.0000   4 1

