# MOL2 file generated by ConQuest
# Please check atom types

@<TRIPOS>MOLECULE
CAQBOO
   138   148     2
SMALL
NO_CHARGES
****
Generated from CSD

@<TRIPOS>ATOM
      1 O1         8.2959    8.3949    9.1774 O.3       1 RES1    0.0000
      2 N1         7.1665    4.1125    7.1776 N.3       1 RES1    0.0000
      3 O2         6.0965    8.7433    6.9826 O.2       1 RES1    0.0000
      4 O3        10.0170    7.1260   10.6728 O.2       1 RES1    0.0000
      5 N2         8.4705    7.0151    9.0557 N.am      1 RES1    0.0000
      6 O4         4.9686    8.7741    8.9139 O.3       1 RES1    0.0000
      7 C1         8.4715    2.8972    8.5686 C.ar      1 RES1    0.0000
      8 C2         7.7828    4.9639    8.0557 C.2       1 RES1    0.0000
      9 C3        10.8540    4.4548    9.9488 C.ar      1 RES1    0.0000
     10 C4         7.5555    6.4420    8.0671 C.3       1 RES1    0.0000
     11 H1         7.7821    6.8097    7.1655 H         1 RES1    0.0000
     12 C5         5.7602    8.2121    8.0085 C.2       1 RES1    0.0000
     13 C6         7.5827    2.8261    7.4727 C.ar      1 RES1    0.0000
     14 C7        13.4544    3.4005    9.8088 C.ar      1 RES1    0.0000
     15 C8        11.4342    3.9221   11.0562 C.ar      1 RES1    0.0000
     16 H2        10.9497    3.9104   11.8720 H         1 RES1    0.0000
     17 C9         9.4081    4.9287    9.9731 C.3       1 RES1    0.0000
     18 H3         9.0248    4.6442   10.8533 H         1 RES1    0.0000
     19 C10       12.7489    3.3848   11.0219 C.ar      1 RES1    0.0000
     20 C11        8.5850    4.2807    8.9144 C.2       1 RES1    0.0000
     21 C12        6.3154    4.4667    6.0525 C.3       1 RES1    0.0000
     22 H4         5.3805    4.4945    6.3468 H         1 RES1    0.0000
     23 H5         6.4147    3.7970    5.3438 H         1 RES1    0.0000
     24 H6         6.5757    5.3457    5.7095 H         1 RES1    0.0000
     25 C13       11.5837    4.4984    8.7486 C.ar      1 RES1    0.0000
     26 H7        11.1871    4.8851    7.9771 H         1 RES1    0.0000
     27 C14        9.3370    6.4440    9.9288 C.2       1 RES1    0.0000
     28 C15        6.1106    6.8188    8.4057 C.3       1 RES1    0.0000
     29 H8         5.4975    6.1908    7.9471 H         1 RES1    0.0000
     30 H9         5.9719    6.7181    9.3816 H         1 RES1    0.0000
     31 C16        7.2824    1.6270    6.8297 C.ar      1 RES1    0.0000
     32 H10        6.7182    1.6050    6.0653 H         1 RES1    0.0000
     33 C17        9.1330   10.5472    8.5800 C.ar      1 RES1    0.0000
     34 C18       12.8474    3.9960    8.6715 C.ar      1 RES1    0.0000
     35 H11       13.3262    4.0461    7.8528 H         1 RES1    0.0000
     36 C19        9.0166    1.7069    9.0615 C.ar      1 RES1    0.0000
     37 H12        9.6044    1.7183    9.8088 H         1 RES1    0.0000
     38 C20        7.8282    0.4863    7.3412 C.ar      1 RES1    0.0000
     39 H13        7.6190   -0.3487    6.9383 H         1 RES1    0.0000
     40 C21       13.3648    2.8256   12.1549 C.ar      1 RES1    0.0000
     41 H14       12.8996    2.8185   12.9836 H         1 RES1    0.0000
     42 C22        8.2902   11.3226    7.8113 C.ar      1 RES1    0.0000
     43 H15        7.7502   10.9171    7.1441 H         1 RES1    0.0000
     44 C23       14.7421    2.8226    9.7459 C.ar      1 RES1    0.0000
     45 H16       15.2179    2.8180    8.9244 H         1 RES1    0.0000
     46 C24        9.2578    9.0744    8.3343 C.3       1 RES1    0.0000
     47 H17        9.0776    8.8715    7.3827 H         1 RES1    0.0000
     48 H18       10.1738    8.7696    8.5515 H         1 RES1    0.0000
     49 C25        9.8913   11.1556    9.5502 C.ar      1 RES1    0.0000
     50 H19       10.4586   10.6282   10.1003 H         1 RES1    0.0000
     51 C26        8.6881    0.5142    8.4471 C.ar      1 RES1    0.0000
     52 H20        9.0513   -0.2977    8.7786 H         1 RES1    0.0000
     53 C27        8.2298   12.6853    8.0114 C.ar      1 RES1    0.0000
     54 H21        7.6431   13.2143    7.4856 H         1 RES1    0.0000
     55 C28       15.3060    2.2692   10.8590 C.ar      1 RES1    0.0000
     56 H22       16.1647    1.8691   10.8047 H         1 RES1    0.0000
     57 C29       14.6208    2.2909   12.0849 C.ar      1 RES1    0.0000
     58 H23       15.0291    1.9342   12.8650 H         1 RES1    0.0000
     59 C30        8.9974   13.2683    8.9444 C.ar      1 RES1    0.0000
     60 H24        8.9633   14.2101    9.0630 H         1 RES1    0.0000
     61 C31        4.5488   10.1343    8.6729 C.3       1 RES1    0.0000
     62 H25        4.3579   10.2703    7.7113 H         1 RES1    0.0000
     63 H26        5.2615   10.7676    8.9444 H         1 RES1    0.0000
     64 C32        9.8376   12.5069    9.7345 C.ar      1 RES1    0.0000
     65 H27       10.3754   12.9221   10.3989 H         1 RES1    0.0000
     66 C33        3.3094   10.3655    9.4873 C.3       1 RES1    0.0000
     67 H28        2.6178    9.7254    9.2187 H         1 RES1    0.0000
     68 H29        2.9841   11.2776    9.3373 H         1 RES1    0.0000
     69 H30        3.5146   10.2448   10.4375 H         1 RES1    0.0000
     70 O5         5.9073    0.0648    2.6530 O.3       2 RES2    0.0000
     71 O6         5.3173    2.1837    4.0445 O.2       2 RES2    0.0000
     72 N3         2.0552    1.1019   -0.1496 N.3       2 RES2    0.0000
     73 O7         5.1627   -2.2455    0.6087 O.2       2 RES2    0.0000
     74 O8         3.8611   -3.2984    2.0895 O.3       2 RES2    0.0000
     75 N4         4.8760    0.9246    2.2372 N.am      2 RES2    0.0000
     76 C34        2.9638    1.2869    0.8744 C.2       2 RES2    0.0000
     77 C35        1.2653    2.2301   -0.2243 C.ar      2 RES2    0.0000
     78 C36        1.7022    3.1305    0.7644 C.ar      2 RES2    0.0000
     79 C37        4.6455    1.9955    3.0448 C.2       2 RES2    0.0000
     80 C38        4.6288    5.2629    3.1191 C.ar      2 RES2    0.0000
     81 H31        4.1365    5.2553    3.9321 H         2 RES2    0.0000
     82 C39        4.0087    0.2891    1.2388 C.3       2 RES2    0.0000
     83 H32        4.5549    0.0927    0.4258 H         2 RES2    0.0000
     84 C40        4.2811   -2.2312    1.4188 C.2       2 RES2    0.0000
     85 C41        2.7903    2.4994    1.4545 C.2       2 RES2    0.0000
     86 C42        3.6339    3.0214    2.5604 C.3       2 RES2    0.0000
     87 H33        3.0337    3.2507    3.3263 H         2 RES2    0.0000
     88 C43        4.4478    4.2606    2.2089 C.ar      2 RES2    0.0000
     89 C44        5.5563    6.3233    2.8605 C.ar      2 RES2    0.0000
     90 C45        0.2143    2.5334   -1.0816 C.ar      2 RES2    0.0000
     91 H34       -0.0704    1.9199   -1.7489 H         2 RES2    0.0000
     92 C46        8.2571   -0.3018    2.5876 C.ar      2 RES2    0.0000
     93 C47        5.1395    4.3252    0.9802 C.ar      2 RES2    0.0000
     94 H35        4.9970    3.6491    0.3286 H         2 RES2    0.0000
     95 C48       -0.4004    3.7539   -0.9287 C.ar      2 RES2    0.0000
     96 H36       -1.1204    3.9847   -1.5045 H         2 RES2    0.0000
     97 C49        1.0437    4.3631    0.8873 C.ar      2 RES2    0.0000
     98 H37        1.3146    4.9890    1.5488 H         2 RES2    0.0000
     99 C50        6.0184    5.3517    0.7044 C.ar      2 RES2    0.0000
    100 H38        6.4607    5.3823   -0.1357 H         2 RES2    0.0000
    101 C51        6.2609    6.3343    1.6431 C.ar      2 RES2    0.0000
    102 C52        3.4492   -1.0368    1.7789 C.3       2 RES2    0.0000
    103 H39        3.3835   -0.9782    2.7648 H         2 RES2    0.0000
    104 H40        2.5347   -1.1656    1.4231 H         2 RES2    0.0000
    105 C53        1.9493   -0.0559   -1.0273 C.3       2 RES2    0.0000
    106 H41        2.8418   -0.4261   -1.1888 H         2 RES2    0.0000
    107 H42        1.5490    0.2166   -1.8803 H         2 RES2    0.0000
    108 H43        1.3842   -0.7365   -0.6044 H         2 RES2    0.0000
    109 C54        7.1551    0.5646    2.1075 C.3       2 RES2    0.0000
    110 H44        7.3056    1.4965    2.4033 H         2 RES2    0.0000
    111 H45        7.1206    0.5519    1.1173 H         2 RES2    0.0000
    112 C55        0.0043    4.6539    0.0414 C.ar      2 RES2    0.0000
    113 H46       -0.4475    5.4868    0.1229 H         2 RES2    0.0000
    114 C56        8.5228   -1.5016    1.9846 C.ar      2 RES2    0.0000
    115 H47        7.9767   -1.7946    1.2645 H         2 RES2    0.0000
    116 C57        7.2429    7.3755    1.4317 C.ar      2 RES2    0.0000
    117 H48        7.7028    7.4340    0.6015 H         2 RES2    0.0000
    118 C58        5.8428    7.2944    3.8364 C.ar      2 RES2    0.0000
    119 H49        5.3580    7.2984    4.6536 H         2 RES2    0.0000
    120 C59        9.0536    0.1013    3.6406 C.ar      2 RES2    0.0000
    121 H50        8.8705    0.9206    4.0836 H         2 RES2    0.0000
    122 C60        9.5687   -2.2944    2.4047 C.ar      2 RES2    0.0000
    123 H51        9.7363   -3.1297    1.9832 H         2 RES2    0.0000
    124 C61        7.5001    8.2469    2.3904 C.ar      2 RES2    0.0000
    125 H52        8.1696    8.9063    2.2475 H         2 RES2    0.0000
    126 C62       10.3656   -1.8697    3.4334 C.ar      2 RES2    0.0000
    127 H53       11.0987   -2.4042    3.7192 H         2 RES2    0.0000
    128 C63        6.8066    8.2295    3.6206 C.ar      2 RES2    0.0000
    129 H54        7.0138    8.8676    4.2936 H         2 RES2    0.0000
    130 C64       10.1088   -0.6742    4.0507 C.ar      2 RES2    0.0000
    131 H55       10.6628   -0.3810    4.7651 H         2 RES2    0.0000
    132 C65        4.5021   -4.5580    1.7774 C.3       2 RES2    0.0000
    133 H56        5.4542   -4.5324    2.0461 H         2 RES2    0.0000
    134 H57        4.4544   -4.7325    0.8044 H         2 RES2    0.0000
    135 C66        3.7952   -5.6232    2.5204 C.3       2 RES2    0.0000
    136 H58        2.8705   -5.6855    2.1989 H         2 RES2    0.0000
    137 H59        3.7957   -5.4101    3.4763 H         2 RES2    0.0000
    138 H60        4.2498   -6.4789    2.3747 H         2 RES2    0.0000
@<TRIPOS>BOND
     1    1    5 1
     2    2    8 1
     3    3   12 2
     4    4   27 2
     5    5   10 1
     6    6   12 1
     7    7   13 ar
     8    8   10 1
     9    9   15 ar
    10   10   11 1
    11   12   28 1
    12   13    2 1
    13   14   19 ar
    14   15   16 1
    15   17    9 1
    16   18   17 1
    17   19   15 ar
    18   20    7 1
    19   21    2 1
    20   22   21 1
    21   23   21 1
    22   24   21 1
    23   25    9 ar
    24   26   25 1
    25   27    5 1
    26   28   10 1
    27   29   28 1
    28   30   28 1
    29   31   13 ar
    30   32   31 1
    31   33   42 ar
    32   34   14 ar
    33   35   34 1
    34   36    7 ar
    35   37   36 1
    36   38   31 ar
    37   39   38 1
    38   40   19 ar
    39   41   40 1
    40   42   43 1
    41   44   14 ar
    42   45   44 1
    43   46    1 1
    44   47   46 1
    45   48   46 1
    46   49   33 ar
    47   50   49 1
    48   51   36 ar
    49   52   51 1
    50   53   42 ar
    51   54   53 1
    52   55   44 ar
    53   56   55 1
    54   57   40 ar
    55   58   57 1
    56   59   53 ar
    57   60   59 1
    58   61    6 1
    59   62   61 1
    60   63   61 1
    61   64   49 ar
    62   65   64 1
    63   66   61 1
    64   67   66 1
    65   68   66 1
    66   69   66 1
    67   70   75 1
    68   71   79 2
    69   72   76 1
    70   73   84 2
    71   74   84 1
    72   75   79 1
    73   76   82 1
    74   77   72 1
    75   78   77 ar
    76   79   86 1
    77   80   81 1
    78   82   75 1
    79   83   82 1
    80   84  102 1
    81   85   76 2
    82   86   85 1
    83   87   86 1
    84   88   80 ar
    85   89   80 ar
    86   90   77 ar
    87   91   90 1
    88   92  109 1
    89   93   88 ar
    90   94   93 1
    91   95   90 ar
    92   96   95 1
    93   97   78 ar
    94   98   97 1
    95   99   93 ar
    96  100   99 1
    97  101   89 ar
    98  102   82 1
    99  103  102 1
   100  104  102 1
   101  105   72 1
   102  106  105 1
   103  107  105 1
   104  108  105 1
   105  109   70 1
   106  110  109 1
   107  111  109 1
   108  112   95 ar
   109  113  112 1
   110  114   92 ar
   111  115  114 1
   112  116  101 ar
   113  117  116 1
   114  118   89 ar
   115  119  118 1
   116  120   92 ar
   117  121  120 1
   118  122  114 ar
   119  123  122 1
   120  124  116 ar
   121  125  124 1
   122  126  122 ar
   123  127  126 1
   124  128  118 ar
   125  129  128 1
   126  130  120 ar
   127  131  130 1
   128  132   74 1
   129  133  132 1
   130  134  132 1
   131  135  132 1
   132  136  135 1
   133  137  135 1
   134  138  135 1
   135    8   20 2
   136   17   20 1
   137   17   27 1
   138   25   34 ar
   139   33   46 1
   140   38   51 ar
   141   55   57 ar
   142   59   64 ar
   143   78   85 1
   144   86   88 1
   145   97  112 ar
   146   99  101 ar
   147  124  128 ar
   148  126  130 ar
@<TRIPOS>SUBSTRUCTURE
     1 RES1 1
     2 RES2 70

@<TRIPOS>CRYSIN
  14.0080   14.1820   15.9490 115.2660  90.4300 105.1690   2 1

