# MOL2 file generated by ConQuest
# Please check atom types

@<TRIPOS>MOLECULE
CAQLIP
    40    40     1
SMALL
NO_CHARGES
****
Generated from CSD

@<TRIPOS>ATOM
      1 O1         2.1238    3.7806  -13.8289 O.2       1 RES1    0.0000
      2 O2         0.4175    4.1102  -12.5609 O.2       1 RES1    0.0000
      3 O3         1.6870    1.5642  -11.0987 O.3       1 RES1    0.0000
      4 O4        -0.6908    1.9712   -8.8917 O.2       1 RES1    0.0000
      5 O5         1.0125    0.5673   -8.4794 O.3       1 RES1    0.0000
      6 O6         1.6043   -1.1181  -11.3471 O.2       1 RES1    0.0000
      7 O7        -0.4977   -1.1921  -10.5217 O.3       1 RES1    0.0000
      8 N1         1.0352    3.4489  -13.3916 N.pl3     1 RES1    0.0000
      9 N2        -3.0813    0.8783  -11.1738 N.1       1 RES1    0.0000
     10 C1        -0.3175    1.3386  -13.1308 C.ar      1 RES1    0.0000
     11 C2         0.4354    2.2158  -13.9374 C.ar      1 RES1    0.0000
     12 C3         0.6651    1.9701  -15.2748 C.ar      1 RES1    0.0000
     13 C4         0.1451    0.8333  -15.8643 C.ar      1 RES1    0.0000
     14 C5        -0.5534   -0.0772  -15.0908 C.ar      1 RES1    0.0000
     15 C6        -0.7797    0.1768  -13.7459 C.ar      1 RES1    0.0000
     16 C7        -0.6092    1.5688  -11.6517 C.3       1 RES1    0.0000
     17 C8         0.4908    0.9281  -10.7380 C.3       1 RES1    0.0000
     18 C9        -1.9915    1.1450  -11.3471 C.1       1 RES1    0.0000
     19 C10        0.1753    1.2363   -9.2605 C.2       1 RES1    0.0000
     20 C11        0.8451    0.7108   -7.0230 C.3       1 RES1    0.0000
     21 C12        1.5920    1.8668   -6.4893 C.3       1 RES1    0.0000
     22 C13        0.6195   -0.5878  -10.9220 C.2       1 RES1    0.0000
     23 C14       -0.5048   -2.6700  -10.5224 C.3       1 RES1    0.0000
     24 C15        0.0674   -3.1847   -9.2499 C.3       1 RES1    0.0000
     25 H1         2.3164    1.0194  -11.0697 H         1 RES1    0.0000
     26 H2         1.1857    2.6015  -15.6984 H         1 RES1    0.0000
     27 H3         0.2894    0.7497  -16.7704 H         1 RES1    0.0000
     28 H4        -0.8484   -0.9032  -15.4738 H         1 RES1    0.0000
     29 H5        -1.3313   -0.4271  -13.1881 H         1 RES1    0.0000
     30 H6        -0.5818    2.4662  -11.4934 H         1 RES1    0.0000
     31 H7         1.2518   -0.1746   -6.6626 H         1 RES1    0.0000
     32 H8        -0.1109    0.8635   -6.8511 H         1 RES1    0.0000
     33 H9         1.1897    2.6506   -6.8179 H         1 RES1    0.0000
     34 H10        1.5180    1.8876   -5.5228 H         1 RES1    0.0000
     35 H11        2.4835    1.7633   -6.6626 H         1 RES1    0.0000
     36 H12        0.1000   -2.8887  -11.3125 H         1 RES1    0.0000
     37 H13       -1.4009   -2.9565  -10.5722 H         1 RES1    0.0000
     38 H14        0.9957   -3.0865   -9.0961 H         1 RES1    0.0000
     39 H15       -0.0541   -4.1564   -9.0901 H         1 RES1    0.0000
     40 H16       -0.5075   -2.8489   -8.4960 H         1 RES1    0.0000
@<TRIPOS>BOND
     1    1    8 2
     2    2    8 2
     3    3   17 1
     4    4   19 2
     5    5   19 1
     6    6   22 2
     7    7   22 1
     8    8   11 1
     9    9   18 3
    10   10   11 ar
    11   11   12 ar
    12   12   13 ar
    13   13   14 ar
    14   14   15 ar
    15   15   10 ar
    16   16   10 1
    17   17   16 1
    18   18   16 1
    19   19   17 1
    20   20    5 1
    21   21   20 1
    22   22   17 1
    23   23    7 1
    24   24   23 1
    25   25    3 1
    26   26   12 1
    27   27   13 1
    28   28   14 1
    29   29   15 1
    30   30   16 1
    31   31   20 1
    32   32   20 1
    33   33   21 1
    34   34   21 1
    35   35   21 1
    36   36   23 1
    37   37   23 1
    38   38   24 1
    39   39   24 1
    40   40   24 1
@<TRIPOS>SUBSTRUCTURE
     1 RES1 1

@<TRIPOS>CRYSIN
   7.6680    7.9610   15.2440  86.7800  81.5600  61.9200   2 1

