# MOL2 file generated by ConQuest
# Please check atom types

@<TRIPOS>MOLECULE
CAQRAQ
    66    71     1
SMALL
NO_CHARGES
****
Generated from CSD

@<TRIPOS>ATOM
      1 O1         0.7586   22.2166    6.9119 O.2       1 RES1    0.0000
      2 O2         0.5684   22.3964    4.7707 O.2       1 RES1    0.0000
      3 O3        -0.6255   15.4728    6.5513 O.2       1 RES1    0.0000
      4 O4        -0.8959   15.7138    4.3347 O.3       1 RES1    0.0000
      5 O5        -0.8546   11.1654    5.0848 O.3       1 RES1    0.0000
      6 O6         1.5043   13.1457    7.0621 O.3       1 RES1    0.0000
      7 O7        -0.0147   13.3189    8.7222 O.2       1 RES1    0.0000
      8 O8         5.2880   18.0758    9.9211 O.2       1 RES1    0.0000
      9 O9         3.6412   18.6287   11.2097 O.2       1 RES1    0.0000
     10 N1         0.5455   21.7431    5.8052 N.pl3     1 RES1    0.0000
     11 N2         4.1332   17.9394   10.3187 N.pl3     1 RES1    0.0000
     12 C1         0.2522   20.3017    5.7206 C.ar      1 RES1    0.0000
     13 C2         0.2202   19.5683    6.8929 C.ar      1 RES1    0.0000
     14 H1         0.3715   19.9848    7.7332 H         1 RES1    0.0000
     15 C3        -0.0376   18.2176    6.8096 C.ar      1 RES1    0.0000
     16 H2        -0.0547   17.6909    7.6002 H         1 RES1    0.0000
     17 C4        -0.2735   17.6186    5.5749 C.ar      1 RES1    0.0000
     18 C5        -0.2248   18.3815    4.4085 C.ar      1 RES1    0.0000
     19 H3        -0.3770   17.9693    3.5663 H         1 RES1    0.0000
     20 C6         0.0456   19.7380    4.4737 C.ar      1 RES1    0.0000
     21 H4         0.0877   20.2663    3.6853 H         1 RES1    0.0000
     22 C7        -0.6038   16.1652    5.5575 C.2       1 RES1    0.0000
     23 C8        -1.2960   14.3073    4.2629 C.3       1 RES1    0.0000
     24 H5        -2.0401   14.1337    4.9083 H         1 RES1    0.0000
     25 C9        -1.7739   14.0404    2.8430 C.3       1 RES1    0.0000
     26 H6        -1.3484   14.6660    2.2044 H         1 RES1    0.0000
     27 H7        -2.7569   14.1342    2.7779 H         1 RES1    0.0000
     28 C10       -1.3446   12.6029    2.5625 C.3       1 RES1    0.0000
     29 H8        -1.2314   12.4573    1.5899 H         1 RES1    0.0000
     30 H9        -2.0222   11.9655    2.9021 H         1 RES1    0.0000
     31 C11       -0.0031   12.4111    3.2993 C.3       1 RES1    0.0000
     32 C12       -0.1246   13.3495    4.5484 C.3       1 RES1    0.0000
     33 H10        0.7245   13.8557    4.7013 H         1 RES1    0.0000
     34 C13        1.1496   13.9176    1.5637 C.3       1 RES1    0.0000
     35 H11        0.4260   13.8047    0.9122 H         1 RES1    0.0000
     36 H12        1.9962   14.0569    1.0905 H         1 RES1    0.0000
     37 H13        0.9603   14.6942    2.1306 H         1 RES1    0.0000
     38 C14        1.2517   12.6692    2.4304 C.3       1 RES1    0.0000
     39 H14        2.0155   12.8137    3.0592 H         1 RES1    0.0000
     40 C15        1.6156   11.4475    1.5537 C.3       1 RES1    0.0000
     41 H15        0.7791   11.0514    1.2030 H         1 RES1    0.0000
     42 H16        2.1439   11.7633    0.7782 H         1 RES1    0.0000
     43 C16        2.3960   10.3704    2.2556 C.2       1 RES1    0.0000
     44 H17        2.9516    9.8205    1.7156 H         1 RES1    0.0000
     45 C17        2.3824   10.1146    3.5612 C.2       1 RES1    0.0000
     46 H18        2.9976    9.4775    3.9047 H         1 RES1    0.0000
     47 C18        1.4589   10.7726    4.4966 C.2       1 RES1    0.0000
     48 C19        0.0597   11.0376    3.9875 C.3       1 RES1    0.0000
     49 H19       -0.2339   10.3138    3.3631 H         1 RES1    0.0000
     50 C20        1.7881   11.2174    5.7096 C.2       1 RES1    0.0000
     51 H20        2.6597   11.0503    6.0493 H         1 RES1    0.0000
     52 C21        0.8047   11.9764    6.5424 C.3       1 RES1    0.0000
     53 H21        0.5083   11.4034    7.3065 H         1 RES1    0.0000
     54 C22       -0.4117   12.3817    5.7179 C.3       1 RES1    0.0000
     55 H22       -1.1290   12.7500    6.3094 H         1 RES1    0.0000
     56 C23        0.9786   13.7122    8.1646 C.2       1 RES1    0.0000
     57 C24        1.7984   14.8641    8.6415 C.ar      1 RES1    0.0000
     58 C25        3.1025   15.0679    8.2023 C.ar      1 RES1    0.0000
     59 H23        3.4673   14.5076    7.5277 H         1 RES1    0.0000
     60 C26        3.8678   16.0819    8.7429 C.ar      1 RES1    0.0000
     61 H24        4.7648   16.2162    8.4605 H         1 RES1    0.0000
     62 C27        3.3014   16.8944    9.7013 C.ar      1 RES1    0.0000
     63 C28        1.9912   16.7468   10.1266 C.ar      1 RES1    0.0000
     64 H25        1.6160   17.3400   10.7667 H         1 RES1    0.0000
     65 C29        1.2464   15.7142    9.5948 C.ar      1 RES1    0.0000
     66 H26        0.3499   15.5828    9.8814 H         1 RES1    0.0000
@<TRIPOS>BOND
     1    1   10 2
     2    2   10 2
     3    3   22 2
     4    4   22 1
     5    5   48 1
     6    6   52 1
     7    7   56 2
     8    8   11 2
     9    9   11 2
    10   10   12 1
    11   11   62 1
    12   12   13 ar
    13   13   14 1
    14   15   13 ar
    15   16   15 1
    16   17   15 ar
    17   18   17 ar
    18   19   18 1
    19   20   12 ar
    20   21   20 1
    21   22   17 1
    22   23    4 1
    23   24   23 1
    24   25   23 1
    25   26   25 1
    26   27   25 1
    27   28   25 1
    28   29   28 1
    29   30   28 1
    30   31   28 1
    31   32   23 1
    32   33   32 1
    33   34   35 1
    34   36   34 1
    35   37   34 1
    36   38   31 1
    37   39   38 1
    38   40   38 1
    39   41   40 1
    40   42   40 1
    41   43   40 1
    42   44   43 1
    43   45   43 2
    44   46   45 1
    45   47   45 1
    46   48   31 1
    47   49   48 1
    48   50   47 2
    49   51   50 1
    50   52   50 1
    51   53   52 1
    52   54    5 1
    53   55   54 1
    54   56    6 1
    55   57   56 1
    56   58   57 ar
    57   59   58 1
    58   60   58 ar
    59   61   60 1
    60   62   60 ar
    61   63   62 ar
    62   64   63 1
    63   65   57 ar
    64   66   65 1
    65   18   20 ar
    66   31   32 1
    67   32   54 1
    68   34   38 1
    69   47   48 1
    70   52   54 1
    71   63   65 ar
@<TRIPOS>SUBSTRUCTURE
     1 RES1 1

@<TRIPOS>CRYSIN
   6.6679   38.7460   10.4761  90.0000 108.3750  90.0000 231 1

