# MOL2 file generated by ConQuest
# Please check atom types

@<TRIPOS>MOLECULE
CAQWUP
    66    70     2
SMALL
NO_CHARGES
****
Generated from CSD

@<TRIPOS>ATOM
      1 C1         5.9106    9.3096   31.9298 C.3       1 RES1    0.0000
      2 H1         6.6376    9.5829   31.3003 H         1 RES1    0.0000
      3 C2         4.7304   10.2837   31.7842 C.3       1 RES1    0.0000
      4 H2         5.0259   11.2019   32.0040 H         1 RES1    0.0000
      5 H3         4.4067   10.2793   30.8473 H         1 RES1    0.0000
      6 N1         3.6447    9.8810   32.6862 N.3       1 RES1    0.0000
      7 C3         4.1150    9.9235   34.0774 C.3       1 RES1    0.0000
      8 H4         3.3769    9.6645   34.6832 H         1 RES1    0.0000
      9 H5         4.3919   10.8462   34.3069 H         1 RES1    0.0000
     10 C4         5.2870    8.9787   34.2728 C.3       1 RES1    0.0000
     11 H6         5.5966    9.0497   35.2198 H         1 RES1    0.0000
     12 C5         4.9157    7.5274   33.9927 C.3       1 RES1    0.0000
     13 H7         5.5185    6.9428   34.5160 H         1 RES1    0.0000
     14 H8         3.9937    7.3712   34.3174 H         1 RES1    0.0000
     15 N2         4.9864    7.1157   32.5670 N.am      1 RES1    0.0000
     16 C6         4.5236    5.7797   32.3817 C.2       1 RES1    0.0000
     17 C7         4.5466    5.3024   31.0257 C.2       1 RES1    0.0000
     18 H9         4.2281    4.4286   30.8334 H         1 RES1    0.0000
     19 C8         5.0132    6.0751   30.0251 C.2       1 RES1    0.0000
     20 H10        5.0474    5.7327   29.1402 H         1 RES1    0.0000
     21 C9         5.4515    7.3943   30.2857 C.2       1 RES1    0.0000
     22 C10        5.4426    7.9204   31.5664 C.2       1 RES1    0.0000
     23 C11        6.4457    9.3567   33.3551 C.3       1 RES1    0.0000
     24 H11        6.7731   10.2660   33.5718 H         1 RES1    0.0000
     25 H12        7.1935    8.7179   33.4638 H         1 RES1    0.0000
     26 C12        2.5047   10.7690   32.5012 C.3       1 RES1    0.0000
     27 H13        1.7725   10.4887   33.0875 H         1 RES1    0.0000
     28 H14        2.2078   10.7300   31.5685 H         1 RES1    0.0000
     29 H15        2.7674   11.6872   32.7217 H         1 RES1    0.0000
     30 O1         4.1344    5.1392   33.3551 O.2       1 RES1    0.0000
     31 O2         6.3459    7.4688   28.1779 O.2       1 RES1    0.0000
     32 O3         6.0111    9.3584   29.1646 O.2       1 RES1    0.0000
     33 N3         5.9672    8.1342   29.1475 N.pl3     1 RES1    0.0000
     34 O4        -0.0685    3.6923   31.9448 O.2       2 RES2    0.0000
     35 O5         2.1051    8.9353   29.7272 O.2       2 RES2    0.0000
     36 O6         2.7756    7.6853   28.1155 O.2       2 RES2    0.0000
     37 N4         2.1870    7.8361   29.1802 N.pl3     2 RES2    0.0000
     38 C13        1.2360    5.3796   27.6936 C.3       2 RES2    0.0000
     39 H16        1.1772    6.2730   27.2484 H         2 RES2    0.0000
     40 C14        2.5687    4.7187   27.3072 C.3       2 RES2    0.0000
     41 H17        2.6134    4.6069   26.3251 H         2 RES2    0.0000
     42 H18        3.3218    5.2971   27.5863 H         2 RES2    0.0000
     43 N5         2.6818    3.4155   27.9570 N.3       2 RES2    0.0000
     44 C15        1.5991    2.5390   27.4992 C.3       2 RES2    0.0000
     45 H19        1.6922    1.6474   27.9208 H         2 RES2    0.0000
     46 H20        1.6564    2.4246   26.5167 H         2 RES2    0.0000
     47 C16        0.2485    3.1414   27.8671 C.3       2 RES2    0.0000
     48 H21       -0.4733    2.5337   27.5341 H         2 RES2    0.0000
     49 C17        0.0975    3.2940   29.3729 C.3       2 RES2    0.0000
     50 H22       -0.8624    3.2141   29.6001 H         2 RES2    0.0000
     51 H23        0.5715    2.5443   29.8126 H         2 RES2    0.0000
     52 N6         0.6132    4.5776   29.9384 N.am      2 RES2    0.0000
     53 C18        0.4301    4.6389   31.3536 C.2       2 RES2    0.0000
     54 C19        0.8669    5.8516   31.9744 C.2       2 RES2    0.0000
     55 H24        0.7612    5.9554   32.9133 H         2 RES2    0.0000
     56 C20        1.4272    6.8585   31.2574 C.2       2 RES2    0.0000
     57 H25        1.7093    7.6560   31.6905 H         2 RES2    0.0000
     58 C21        1.5865    6.7103   29.8628 C.2       2 RES2    0.0000
     59 C22        1.1675    5.5712   29.1907 C.2       2 RES2    0.0000
     60 C23        0.0826    4.5049   27.2006 C.3       2 RES2    0.0000
     61 H26       -0.7865    4.9077   27.4504 H         2 RES2    0.0000
     62 H27        0.1161    4.4135   26.2171 H         2 RES2    0.0000
     63 C24        3.9818    2.8122   27.6971 C.3       2 RES2    0.0000
     64 H28        4.0198    1.9251   28.1124 H         2 RES2    0.0000
     65 H29        4.6865    3.3800   28.0741 H         2 RES2    0.0000
     66 H30        4.1150    2.7253   26.7292 H         2 RES2    0.0000
@<TRIPOS>BOND
     1    1    2 1
     2    3    1 1
     3    4    3 1
     4    5    3 1
     5    6    3 1
     6    7    6 1
     7    8    7 1
     8    9    7 1
     9   10    7 1
    10   11   10 1
    11   12   10 1
    12   13   12 1
    13   14   12 1
    14   15   12 1
    15   16   15 1
    16   17   16 1
    17   18   17 1
    18   19   17 2
    19   20   19 1
    20   21   19 1
    21   22    1 1
    22   23    1 1
    23   24   23 1
    24   25   23 1
    25   26    6 1
    26   27   26 1
    27   28   26 1
    28   29   26 1
    29   30   16 2
    30   31   33 2
    31   32   33 2
    32   33   21 1
    33   34   53 2
    34   35   37 2
    35   36   37 2
    36   37   58 1
    37   38   39 1
    38   40   38 1
    39   41   40 1
    40   42   40 1
    41   43   40 1
    42   44   43 1
    43   45   44 1
    44   46   44 1
    45   47   44 1
    46   48   47 1
    47   49   47 1
    48   50   49 1
    49   51   49 1
    50   52   49 1
    51   53   52 1
    52   54   53 1
    53   55   54 1
    54   56   54 2
    55   57   56 1
    56   58   56 1
    57   59   38 1
    58   60   38 1
    59   61   60 1
    60   62   60 1
    61   63   43 1
    62   64   63 1
    63   65   63 1
    64   66   63 1
    65   10   23 1
    66   15   22 1
    67   21   22 2
    68   47   60 1
    69   52   59 1
    70   58   59 2
@<TRIPOS>SUBSTRUCTURE
     1 RES1 1
     2 RES2 34

@<TRIPOS>CRYSIN
   7.4413    8.8714   34.8400  90.0000  90.0000  90.0000  19 1

