# MOL2 file generated by ConQuest
# Please check atom types

@<TRIPOS>MOLECULE
CAQXAW
    66    70     2
SMALL
NO_CHARGES
****
Generated from CSD

@<TRIPOS>ATOM
      1 O1         7.5926    0.8493   12.9888 O.2       1 RES1    0.0000
      2 O2         8.7979   -1.9654   15.7015 O.2       1 RES1    0.0000
      3 O3         7.0915   -0.7838   15.0944 O.2       1 RES1    0.0000
      4 N1         8.3025   -0.9907   15.1392 N.pl3     1 RES1    0.0000
      5 C1        11.9487    2.7521   12.8385 C.3       1 RES1    0.0000
      6 H1        12.6184    3.0235   13.5299 H         1 RES1    0.0000
      7 C2        12.6773    2.0610   11.6825 C.3       1 RES1    0.0000
      8 H2        13.3414    2.6819   11.2911 H         1 RES1    0.0000
      9 H3        13.1618    1.2679   12.0236 H         1 RES1    0.0000
     10 N2        11.7283    1.6502   10.6563 N.3       1 RES1    0.0000
     11 C3        10.9884    2.8130   10.1490 C.3       1 RES1    0.0000
     12 H4        10.3433    2.5161    9.4589 H         1 RES1    0.0000
     13 H5        11.6214    3.4461    9.7256 H         1 RES1    0.0000
     14 C4        10.2392    3.5213   11.2698 C.3       1 RES1    0.0000
     15 H6         9.7812    4.3220   10.8845 H         1 RES1    0.0000
     16 C5         9.1848    2.6301   11.9151 C.3       1 RES1    0.0000
     17 H7         8.4787    3.2065   12.3018 H         1 RES1    0.0000
     18 H8         8.7656    2.0762   11.2104 H         1 RES1    0.0000
     19 N3         9.7036    1.7250   12.9873 N.am      1 RES1    0.0000
     20 C6         8.7144    0.8285   13.4816 C.2       1 RES1    0.0000
     21 C7         9.2020   -0.0322   14.5279 C.2       1 RES1    0.0000
     22 C8        10.4888    0.0186   14.9945 C.2       1 RES1    0.0000
     23 H9        10.7689   -0.5762   15.6798 H         1 RES1    0.0000
     24 C9        11.3857    0.9384   14.4674 C.2       1 RES1    0.0000
     25 H10       12.2732    0.9878   14.8024 H         1 RES1    0.0000
     26 C10       10.9773    1.7819   13.4522 C.2       1 RES1    0.0000
     27 C11       11.2167    3.9962   12.3389 C.3       1 RES1    0.0000
     28 H11       10.7305    4.4338   13.0821 H         1 RES1    0.0000
     29 H12       11.8592    4.6451   11.9561 H         1 RES1    0.0000
     30 C12       12.4166    0.9558    9.5743 C.3       1 RES1    0.0000
     31 H13       12.8528    0.1511    9.9281 H         1 RES1    0.0000
     32 H14       13.0930    1.5480    9.1840 H         1 RES1    0.0000
     33 H15       11.7694    0.7003    8.8844 H         1 RES1    0.0000
     34 O4         3.6710   -0.5377   12.3825 O.2       2 RES2    0.0000
     35 O5         4.3132    0.5762    8.4188 O.2       2 RES2    0.0000
     36 O6         3.5242   -0.9368    9.7438 O.2       2 RES2    0.0000
     37 N4         4.0705    0.1419    9.5539 N.pl3     2 RES2    0.0000
     38 C13        5.5804    3.5305   13.8963 C.3       2 RES2    0.0000
     39 H16        6.4404    3.9805   13.6550 H         2 RES2    0.0000
     40 C14        4.5100    4.6004   14.1208 C.3       2 RES2    0.0000
     41 H17        4.7985    5.2078   14.8468 H         2 RES2    0.0000
     42 H18        4.4032    5.1378   13.2961 H         2 RES2    0.0000
     43 N5         3.2258    3.9891   14.4756 N.3       2 RES2    0.0000
     44 C15        3.3651    3.1317   15.6584 C.3       2 RES2    0.0000
     45 H19        2.5001    2.6844   15.8394 H         2 RES2    0.0000
     46 H20        3.5858    3.6942   16.4419 H         2 RES2    0.0000
     47 C16        4.4476    2.0724   15.4824 C.3       2 RES2    0.0000
     48 H21        4.5396    1.5836   16.3498 H         2 RES2    0.0000
     49 C17        4.1574    1.0384   14.3936 C.3       2 RES2    0.0000
     50 H22        4.6586    0.2101   14.6015 H         2 RES2    0.0000
     51 H23        3.1928    0.8170   14.4155 H         2 RES2    0.0000
     52 N6         4.5129    1.4770   13.0176 N.am      2 RES2    0.0000
     53 C18        4.1718    0.5210   12.0268 C.2       2 RES2    0.0000
     54 C19        4.4463    0.9726   10.6789 C.2       2 RES2    0.0000
     55 C20        5.0599    2.1732   10.4231 C.2       2 RES2    0.0000
     56 H24        5.2195    2.4387    9.5247 H         2 RES2    0.0000
     57 C21        5.4457    2.9956   11.4577 C.2       2 RES2    0.0000
     58 H25        5.9005    3.8097   11.2763 H         2 RES2    0.0000
     59 C22        5.1676    2.6286   12.7623 C.2       2 RES2    0.0000
     60 C23        5.7830    2.7392   15.1833 C.3       2 RES2    0.0000
     61 H26        6.4917    2.0590   15.0641 H         2 RES2    0.0000
     62 H27        6.0439    3.3417   15.9234 H         2 RES2    0.0000
     63 C24        2.2319    5.0330   14.7120 C.3       2 RES2    0.0000
     64 H28        2.0780    5.5322   13.8822 H         2 RES2    0.0000
     65 H29        2.5584    5.6440   15.4049 H         2 RES2    0.0000
     66 H30        1.3923    4.6230   15.0065 H         2 RES2    0.0000
@<TRIPOS>BOND
     1    1   20 2
     2    2    4 2
     3    3    4 2
     4    4   21 1
     5    5    6 1
     6    7    5 1
     7    8    7 1
     8    9    7 1
     9   10    7 1
    10   11   10 1
    11   12   11 1
    12   13   11 1
    13   14   11 1
    14   15   14 1
    15   16   14 1
    16   17   16 1
    17   18   16 1
    18   19   16 1
    19   20   19 1
    20   21   20 1
    21   22   21 2
    22   23   22 1
    23   24   22 1
    24   25   24 1
    25   26    5 1
    26   27    5 1
    27   28   27 1
    28   29   27 1
    29   30   10 1
    30   31   30 1
    31   32   30 1
    32   33   30 1
    33   34   53 2
    34   35   37 2
    35   36   37 2
    36   37   54 1
    37   38   39 1
    38   40   38 1
    39   41   40 1
    40   42   40 1
    41   43   40 1
    42   44   43 1
    43   45   44 1
    44   46   44 1
    45   47   44 1
    46   48   47 1
    47   49   47 1
    48   50   49 1
    49   51   49 1
    50   52   49 1
    51   53   52 1
    52   54   53 1
    53   55   54 2
    54   56   55 1
    55   57   55 1
    56   58   57 1
    57   59   38 1
    58   60   38 1
    59   61   60 1
    60   62   60 1
    61   63   43 1
    62   64   63 1
    63   65   63 1
    64   66   63 1
    65   14   27 1
    66   19   26 1
    67   24   26 2
    68   47   60 1
    69   52   59 1
    70   57   59 2
@<TRIPOS>SUBSTRUCTURE
     1 RES1 1
     2 RES2 34

@<TRIPOS>CRYSIN
  11.6610   12.2855   16.4617  90.0000  90.0000  90.0000  19 1

