# MOL2 file generated by ConQuest
# Please check atom types

@<TRIPOS>MOLECULE
CARVOX
    26    26     1
SMALL
NO_CHARGES
****
Generated from CSD

@<TRIPOS>ATOM
      1 C1         0.2924    3.5102   -3.2766 C.2       1 RES1    0.0000
      2 C2        -4.2599    3.9471   -5.5154 C.2       1 RES1    0.0000
      3 C3        -0.4572    2.4753   -3.9663 C.2       1 RES1    0.0000
      4 C4        -1.7773    2.8055   -4.5884 C.3       1 RES1    0.0000
      5 C5        -1.8353    4.2178   -5.0299 C.3       1 RES1    0.0000
      6 C6        -1.4530    5.2082   -3.9292 C.3       1 RES1    0.0000
      7 C7        -0.1628    4.7468   -3.2518 C.2       1 RES1    0.0000
      8 C8         1.5485    3.1290   -2.5471 C.3       1 RES1    0.0000
      9 C9        -3.1483    4.6206   -5.6799 C.2       1 RES1    0.0000
     10 C10       -3.1152    5.9217   -6.4420 C.3       1 RES1    0.0000
     11 H1        -5.1819    4.3808   -5.7661 H         1 RES1    0.0000
     12 H2        -4.1793    2.9718   -5.2381 H         1 RES1    0.0000
     13 H3        -2.0398    1.9181   -5.2381 H         1 RES1    0.0000
     14 H4        -2.6580    2.6640   -4.1905 H         1 RES1    0.0000
     15 H5        -1.0464    4.3334   -5.6320 H         1 RES1    0.0000
     16 H6        -1.5586    6.2634   -4.1905 H         1 RES1    0.0000
     17 H7        -2.3055    5.1741   -3.1429 H         1 RES1    0.0000
     18 H8         0.2338    5.4701   -2.6233 H         1 RES1    0.0000
     19 H9         1.9518    3.9901   -2.0533 H         1 RES1    0.0000
     20 H10        2.2692    2.7469   -3.2435 H         1 RES1    0.0000
     21 H11        1.3342    2.3798   -1.8187 H         1 RES1    0.0000
     22 H12       -3.0752    6.7370   -5.7494 H         1 RES1    0.0000
     23 H13       -2.2477    5.9437   -7.0736 H         1 RES1    0.0000
     24 H14       -3.9972    6.0029   -7.0401 H         1 RES1    0.0000
     25 N1         0.0380    1.2975   -3.9571 N.2       1 RES1    0.0000
     26 O1        -0.7733    0.3166   -4.5807 O.3       1 RES1    0.0000
@<TRIPOS>BOND
     1    1    3 1
     2    2    9 2
     3    3    4 1
     4    4    5 1
     5    5    6 1
     6    6    7 1
     7    7    1 2
     8    8    1 1
     9    9    5 1
    10   10    9 1
    11   11    2 1
    12   12    2 1
    13   13    4 1
    14   14    4 1
    15   15    5 1
    16   16    6 1
    17   17    6 1
    18   18    7 1
    19   19    8 1
    20   20    8 1
    21   21    8 1
    22   22   10 1
    23   23   10 1
    24   24   10 1
    25   25    3 2
    26   26   25 1
@<TRIPOS>SUBSTRUCTURE
     1 RES1 1

@<TRIPOS>CRYSIN
   9.9050   11.8400    8.5210  90.0000 100.4000  90.0000  14 1

