# MOL2 file generated by ConQuest
# Please check atom types

@<TRIPOS>MOLECULE
CARWIE
    49    52     1
SMALL
NO_CHARGES
****
Generated from CSD

@<TRIPOS>ATOM
      1 O1        -1.4757    3.1908    9.5974 O.2       1 RES1    0.0000
      2 O2         3.4298    4.5519    7.6170 O.2       1 RES1    0.0000
      3 O3        -2.3506    9.9325    9.1195 O.2       1 RES1    0.0000
      4 O4        -3.1926    7.9930    8.8657 O.2       1 RES1    0.0000
      5 N1        -0.0154    1.5924   10.3375 N.am      1 RES1    0.0000
      6 N2         0.2088    2.8057    7.0872 N.3       1 RES1    0.0000
      7 N3         0.3071    5.5265   10.7263 N.1       1 RES1    0.0000
      8 N4         3.3426    4.2191    9.8393 N.am      1 RES1    0.0000
      9 H1         4.1945    4.0858    9.8497 H         1 RES1    0.0000
     10 H2         2.8248    4.0097   10.5765 H         1 RES1    0.0000
     11 N5        -2.2635    8.7750    8.7793 N.pl3     1 RES1    0.0000
     12 C1         1.2362    1.0971    9.9450 C.ar      1 RES1    0.0000
     13 C2         1.9928    0.1085   10.5498 C.ar      1 RES1    0.0000
     14 H3         1.7084   -0.3052   11.3321 H         1 RES1    0.0000
     15 C3         3.1881   -0.2413    9.9466 C.ar      1 RES1    0.0000
     16 H4         3.7165   -0.9003   10.3350 H         1 RES1    0.0000
     17 C4         3.6112    0.3586    8.7931 C.ar      1 RES1    0.0000
     18 H5         4.4093    0.0870    8.4009 H         1 RES1    0.0000
     19 C5         2.8599    1.3742    8.1965 C.ar      1 RES1    0.0000
     20 H6         3.1497    1.7845    7.4142 H         1 RES1    0.0000
     21 C6         1.6774    1.7537    8.7968 C.ar      1 RES1    0.0000
     22 C7         0.6919    2.8488    8.4619 C.3       1 RES1    0.0000
     23 C8        -0.4178    2.5924    9.5215 C.2       1 RES1    0.0000
     24 C9        -0.7941    1.0888   11.4496 C.3       1 RES1    0.0000
     25 H7        -1.5787    1.6315   11.5632 H         1 RES1    0.0000
     26 H8        -0.2660    1.1196   12.2506 H         1 RES1    0.0000
     27 H9        -1.0552    0.1823   11.2732 H         1 RES1    0.0000
     28 C10        1.2306    4.3506    8.5934 C.3       1 RES1    0.0000
     29 C11        0.7008    5.0496    7.2850 C.3       1 RES1    0.0000
     30 H10        1.4304    5.0044    6.6331 H         1 RES1    0.0000
     31 C12       -0.3814    4.1101    6.7823 C.3       1 RES1    0.0000
     32 H11       -1.2165    4.2430    7.2570 H         1 RES1    0.0000
     33 H12       -0.5329    4.2180    5.8301 H         1 RES1    0.0000
     34 C13       -0.6413    1.6687    6.7685 C.3       1 RES1    0.0000
     35 H13       -0.2331    0.8622    7.0930 H         1 RES1    0.0000
     36 H14       -0.7541    1.6103    5.8174 H         1 RES1    0.0000
     37 H15       -1.4985    1.7830    7.1854 H         1 RES1    0.0000
     38 C14        0.7036    5.0088    9.7972 C.1       1 RES1    0.0000
     39 C15        2.7967    4.3906    8.6447 C.2       1 RES1    0.0000
     40 C16        0.3692    6.5058    7.4501 C.ar      1 RES1    0.0000
     41 C17        1.3252    7.4478    7.0948 C.ar      1 RES1    0.0000
     42 H16        2.1213    7.1636    6.7082 H         1 RES1    0.0000
     43 C18        1.1189    8.7983    7.3039 C.ar      1 RES1    0.0000
     44 H17        1.7807    9.4077    7.0675 H         1 RES1    0.0000
     45 C19       -0.0560    9.2464    7.8592 C.ar      1 RES1    0.0000
     46 H18       -0.2025   10.1526    8.0069 H         1 RES1    0.0000
     47 C20       -1.0045    8.3147    8.1875 C.ar      1 RES1    0.0000
     48 C21       -0.8282    6.9520    7.9892 C.ar      1 RES1    0.0000
     49 H19       -1.5004    6.3496    8.2137 H         1 RES1    0.0000
@<TRIPOS>BOND
     1    1   23 2
     2    2   39 2
     3    3   11 2
     4    4   11 2
     5    5   12 1
     6    6   22 1
     7    7   38 3
     8    8    9 1
     9   10    8 1
    10   11   47 1
    11   12   13 ar
    12   13   14 1
    13   15   13 ar
    14   16   15 1
    15   17   15 ar
    16   18   17 1
    17   19   17 ar
    18   20   19 1
    19   21   12 ar
    20   22   21 1
    21   23    5 1
    22   24    5 1
    23   25   24 1
    24   26   24 1
    25   27   24 1
    26   28   22 1
    27   29   28 1
    28   30   29 1
    29   31    6 1
    30   32   31 1
    31   33   31 1
    32   34    6 1
    33   35   34 1
    34   36   34 1
    35   37   34 1
    36   38   28 1
    37   39    8 1
    38   40   29 1
    39   41   40 ar
    40   42   41 1
    41   43   41 ar
    42   44   43 1
    43   45   43 ar
    44   46   45 1
    45   47   45 ar
    46   48   40 ar
    47   49   48 1
    48   19   21 ar
    49   22   23 1
    50   28   39 1
    51   29   31 1
    52   47   48 ar
@<TRIPOS>SUBSTRUCTURE
     1 RES1 1

@<TRIPOS>CRYSIN
   7.4997   11.6641   11.8285  95.9140 100.1180  96.1530   2 1

