# MOL2 file generated by ConQuest
# Please check atom types

@<TRIPOS>MOLECULE
CASBOQ01
    16    17     1
SMALL
NO_CHARGES
****
Generated from CSD

@<TRIPOS>ATOM
      1 O1         2.2710    0.3942    6.1703 O.2       1 RES1    0.0000
      2 O2         4.4124    0.5633    6.4628 O.2       1 RES1    0.0000
      3 N1         3.2359   -2.8612    3.9455 N.3       1 RES1    0.0000
      4 N2         4.5865   -2.8436    4.0657 N.2       1 RES1    0.0000
      5 N3         6.1601   -1.4600    5.1252 N.pl3     1 RES1    0.0000
      6 N4         7.1110   -1.4971    4.1550 N.2       1 RES1    0.0000
      7 N5         8.2218   -1.2139    4.7417 N.2       1 RES1    0.0000
      8 N6         8.0356   -0.9912    6.0783 N.2       1 RES1    0.0000
      9 N7         3.4246    0.0104    5.9879 N.pl3     1 RES1    0.0000
     10 C1         2.6233   -1.8797    4.5929 C.2       1 RES1    0.0000
     11 C2         3.6264   -1.1447    5.1885 C.2       1 RES1    0.0000
     12 C3         4.8216   -1.7884    4.8257 C.2       1 RES1    0.0000
     13 C4         6.7520   -1.1487    6.2866 C.2       1 RES1    0.0000
     14 H1         2.8283   -3.4350    3.4386 H         1 RES1    0.0000
     15 H2         1.6855   -1.7780    4.5795 H         1 RES1    0.0000
     16 H3         6.2810   -1.0856    7.1149 H         1 RES1    0.0000
@<TRIPOS>BOND
     1    1    9 2
     2    2    9 2
     3    3    4 1
     4    4   12 2
     5    5    6 1
     6    6    7 2
     7    7    8 1
     8    8   13 2
     9    9   11 1
    10   10    3 1
    11   11   10 2
    12   12    5 1
    13   13    5 1
    14   14    3 1
    15   15   10 1
    16   16   13 1
    17   11   12 1
@<TRIPOS>SUBSTRUCTURE
     1 RES1 1

@<TRIPOS>CRYSIN
   8.8611    9.6843    8.8746  90.0000 116.7760  90.0000  14 1

