# MOL2 file generated by ConQuest
# Please check atom types

@<TRIPOS>MOLECULE
CASCAD
    18    19     1
SMALL
NO_CHARGES
****
Generated from CSD

@<TRIPOS>ATOM
      1 O1         0.4804    3.2503    0.7599 O.2       1 RES1    0.0000
      2 O2         0.4591    1.7337    2.3265 O.2       1 RES1    0.0000
      3 N1         4.3948    3.6444    1.7395 N.pl3     1 RES1    0.0000
      4 N2         4.4981    2.7033    2.7137 N.2       1 RES1    0.0000
      5 N3         2.9907    1.2139    3.7590 N.pl3     1 RES1    0.0000
      6 N4         3.0172   -0.1111    3.4780 N.2       1 RES1    0.0000
      7 N5         2.6701   -0.7084    4.5678 N.2       1 RES1    0.0000
      8 N6         2.4138    0.1886    5.5648 N.2       1 RES1    0.0000
      9 N7         1.0283    2.5764    1.6387 N.pl3     1 RES1    0.0000
     10 N8         5.4759    4.4620    1.3858 N.3       1 RES1    0.0000
     11 C1         3.1753    3.7446    1.2020 C.2       1 RES1    0.0000
     12 C2         2.4144    2.8039    1.8589 C.2       1 RES1    0.0000
     13 C3         3.2767    2.1959    2.7862 C.2       1 RES1    0.0000
     14 C4         2.6216    1.3697    5.0387 C.2       1 RES1    0.0000
     15 H1         2.9503    4.3556    0.5070 H         1 RES1    0.0000
     16 H2         6.1718    3.9169    1.2056 H         1 RES1    0.0000
     17 H3         5.6787    4.9677    2.1257 H         1 RES1    0.0000
     18 H4         2.5273    2.1936    5.4530 H         1 RES1    0.0000
@<TRIPOS>BOND
     1    1    9 2
     2    2    9 2
     3    3    4 1
     4    4   13 2
     5    5    6 1
     6    6    7 2
     7    7    8 1
     8    8   14 2
     9    9   12 1
    10   10    3 1
    11   11    3 1
    12   12   11 2
    13   13    5 1
    14   14    5 1
    15   15   11 1
    16   16   10 1
    17   17   10 1
    18   18   14 1
    19   12   13 1
@<TRIPOS>SUBSTRUCTURE
     1 RES1 1

@<TRIPOS>CRYSIN
   7.7051   10.2028   19.9598  90.0000  90.0000  90.0000  61 1

