# MOL2 file generated by ConQuest
# Please check atom types

@<TRIPOS>MOLECULE
CASDEG
    63    67     1
SMALL
NO_CHARGES
****
Generated from CSD

@<TRIPOS>ATOM
      1 O1         7.5338    0.7615   -2.6755 O.2       1 RES1    0.0000
      2 O2        10.0782    4.3009    0.8269 O.2       1 RES1    0.0000
      3 N1         8.0213    2.8278   -2.2742 N.3       1 RES1    0.0000
      4 N2         7.0895    1.8956   -2.4762 N.2       1 RES1    0.0000
      5 C1         7.5150    4.1348   -1.8037 C.3       1 RES1    0.0000
      6 H1         6.5173    4.0677   -1.7728 H         1 RES1    0.0000
      7 C2         7.8558    5.2783   -2.7626 C.ar      1 RES1    0.0000
      8 C3         7.2905    5.3082   -4.0569 C.ar      1 RES1    0.0000
      9 C4         7.6801    6.3231   -4.9356 C.ar      1 RES1    0.0000
     10 H2         7.3136    6.3431   -5.8126 H         1 RES1    0.0000
     11 C5         8.5913    7.3033   -4.5591 C.ar      1 RES1    0.0000
     12 H3         8.8669    7.9651   -5.1825 H         1 RES1    0.0000
     13 C6         9.0955    7.3069   -3.2672 C.ar      1 RES1    0.0000
     14 H4         9.6943    7.9905   -2.9917 H         1 RES1    0.0000
     15 C7         8.7214    6.3068   -2.3788 C.ar      1 RES1    0.0000
     16 H5         9.0610    6.3221   -1.4907 H         1 RES1    0.0000
     17 C8         6.2958    4.2849   -4.5389 C.3       1 RES1    0.0000
     18 H6         5.8070    4.6426   -5.3102 H         1 RES1    0.0000
     19 H7         5.6644    4.0787   -3.8174 H         1 RES1    0.0000
     20 H8         6.7695    3.4684   -4.8037 H         1 RES1    0.0000
     21 C9         8.0023    4.3130   -0.3445 C.3       1 RES1    0.0000
     22 H9         7.8288    5.2618   -0.0824 H         1 RES1    0.0000
     23 C10        7.2168    3.4196    0.6097 C.ar      1 RES1    0.0000
     24 C11        6.1744    3.9673    1.3579 C.ar      1 RES1    0.0000
     25 H10        6.0026    4.9002    1.3116 H         1 RES1    0.0000
     26 C12        5.3820    3.1620    2.1737 C.ar      1 RES1    0.0000
     27 H11        4.6789    3.5491    2.6808 H         1 RES1    0.0000
     28 C13        5.6156    1.7992    2.2462 C.ar      1 RES1    0.0000
     29 H12        5.0604    1.2472    2.7838 H         1 RES1    0.0000
     30 C14        6.6638    1.2449    1.5303 C.ar      1 RES1    0.0000
     31 H13        6.8366    0.3129    1.5896 H         1 RES1    0.0000
     32 C15        7.4647    2.0500    0.7242 C.ar      1 RES1    0.0000
     33 H14        8.1884    1.6629    0.2471 H         1 RES1    0.0000
     34 C16        9.5129    4.0648   -0.2154 C.2       1 RES1    0.0000
     35 C17       10.2483    3.5558   -1.4613 C.3       1 RES1    0.0000
     36 H15       10.2957    4.3242   -2.1002 H         1 RES1    0.0000
     37 C18       11.6757    3.1271   -1.1926 C.ar      1 RES1    0.0000
     38 C19       12.7065    3.6331   -1.9756 C.ar      1 RES1    0.0000
     39 H16       12.5128    4.2556   -2.6664 H         1 RES1    0.0000
     40 C20       14.0251    3.2324   -1.7528 C.ar      1 RES1    0.0000
     41 H17       14.7215    3.5735   -2.3020 H         1 RES1    0.0000
     42 C21       14.3253    2.3404   -0.7357 C.ar      1 RES1    0.0000
     43 H18       15.2255    2.0786   -0.5806 H         1 RES1    0.0000
     44 C22       13.3048    1.8325    0.0539 C.ar      1 RES1    0.0000
     45 H19       13.5047    1.2206    0.7536 H         1 RES1    0.0000
     46 C23       11.9848    2.2189   -0.1781 C.ar      1 RES1    0.0000
     47 H20       11.2888    1.8608    0.3603 H         1 RES1    0.0000
     48 C24        9.4487    2.4323   -2.1741 C.3       1 RES1    0.0000
     49 H21        9.4987    1.6131   -1.6019 H         1 RES1    0.0000
     50 C25       10.0210    2.0793   -3.5429 C.ar      1 RES1    0.0000
     51 C26       10.6606    0.8487   -3.7717 C.ar      1 RES1    0.0000
     52 C27       11.1502    0.5833   -5.0563 C.ar      1 RES1    0.0000
     53 H22       11.5933   -0.2410   -5.2216 H         1 RES1    0.0000
     54 C28       11.0054    1.4913   -6.0947 C.ar      1 RES1    0.0000
     55 H23       11.3364    1.2837   -6.9615 H         1 RES1    0.0000
     56 C29       10.3744    2.7032   -5.8603 C.ar      1 RES1    0.0000
     57 H24       10.2688    3.3302   -6.5662 H         1 RES1    0.0000
     58 C30        9.8967    2.9962   -4.5862 C.ar      1 RES1    0.0000
     59 H25        9.4795    3.8344   -4.4248 H         1 RES1    0.0000
     60 C31       10.8092   -0.1966   -2.6961 C.3       1 RES1    0.0000
     61 H26       11.2518   -0.9873   -3.0679 H         1 RES1    0.0000
     62 H27        9.9240   -0.4467   -2.3576 H         1 RES1    0.0000
     63 H28       11.3490    0.1647   -1.9622 H         1 RES1    0.0000
@<TRIPOS>BOND
     1    1    4 2
     2    2   34 2
     3    3    4 1
     4    5    3 1
     5    6    5 1
     6    7    5 1
     7    8    7 ar
     8    9    8 ar
     9   10    9 1
    10   11    9 ar
    11   12   11 1
    12   13   11 ar
    13   14   13 1
    14   15    7 ar
    15   16   15 1
    16   17    8 1
    17   18   17 1
    18   19   17 1
    19   20   17 1
    20   21    5 1
    21   22   21 1
    22   23   21 1
    23   24   23 ar
    24   25   24 1
    25   26   24 ar
    26   27   26 1
    27   28   26 ar
    28   29   28 1
    29   30   28 ar
    30   31   30 1
    31   32   23 ar
    32   33   32 1
    33   34   21 1
    34   35   34 1
    35   36   35 1
    36   37   35 1
    37   38   37 ar
    38   39   38 1
    39   40   38 ar
    40   41   40 1
    41   42   40 ar
    42   43   42 1
    43   44   42 ar
    44   45   44 1
    45   46   37 ar
    46   47   46 1
    47   48    3 1
    48   49   48 1
    49   50   48 1
    50   51   50 ar
    51   52   51 ar
    52   53   52 1
    53   54   52 ar
    54   55   54 1
    55   56   54 ar
    56   57   56 1
    57   58   50 ar
    58   59   58 1
    59   60   51 1
    60   61   60 1
    61   62   60 1
    62   63   60 1
    63   13   15 ar
    64   30   32 ar
    65   35   48 1
    66   44   46 ar
    67   56   58 ar
@<TRIPOS>SUBSTRUCTURE
     1 RES1 1

@<TRIPOS>CRYSIN
  10.7715   11.0565   20.9841  90.0000 101.1210  90.0000  14 1

