# MOL2 file generated by ConQuest
# Please check atom types

@<TRIPOS>MOLECULE
CASLAJ
    42    45     1
SMALL
NO_CHARGES
****
Generated from CSD

@<TRIPOS>ATOM
      1 O1        -5.2667    1.9497   12.5143 O.3       1 RES1    0.0000
      2 O2        -8.2187    4.0066   12.1704 O.3       1 RES1    0.0000
      3 O3        -9.2590    2.2312   11.2277 O.3       1 RES1    0.0000
      4 N1        -4.1823    2.2172   13.3789 N.2       1 RES1    0.0000
      5 C1        -4.2313    3.4088   13.7931 C.2       1 RES1    0.0000
      6 C2        -5.4362    4.1855   13.2976 C.3       1 RES1    0.0000
      7 C3        -6.0304    3.1751   12.3189 C.3       1 RES1    0.0000
      8 C4        -7.3910    2.8884   12.3893 C.3       1 RES1    0.0000
      9 C5        -9.2406    3.6436   11.2230 C.3       1 RES1    0.0000
     10 C6        -7.9469    1.7970   11.4888 C.3       1 RES1    0.0000
     11 C7        -8.8975    4.2100    9.8661 C.3       1 RES1    0.0000
     12 C8       -10.0188    3.9711    8.8906 C.3       1 RES1    0.0000
     13 C9       -11.3173    4.5596    9.3940 C.3       1 RES1    0.0000
     14 C10      -11.6797    3.9256   10.7150 C.3       1 RES1    0.0000
     15 C11      -10.5573    4.1488   11.7546 C.3       1 RES1    0.0000
     16 C12       -3.2265    3.9525   14.7077 C.ar      1 RES1    0.0000
     17 C13       -2.0993    3.1763   14.9734 C.ar      1 RES1    0.0000
     18 C14       -1.1426    3.6535   15.8380 C.ar      1 RES1    0.0000
     19 C15       -1.2822    4.8807   16.4492 C.ar      1 RES1    0.0000
     20 C16       -2.3902    5.6359   16.2006 C.ar      1 RES1    0.0000
     21 C17       -3.3526    5.1726   15.3283 C.ar      1 RES1    0.0000
     22 H1        -6.0478    4.3901   14.0089 H         1 RES1    0.0000
     23 H2        -5.1746    4.9972   12.8567 H         1 RES1    0.0000
     24 H3        -5.9619    3.5859   11.4544 H         1 RES1    0.0000
     25 H4        -7.4160    2.5656   13.2929 H         1 RES1    0.0000
     26 H5        -7.9446    0.9463   11.9344 H         1 RES1    0.0000
     27 H6        -7.4450    1.7329   10.6728 H         1 RES1    0.0000
     28 H7        -8.1038    3.7776    9.5425 H         1 RES1    0.0000
     29 H8        -8.7388    5.1534    9.9458 H         1 RES1    0.0000
     30 H9        -9.7966    4.3837    8.0526 H         1 RES1    0.0000
     31 H10      -10.1308    3.0265    8.7640 H         1 RES1    0.0000
     32 H11      -12.0154    4.3883    8.7561 H         1 RES1    0.0000
     33 H12      -11.2221    5.5071    9.5159 H         1 RES1    0.0000
     34 H13      -12.5014    4.3009   11.0417 H         1 RES1    0.0000
     35 H14      -11.7907    2.9817   10.5805 H         1 RES1    0.0000
     36 H15      -10.7764    3.6838   12.5644 H         1 RES1    0.0000
     37 H16      -10.4840    5.0887   11.9344 H         1 RES1    0.0000
     38 H17       -1.9932    2.3168   14.5592 H         1 RES1    0.0000
     39 H18       -0.3584    3.1274   16.0130 H         1 RES1    0.0000
     40 H19       -0.6057    5.2047   17.0480 H         1 RES1    0.0000
     41 H20       -2.5040    6.4849   16.6321 H         1 RES1    0.0000
     42 H21       -4.1256    5.7128   15.1454 H         1 RES1    0.0000
@<TRIPOS>BOND
     1    1    4 1
     2    2    8 1
     3    3    9 1
     4    4    5 2
     5    5    6 1
     6    6    7 1
     7    7    1 1
     8    8    7 1
     9    9    2 1
    10   10    3 1
    11   11    9 1
    12   12   11 1
    13   13   12 1
    14   14   13 1
    15   15    9 1
    16   16    5 1
    17   17   16 ar
    18   18   17 ar
    19   19   18 ar
    20   20   19 ar
    21   21   16 ar
    22   22    6 1
    23   23    6 1
    24   24    7 1
    25   25    8 1
    26   26   10 1
    27   27   10 1
    28   28   11 1
    29   29   11 1
    30   30   12 1
    31   31   12 1
    32   32   13 1
    33   33   13 1
    34   34   14 1
    35   35   14 1
    36   36   15 1
    37   37   15 1
    38   38   17 1
    39   39   18 1
    40   40   19 1
    41   41   20 1
    42   42   21 1
    43    8   10 1
    44   14   15 1
    45   20   21 ar
@<TRIPOS>SUBSTRUCTURE
     1 RES1 1

@<TRIPOS>CRYSIN
  16.8060    5.8270   16.5600  90.0000 109.2600  90.0000  14 1

