# MOL2 file generated by ConQuest
# Please check atom types

@<TRIPOS>MOLECULE
CASQOE
    42    42     1
SMALL
NO_CHARGES
****
Generated from CSD

@<TRIPOS>ATOM
      1 H1         3.4389   -3.4321    2.8144 H         1 RES1    0.0000
      2 H2         4.9458   -3.9945    3.0148 H         1 RES1    0.0000
      3 H3         2.9633   -0.5438    1.6788 H         1 RES1    0.0000
      4 H4         2.2152   -1.5604    2.7574 H         1 RES1    0.0000
      5 O1         1.9027    0.2799    3.2130 O.3       1 RES1    0.0000
      6 O2         4.6734   -2.8879    1.3361 O.3       1 RES1    0.0000
      7 N1         4.1880   -3.9223    0.5326 N.2       1 RES1    0.0000
      8 N2         0.7276    0.3454    2.4721 N.2       1 RES1    0.0000
      9 C1         3.9868   -0.8210    3.5081 C.ar      1 RES1    0.0000
     10 C2         4.7665   -1.9804    3.5189 C.ar      1 RES1    0.0000
     11 C3         4.5180   -3.7592   -0.6910 C.2       1 RES1    0.0000
     12 C4        -0.0129    1.2998    2.8903 C.2       1 RES1    0.0000
     13 C5         4.3861   -3.1924    2.7183 C.3       1 RES1    0.0000
     14 C6         2.7252   -0.7660    2.6953 C.3       1 RES1    0.0000
     15 C7         4.4078    0.2813    4.2496 C.ar      1 RES1    0.0000
     16 H5         3.9009    1.0605    4.2419 H         1 RES1    0.0000
     17 O3         4.3954   -4.7907   -2.7775 O.2       1 RES1    0.0000
     18 C8         4.0298   -4.8159   -1.6216 C.2       1 RES1    0.0000
     19 C9         5.9206   -2.0026    4.2657 C.ar      1 RES1    0.0000
     20 H6         6.4433   -2.7724    4.2724 H         1 RES1    0.0000
     21 C10        5.5681    0.2307    4.9953 C.ar      1 RES1    0.0000
     22 H7         5.8355    0.9714    5.4893 H         1 RES1    0.0000
     23 C11       -1.2901    1.4862    2.1357 C.2       1 RES1    0.0000
     24 C12        6.3233   -0.9043    5.0082 C.ar      1 RES1    0.0000
     25 H8         7.1042   -0.9415    5.5127 H         1 RES1    0.0000
     26 O4        -1.9219    2.4990    2.3260 O.2       1 RES1    0.0000
     27 C13       -1.7335    0.4243    1.1854 C.3       1 RES1    0.0000
     28 H9        -2.5613    0.6859    0.7763 H         1 RES1    0.0000
     29 H10       -1.8577   -0.3997    1.6615 H         1 RES1    0.0000
     30 H11       -1.0656    0.3037    0.5057 H         1 RES1    0.0000
     31 C14        5.3268   -2.6503   -1.2271 C.3       1 RES1    0.0000
     32 H12        5.5680   -2.0549   -0.5138 H         1 RES1    0.0000
     33 H13        4.8175   -2.1719   -1.8854 H         1 RES1    0.0000
     34 H14        6.1234   -3.0017   -1.6331 H         1 RES1    0.0000
     35 C15        0.3088    2.2272    4.0160 C.3       1 RES1    0.0000
     36 H15        1.1530    1.9820    4.4016 H         1 RES1    0.0000
     37 H16       -0.3779    2.1679    4.6855 H         1 RES1    0.0000
     38 H17        0.3567    3.1265    3.6863 H         1 RES1    0.0000
     39 C16        3.1129   -5.8678   -1.1182 C.3       1 RES1    0.0000
     40 H18        2.8903   -6.4681   -1.8335 H         1 RES1    0.0000
     41 H19        2.3116   -5.4604   -0.7814 H         1 RES1    0.0000
     42 H20        3.5436   -6.3571   -0.4131 H         1 RES1    0.0000
@<TRIPOS>BOND
     1    1   13 1
     2    2   13 1
     3    3   14 1
     4    4   14 1
     5    5    8 1
     6    6    7 1
     7    7   11 2
     8    8   12 2
     9    9   10 ar
    10   10   13 1
    11   11   18 1
    12   12   23 1
    13   13    6 1
    14   14    5 1
    15   15    9 ar
    16   16   15 1
    17   17   18 2
    18   18   39 1
    19   19   10 ar
    20   20   19 1
    21   21   15 ar
    22   22   21 1
    23   23   26 2
    24   24   19 ar
    25   25   24 1
    26   27   23 1
    27   28   27 1
    28   29   27 1
    29   30   27 1
    30   31   11 1
    31   32   31 1
    32   33   31 1
    33   34   31 1
    34   35   12 1
    35   36   35 1
    36   37   35 1
    37   38   35 1
    38   39   40 1
    39   41   39 1
    40   42   39 1
    41    9   14 1
    42   21   24 ar
@<TRIPOS>SUBSTRUCTURE
     1 RES1 1

@<TRIPOS>CRYSIN
   8.5890   10.0150   10.9390 106.7700  96.6800 109.7400   2 1

