# MOL2 file generated by ConQuest
# Please check atom types

@<TRIPOS>MOLECULE
CASYIG
    40    40     2
SMALL
NO_CHARGES
****
Generated from CSD

@<TRIPOS>ATOM
      1 O1         4.1210    1.5209    2.4252 O.2       1 RES1    0.0000
      2 O2         3.1386    1.8435    4.3009 O.2       1 RES1    0.0000
      3 O3         0.6874    1.0593    4.1772 O.2       1 RES1    0.0000
      4 O4        -0.3864    1.9387    2.5327 O.2       1 RES1    0.0000
      5 O5         2.8364    3.9053   -1.3990 O.3       1 RES1    0.0000
      6 H1         3.5046    3.9937   -1.8652 H         1 RES1    0.0000
      7 O6         0.7098    1.0685   -1.7997 O.3       1 RES1    0.0000
      8 H2         1.0991    0.4443   -1.4375 H         1 RES1    0.0000
      9 N1         3.0888    1.7158    3.0921 N.pl3     1 RES1    0.0000
     10 N2         0.6841    1.6032    3.0783 N.pl3     1 RES1    0.0000
     11 N3         2.9549    2.1789    0.1874 N.3       1 RES1    0.0000
     12 H3         3.7597    2.0384    0.4565 H         1 RES1    0.0000
     13 N4         0.7771    2.2832    0.2339 N.3       1 RES1    0.0000
     14 H4        -0.0115    2.3965    0.5584 H         1 RES1    0.0000
     15 C1         1.8853    1.8201    2.3696 C.2       1 RES1    0.0000
     16 C2         1.8788    2.0875    0.9732 C.2       1 RES1    0.0000
     17 C3         1.0889    2.2749   -1.1856 C.3       1 RES1    0.0000
     18 H5         0.6279    3.0206   -1.6242 H         1 RES1    0.0000
     19 C4         2.6043    2.5461   -1.1787 C.3       1 RES1    0.0000
     20 H6         3.0734    1.9886   -1.8346 H         1 RES1    0.0000
     21 O7         1.8373    6.6653    0.1770 O.2       2 RES2    0.0000
     22 O8         3.5502    6.9139   -1.0977 O.2       2 RES2    0.0000
     23 O9         5.6487    5.7413   -0.4105 O.2       2 RES2    0.0000
     24 O10        5.8862    5.1776    1.5724 O.2       2 RES2    0.0000
     25 O11        1.0822    4.3451    3.9982 O.3       2 RES2    0.0000
     26 H7         0.3678    4.4516    4.3855 H         2 RES2    0.0000
     27 O12        3.6076    6.4522    5.2865 O.3       2 RES2    0.0000
     28 H8         4.2739    6.2807    5.7330 H         2 RES2    0.0000
     29 N5         3.0695    6.5278   -0.0421 N.pl3     2 RES2    0.0000
     30 N6         5.1886    5.6325    0.6913 N.pl3     2 RES2    0.0000
     31 N7         2.0642    5.9989    2.6686 N.3       2 RES2    0.0000
     32 H9         1.4823    6.3925    2.1724 H         2 RES2    0.0000
     33 N8         3.9965    5.2283    3.3203 N.3       2 RES2    0.0000
     34 H10        4.7880    4.8966    3.2619 H         2 RES2    0.0000
     35 C5         3.8428    5.9626    0.9782 C.2       2 RES2    0.0000
     36 C6         3.3130    5.7299    2.2896 C.2       2 RES2    0.0000
     37 C7         1.8101    5.5365    4.0306 C.3       2 RES2    0.0000
     38 H11        1.3456    6.2210    4.5552 H         2 RES2    0.0000
     39 C8         3.2331    5.3159    4.5472 C.3       2 RES2    0.0000
     40 H12        3.3044    4.4962    5.0796 H         2 RES2    0.0000
@<TRIPOS>BOND
     1    1    9 2
     2    2    9 2
     3    3   10 2
     4    4   10 2
     5    5    6 1
     6    7    8 1
     7    9   15 1
     8   10   15 1
     9   11   12 1
    10   13   14 1
    11   15   16 2
    12   16   11 1
    13   17    7 1
    14   18   17 1
    15   19    5 1
    16   20   19 1
    17   21   29 2
    18   22   29 2
    19   23   30 2
    20   24   30 2
    21   25   26 1
    22   27   28 1
    23   29   35 1
    24   30   35 1
    25   31   32 1
    26   33   34 1
    27   35   36 2
    28   36   31 1
    29   37   25 1
    30   38   37 1
    31   39   27 1
    32   40   39 1
    33   11   19 1
    34   13   16 1
    35   13   17 1
    36   17   19 1
    37   31   37 1
    38   33   36 1
    39   33   39 1
    40   37   39 1
@<TRIPOS>SUBSTRUCTURE
     1 RES1 1
     2 RES2 21

@<TRIPOS>CRYSIN
  11.5600    7.5553   17.1640  90.0000  98.5870  90.0000  14 1

