# MOL2 file generated by ConQuest
# Please check atom types

@<TRIPOS>MOLECULE
CASYIG01
    40    40     2
SMALL
NO_CHARGES
****
Generated from CSD

@<TRIPOS>ATOM
      1 O1        -0.3671    1.0964   11.6939 O.3       1 RES1    0.0000
      2 H1        -1.1096    1.2184   11.3676 H         1 RES1    0.0000
      3 N1        -0.7498    2.3230   13.6622 N.3       1 RES1    0.0000
      4 H2        -1.5395    2.6596   13.7226 H         1 RES1    0.0000
      5 C1         0.0151    2.2296   12.4264 C.3       1 RES1    0.0000
      6 H3        -0.0519    3.0489   11.8922 H         1 RES1    0.0000
      7 N2         1.1687    1.5414   14.3070 N.pl3     1 RES1    0.0000
      8 O2         2.1636    3.1950   12.9815 O.3       1 RES1    0.0000
      9 H4         2.8215    3.1197   12.4984 H         1 RES1    0.0000
     10 C2         1.4225    2.0067   12.9499 C.3       1 RES1    0.0000
     11 H5         1.8856    1.3208   12.4254 H         1 RES1    0.0000
     12 N3        -1.9365    1.9126   16.2912 N.pl3     1 RES1    0.0000
     13 C3        -0.0623    1.8147   14.6916 C.2       1 RES1    0.0000
     14 O3        -2.3537    1.8245   17.3599 O.2       1 RES1    0.0000
     15 N4         0.1793    1.0263   17.0212 N.pl3     1 RES1    0.0000
     16 C4        -0.5965    1.5881   15.9961 C.2       1 RES1    0.0000
     17 O4        -2.6431    2.3629   15.4056 O.2       1 RES1    0.0000
     18 O5         1.4008    0.8916   16.8082 O.2       1 RES1    0.0000
     19 O6        -0.3036    0.6446   18.0737 O.2       1 RES1    0.0000
     20 H6         1.7428    1.3253   14.8738 H         1 RES1    0.0000
     21 N5         2.4591    5.2522   16.7490 N.pl3     2 RES2    0.0000
     22 H7         3.2477    5.1324   16.4240 H         2 RES2    0.0000
     23 C5         2.1587    5.2702   18.1633 C.3       2 RES2    0.0000
     24 H8         2.6207    4.5248   18.6007 H         2 RES2    0.0000
     25 N6         0.2914    5.3523   16.7919 N.pl3     2 RES2    0.0000
     26 H9        -0.5150    5.4894   16.5259 H         2 RES2    0.0000
     27 C6         0.6482    4.9931   18.1557 C.3       2 RES2    0.0000
     28 H10        0.1776    5.5519   18.8079 H         2 RES2    0.0000
     29 O7         2.5279    6.4683   18.7827 O.3       2 RES2    0.0000
     30 H11        2.9094    6.9502   18.2408 H         2 RES2    0.0000
     31 N7         0.1485    5.8019   13.8864 N.pl3     2 RES2    0.0000
     32 C7         1.3622    5.4434   16.0063 C.2       2 RES2    0.0000
     33 N8         2.5491    5.9246   13.8954 N.pl3     2 RES2    0.0000
     34 O8         0.4114    3.6355   18.3814 O.3       2 RES2    0.0000
     35 H12       -0.2021    3.5504   18.9182 H         2 RES2    0.0000
     36 C8         1.3589    5.7085   14.6021 C.2       2 RES2    0.0000
     37 O9        -0.8558    6.0210   14.5300 O.2       2 RES2    0.0000
     38 O10        0.1022    5.6836   12.6780 O.2       2 RES2    0.0000
     39 O11        3.6204    5.5910   14.4478 O.2       2 RES2    0.0000
     40 O12        2.5421    6.4585   12.7954 O.2       2 RES2    0.0000
@<TRIPOS>BOND
     1    1    2 1
     2    3    4 1
     3    5    1 1
     4    6    5 1
     5    7   10 1
     6    8    9 1
     7   10    5 1
     8   11   10 1
     9   12   14 2
    10   13    3 1
    11   15   16 1
    12   16   12 1
    13   17   12 2
    14   18   15 2
    15   19   15 2
    16   20    7 1
    17   21   22 1
    18   23   21 1
    19   24   23 1
    20   25   26 1
    21   27   23 1
    22   28   27 1
    23   29   23 1
    24   30   29 1
    25   31   36 1
    26   32   21 1
    27   33   36 1
    28   34   27 1
    29   35   34 1
    30   36   32 2
    31   37   31 2
    32   38   31 2
    33   39   33 2
    34   40   33 2
    35    3    5 1
    36    7   13 1
    37    8   10 1
    38   13   16 2
    39   25   27 1
    40   25   32 1
@<TRIPOS>SUBSTRUCTURE
     1 RES1 1
     2 RES2 21

@<TRIPOS>CRYSIN
  11.5310    7.5300   17.1660  90.0000  98.4600  90.0000  14 1

