# MOL2 file generated by ConQuest
# Please check atom types

@<TRIPOS>MOLECULE
CATHOU
    44    46     1
SMALL
NO_CHARGES
****
Generated from CSD

@<TRIPOS>ATOM
      1 N1         2.6065    5.8584    5.4624 N.2       1 RES1    0.0000
      2 C1         2.5207    4.6578    5.7927 C.2       1 RES1    0.0000
      3 C2         3.2107    3.9691    6.9297 C.3       1 RES1    0.0000
      4 N2         4.1609    4.7873    7.6329 N.2       1 RES1    0.0000
      5 C3         4.2325    6.0066    7.3111 C.2       1 RES1    0.0000
      6 C4         3.4467    6.7301    6.2648 C.3       1 RES1    0.0000
      7 H1         4.0994    7.1287    5.6524 H         1 RES1    0.0000
      8 O1         3.9733    2.8637    6.3441 O.3       1 RES1    0.0000
      9 N3         3.7201    1.6813    7.0743 N.2       1 RES1    0.0000
     10 C5         2.7951    1.8868    7.9150 C.2       1 RES1    0.0000
     11 C6         2.2605    3.2879    7.9051 C.3       1 RES1    0.0000
     12 H2         2.3049    3.6914    8.7855 H         1 RES1    0.0000
     13 H3         1.3446    3.3165    7.5861 H         1 RES1    0.0000
     14 O2         1.7188    3.7785    5.1477 O.3       1 RES1    0.0000
     15 C7         0.8554    4.3228    4.1496 C.3       1 RES1    0.0000
     16 H4         0.2966    4.9965    4.5423 H         1 RES1    0.0000
     17 H5         0.3066    3.6241    3.7853 H         1 RES1    0.0000
     18 H6         1.3829    4.7126    3.4493 H         1 RES1    0.0000
     19 O3         5.1060    6.8198    7.9349 O.3       1 RES1    0.0000
     20 C8         5.9634    6.2208    8.9244 C.3       1 RES1    0.0000
     21 H7         5.4268    5.8061    9.6035 H         1 RES1    0.0000
     22 H8         6.5152    6.8983    9.3214 H         1 RES1    0.0000
     23 H9         6.5192    5.5582    8.5062 H         1 RES1    0.0000
     24 C9         2.6085    7.8996    6.8347 C.3       1 RES1    0.0000
     25 H10        3.2117    8.4911    7.3295 H         1 RES1    0.0000
     26 C10        1.5625    7.3678    7.8115 C.3       1 RES1    0.0000
     27 H11        0.9431    6.8036    7.3423 H         1 RES1    0.0000
     28 H12        1.0904    8.1038    8.2071 H         1 RES1    0.0000
     29 H13        1.9982    6.8597    8.5005 H         1 RES1    0.0000
     30 C11        1.9660    8.7053    5.7289 C.3       1 RES1    0.0000
     31 H14        1.3839    8.1399    5.2171 H         1 RES1    0.0000
     32 H15        2.6478    9.0653    5.1576 H         1 RES1    0.0000
     33 H16        1.4576    9.4252    6.1117 H         1 RES1    0.0000
     34 C12        2.3109    0.8170    8.7841 C.ar      1 RES1    0.0000
     35 C13        2.8173   -0.4795    8.6749 C.ar      1 RES1    0.0000
     36 H17        3.4639   -0.6713    8.0355 H         1 RES1    0.0000
     37 C14        2.3674   -1.4683    9.5014 C.ar      1 RES1    0.0000
     38 H18        2.7074   -2.3301    9.4178 H         1 RES1    0.0000
     39 C15        1.4263   -1.2018   10.4456 C.ar      1 RES1    0.0000
     40 H19        1.1338   -1.8818   11.0084 H         1 RES1    0.0000
     41 C16        0.9058    0.0560   10.5775 C.ar      1 RES1    0.0000
     42 H20        0.2673    0.2391   11.2282 H         1 RES1    0.0000
     43 C17        1.3547    1.0673    9.7127 C.ar      1 RES1    0.0000
     44 H21        0.9916    1.9217    9.7779 H         1 RES1    0.0000
@<TRIPOS>BOND
     1    1    2 2
     2    2    3 1
     3    3    4 1
     4    4    5 2
     5    5    6 1
     6    6    1 1
     7    7    6 1
     8    8    3 1
     9    9    8 1
    10   10    9 2
    11   11    3 1
    12   12   11 1
    13   13   11 1
    14   14    2 1
    15   15   14 1
    16   16   15 1
    17   17   15 1
    18   18   15 1
    19   19    5 1
    20   20   19 1
    21   21   20 1
    22   22   20 1
    23   23   20 1
    24   24    6 1
    25   25   24 1
    26   26   24 1
    27   27   26 1
    28   28   26 1
    29   29   26 1
    30   30   24 1
    31   31   30 1
    32   32   30 1
    33   33   30 1
    34   34   10 1
    35   35   34 ar
    36   36   35 1
    37   37   35 ar
    38   38   37 1
    39   39   37 ar
    40   40   39 1
    41   41   39 ar
    42   42   41 1
    43   43   34 ar
    44   44   43 1
    45   10   11 1
    46   41   43 ar
@<TRIPOS>SUBSTRUCTURE
     1 RES1 1

@<TRIPOS>CRYSIN
  10.0870   12.4540   14.1770  90.0000  90.0000  90.0000  19 1

