# MOL2 file generated by ConQuest
# Please check atom types

@<TRIPOS>MOLECULE
CATJEM
    34    34     1
SMALL
NO_CHARGES
****
Generated from CSD

@<TRIPOS>ATOM
      1 C1         4.0446   -0.1334   -1.1027 C.3       1 RES1    0.0000
      2 C2         4.8071   -1.4356   -1.3484 C.3       1 RES1    0.0000
      3 C3         6.0976   -1.6262   -0.5525 C.3       1 RES1    0.0000
      4 N1         4.1903    0.3625    0.2633 N.2       1 RES1    0.0000
      5 N2         3.3719   -0.1240    1.2226 N.2       1 RES1    0.0000
      6 N3         3.8912   -2.6451   -1.1462 N.2       1 RES1    0.0000
      7 N4         5.1412   -1.5502   -2.8532 N.2       1 RES1    0.0000
      8 O1         2.7519   -1.1241    0.9311 O.2       1 RES1    0.0000
      9 O2         3.3150    0.4209    2.2184 O.2       1 RES1    0.0000
     10 O3         4.2462   -3.5213   -0.3974 O.2       1 RES1    0.0000
     11 O4         2.8483   -2.6316   -1.7693 O.2       1 RES1    0.0000
     12 O5         5.3953   -2.6649   -3.2494 O.2       1 RES1    0.0000
     13 O6         5.1751   -0.5490   -3.5045 O.2       1 RES1    0.0000
     14 H1         3.1112   -0.2813   -1.2814 H         1 RES1    0.0000
     15 H2         4.4258    0.5209   -1.6929 H         1 RES1    0.0000
     16 H3         6.6935   -2.2399   -0.9993 H         1 RES1    0.0000
     17 H4         5.8500   -2.0003    0.2939 H         1 RES1    0.0000
     18 N1D        6.7647   -0.3625   -0.2633 N.2       1 RES1    0.0000
     19 C3D        4.8574    1.6262    0.5525 C.3       1 RES1    0.0000
     20 C1D        6.9104    0.1334    1.1027 C.3       1 RES1    0.0000
     21 N2D        7.5831    0.1240   -1.2226 N.2       1 RES1    0.0000
     22 C2D        6.1479    1.4356    1.3484 C.3       1 RES1    0.0000
     23 H3D        4.2615    2.2399    0.9993 H         1 RES1    0.0000
     24 H4D        5.1050    2.0003   -0.2939 H         1 RES1    0.0000
     25 H1D        7.8438    0.2813    1.2814 H         1 RES1    0.0000
     26 H2D        6.5292   -0.5209    1.6929 H         1 RES1    0.0000
     27 O1D        8.2031    1.1241   -0.9311 O.2       1 RES1    0.0000
     28 O2D        7.6400   -0.4209   -2.2184 O.2       1 RES1    0.0000
     29 N3D        7.0638    2.6451    1.1462 N.2       1 RES1    0.0000
     30 N4D        5.8138    1.5502    2.8532 N.2       1 RES1    0.0000
     31 O3D        6.7088    3.5213    0.3974 O.2       1 RES1    0.0000
     32 O4D        8.1067    2.6316    1.7693 O.2       1 RES1    0.0000
     33 O5D        5.5597    2.6649    3.2494 O.2       1 RES1    0.0000
     34 O6D        5.7799    0.5490    3.5045 O.2       1 RES1    0.0000
@<TRIPOS>BOND
     1    1    2 1
     2    2    3 1
     3    3   16 1
     4    4    1 1
     5    5    4 1
     6    6    2 1
     7    7    2 1
     8    8    5 1
     9    9    5 1
    10   10    6 1
    11   11    6 1
    12   12    7 1
    13   13    7 1
    14   14    1 1
    15   15    1 1
    16   17    3 1
    17   18    3 1
    18   19    4 1
    19   20   18 1
    20   21   18 1
    21   22   19 1
    22   23   19 1
    23   24   19 1
    24   25   20 1
    25   26   20 1
    26   27   21 1
    27   28   21 1
    28   29   22 1
    29   30   22 1
    30   31   29 1
    31   32   29 1
    32   33   30 1
    33   34   30 1
    34   20   22 1
@<TRIPOS>SUBSTRUCTURE
     1 RES1 1

@<TRIPOS>CRYSIN
  10.9550   10.4180   11.7560  90.0000  90.0000  90.0000  61 1

