# MOL2 file generated by ConQuest
# Please check atom types

@<TRIPOS>MOLECULE
CATJIQ
    34    34     1
SMALL
NO_CHARGES
****
Generated from CSD

@<TRIPOS>ATOM
      1 C1         4.1905   -0.1521   -1.0716 C.3       1 RES1    0.0000
      2 C2         4.9525   -1.4522   -1.3329 C.3       1 RES1    0.0000
      3 C3         6.2552   -1.6297   -0.5441 C.3       1 RES1    0.0000
      4 N1         4.3677    0.3521    0.2816 N.3       1 RES1    0.0000
      5 N2         3.5165   -0.1163    1.2415 N.pl3     1 RES1    0.0000
      6 N3         4.0347   -2.6615   -1.0930 N.pl3     1 RES1    0.0000
      7 N4         5.2358   -1.5787   -2.8393 N.pl3     1 RES1    0.0000
      8 O1         2.8708   -1.1164    0.9552 O.2       1 RES1    0.0000
      9 O2         3.5030    0.4643    2.3071 O.2       1 RES1    0.0000
     10 O3         4.4016   -3.5228   -0.3338 O.2       1 RES1    0.0000
     11 O4         2.9803   -2.6523   -1.6941 O.2       1 RES1    0.0000
     12 O5         5.5474   -2.6951   -3.2171 O.2       1 RES1    0.0000
     13 O6         5.1658   -0.5980   -3.5260 O.2       1 RES1    0.0000
     14 H1         3.2287   -0.2755   -1.2712 H         1 RES1    0.0000
     15 H2         4.5608    0.4490   -1.6751 H         1 RES1    0.0000
     16 H3         6.8298   -2.2349   -1.0454 H         1 RES1    0.0000
     17 H4         6.0057   -1.9900    0.3326 H         1 RES1    0.0000
     18 N1D        6.9213   -0.3521   -0.2816 N.pl3     1 RES1    0.0000
     19 C3D        5.0338    1.6297    0.5441 C.3       1 RES1    0.0000
     20 C1D        7.0985    0.1521    1.0716 C.3       1 RES1    0.0000
     21 N2D        7.7725    0.1163   -1.2415 N.pl3     1 RES1    0.0000
     22 C2D        6.3365    1.4522    1.3329 C.3       1 RES1    0.0000
     23 H3D        4.4592    2.2349    1.0454 H         1 RES1    0.0000
     24 H4D        5.2833    1.9900   -0.3326 H         1 RES1    0.0000
     25 H1D        8.0603    0.2755    1.2712 H         1 RES1    0.0000
     26 H2D        6.7282   -0.4490    1.6751 H         1 RES1    0.0000
     27 O1D        8.4182    1.1164   -0.9552 O.2       1 RES1    0.0000
     28 O2D        7.7860   -0.4643   -2.3071 O.2       1 RES1    0.0000
     29 N3D        7.2543    2.6615    1.0930 N.pl3     1 RES1    0.0000
     30 N4D        6.0532    1.5787    2.8393 N.pl3     1 RES1    0.0000
     31 O3D        6.8874    3.5228    0.3338 O.2       1 RES1    0.0000
     32 O4D        8.3087    2.6523    1.6941 O.2       1 RES1    0.0000
     33 O5D        5.7416    2.6951    3.2171 O.2       1 RES1    0.0000
     34 O6D        6.1232    0.5980    3.5260 O.2       1 RES1    0.0000
@<TRIPOS>BOND
     1    1    2 1
     2    2    3 1
     3    3   16 1
     4    4    1 1
     5    5    4 1
     6    6    2 1
     7    7    2 1
     8    8    5 2
     9    9    5 2
    10   10    6 2
    11   11    6 2
    12   12    7 2
    13   13    7 2
    14   14    1 1
    15   15    1 1
    16   17    3 1
    17   18    3 1
    18   19    4 1
    19   20   18 1
    20   21   18 1
    21   22   19 1
    22   23   19 1
    23   24   19 1
    24   25   20 1
    25   26   20 1
    26   27   21 2
    27   28   21 2
    28   29   22 1
    29   30   22 1
    30   31   29 2
    31   32   29 2
    32   33   30 2
    33   34   30 2
    34   20   22 1
@<TRIPOS>SUBSTRUCTURE
     1 RES1 1

@<TRIPOS>CRYSIN
  11.2890   10.2050   11.8800  90.0000  90.0000  90.0000  61 1

