# MOL2 file generated by ConQuest
# Please check atom types

@<TRIPOS>MOLECULE
CATLUE
    36    38     1
SMALL
NO_CHARGES
****
Generated from CSD

@<TRIPOS>ATOM
      1 O1         0.4123    5.8078    6.3169 O.3       1 RES1    0.0000
      2 H1         0.8306    5.1345    6.0316 H         1 RES1    0.0000
      3 O2         1.0942    0.1054    9.2456 O.2       1 RES1    0.0000
      4 O3         3.8097   -1.0787    3.9684 O.2       1 RES1    0.0000
      5 O4         1.9399   -0.1827    4.4738 O.2       1 RES1    0.0000
      6 O5         7.3333    3.7557    2.4922 O.2       1 RES1    0.0000
      7 O6         7.3120    1.6478    2.1227 O.2       1 RES1    0.0000
      8 N1         1.2559    3.2561    5.9092 N.2       1 RES1    0.0000
      9 N2         2.1738    2.2397    5.8231 N.pl3     1 RES1    0.0000
     10 N3         3.1225   -0.1168    4.2163 N.pl3     1 RES1    0.0000
     11 N4         6.8239    2.6525    2.5927 N.pl3     1 RES1    0.0000
     12 C1        -0.6136    3.8602    7.3648 C.ar      1 RES1    0.0000
     13 C2        -0.5952    5.2254    7.0365 C.ar      1 RES1    0.0000
     14 C3        -1.6413    6.0484    7.4505 C.ar      1 RES1    0.0000
     15 H2        -1.6176    6.9560    7.2489 H         1 RES1    0.0000
     16 C4        -2.7154    5.5352    8.1583 C.ar      1 RES1    0.0000
     17 H3        -3.4002    6.1005    8.4323 H         1 RES1    0.0000
     18 C5        -2.7757    4.1911    8.4589 C.ar      1 RES1    0.0000
     19 H4        -3.5046    3.8430    8.9186 H         1 RES1    0.0000
     20 C6        -1.7354    3.3678    8.0663 C.ar      1 RES1    0.0000
     21 H5        -1.7763    2.4620    8.2713 H         1 RES1    0.0000
     22 C7         0.5017    2.9751    6.9842 C.2       1 RES1    0.0000
     23 C8         0.9635    1.7797    7.6116 C.2       1 RES1    0.0000
     24 C9         2.0239    1.3618    6.8296 C.2       1 RES1    0.0000
     25 H6         2.5441    0.6047    6.9751 H         1 RES1    0.0000
     26 C10        0.5824    1.1314    8.8721 C.2       1 RES1    0.0000
     27 H7        -0.0745    1.5244    9.4000 H         1 RES1    0.0000
     28 C11        3.2472    2.3166    4.8763 C.ar      1 RES1    0.0000
     29 C12        3.7855    1.2050    4.2099 C.ar      1 RES1    0.0000
     30 C13        4.9597    1.3003    3.4623 C.ar      1 RES1    0.0000
     31 H8         5.3336    0.5509    3.0593 H         1 RES1    0.0000
     32 C14        5.5470    2.5410    3.3412 C.ar      1 RES1    0.0000
     33 C15        4.9925    3.6772    3.9001 C.ar      1 RES1    0.0000
     34 H9         5.3800    4.5104    3.7597 H         1 RES1    0.0000
     35 C16        3.8462    3.5525    4.6762 C.ar      1 RES1    0.0000
     36 H10        3.4752    4.3103    5.0687 H         1 RES1    0.0000
@<TRIPOS>BOND
     1    1    2 1
     2    3   26 2
     3    4   10 2
     4    5   10 2
     5    6   11 2
     6    7   11 2
     7    8    9 1
     8    9   24 1
     9   10   29 1
    10   11   32 1
    11   12   13 ar
    12   13    1 1
    13   14   13 ar
    14   15   14 1
    15   16   14 ar
    16   17   16 1
    17   18   16 ar
    18   19   18 1
    19   20   12 ar
    20   21   20 1
    21   22    8 2
    22   23   22 1
    23   24   23 2
    24   25   24 1
    25   26   23 1
    26   27   26 1
    27   28    9 1
    28   29   28 ar
    29   30   29 ar
    30   31   30 1
    31   32   30 ar
    32   33   32 ar
    33   34   33 1
    34   35   28 ar
    35   36   35 1
    36   12   22 1
    37   18   20 ar
    38   33   35 ar
@<TRIPOS>SUBSTRUCTURE
     1 RES1 1

@<TRIPOS>CRYSIN
   6.3799   14.9302   16.1080  90.0000  91.6360  90.0000  14 1

