# MOL2 file generated by ConQuest
# Please check atom types

@<TRIPOS>MOLECULE
CATXUT
    58    62     1
SMALL
NO_CHARGES
****
Generated from CSD

@<TRIPOS>ATOM
      1 O1         5.3387    2.7479    2.4817 O.2       1 RES1    0.0000
      2 H1         6.1896    2.3137    9.1089 H         1 RES1    0.0000
      3 O2         5.4481   -0.3991    8.4492 O.2       1 RES1    0.0000
      4 O3         6.5004   -0.7909    5.4523 O.2       1 RES1    0.0000
      5 N1         4.9492    3.4457    3.4036 N.pl3     1 RES1    0.0000
      6 N2         6.2100    1.7183    8.6413 N.am      1 RES1    0.0000
      7 N3         5.4276    4.2016    8.2940 N.ar      1 RES1    0.0000
      8 C1         5.2937    3.0586    4.7771 C.ar      1 RES1    0.0000
      9 C2         5.1595    3.9684    5.8723 C.ar      1 RES1    0.0000
     10 O4         4.2094    4.3897    3.2282 O.2       1 RES1    0.0000
     11 C3         5.4948    3.4586    7.1542 C.ar      1 RES1    0.0000
     12 O5         7.7577   -0.0627    7.0673 O.2       1 RES1    0.0000
     13 N4         6.8434    0.0682    6.2572 N.pl3     1 RES1    0.0000
     14 C4         5.9636    2.1165    7.3374 C.ar      1 RES1    0.0000
     15 C5         5.9108    0.4738    9.1531 C.2       1 RES1    0.0000
     16 C6         6.1366    0.2692   10.6110 C.ar      1 RES1    0.0000
     17 C7         5.9169   -1.2297   12.4915 C.ar      1 RES1    0.0000
     18 H2         5.6462   -2.0695   12.8434 H         1 RES1    0.0000
     19 C8         5.7657   -0.9633   11.1461 C.ar      1 RES1    0.0000
     20 H3         5.4026   -1.6307   10.5751 H         1 RES1    0.0000
     21 C9         6.1466    1.3422    6.2074 C.ar      1 RES1    0.0000
     22 C10        5.7790    1.7994    4.9351 C.ar      1 RES1    0.0000
     23 H4         5.8698    1.2279    4.1810 H         1 RES1    0.0000
     24 C11        4.7523    5.3281    5.8208 C.ar      1 RES1    0.0000
     25 H5         4.5123    5.7235    4.9913 H         1 RES1    0.0000
     26 C12        4.7064    6.0600    6.9651 C.ar      1 RES1    0.0000
     27 H6         4.4416    6.9716    6.9400 H         1 RES1    0.0000
     28 C13        5.0542    5.4571    8.1872 C.ar      1 RES1    0.0000
     29 H7         5.0163    5.9844    8.9772 H         1 RES1    0.0000
     30 O1B        7.2618   -2.7479   21.4575 O.2       1 RES1    0.0000
     31 H1B        6.4108   -2.3137   14.8303 H         1 RES1    0.0000
     32 O2B        7.1523    0.3991   15.4900 O.2       1 RES1    0.0000
     33 O3B        6.1000    0.7909   18.4869 O.2       1 RES1    0.0000
     34 N1B        7.6512   -3.4457   20.5356 N.pl3     1 RES1    0.0000
     35 N2B        6.3904   -1.7183   15.2978 N.am      1 RES1    0.0000
     36 N3B        7.1728   -4.2016   15.6452 N.ar      1 RES1    0.0000
     37 C1B        7.3067   -3.0586   19.1621 C.ar      1 RES1    0.0000
     38 C2B        7.4410   -3.9684   18.0669 C.ar      1 RES1    0.0000
     39 O4B        8.3911   -4.3897   20.7110 O.2       1 RES1    0.0000
     40 C3B        7.1057   -3.4586   16.7849 C.ar      1 RES1    0.0000
     41 O5B        4.8427    0.0627   16.8718 O.2       1 RES1    0.0000
     42 N4B        5.7571   -0.0682   17.6819 N.pl3     1 RES1    0.0000
     43 C4B        6.6369   -2.1165   16.6018 C.ar      1 RES1    0.0000
     44 C5B        6.6896   -0.4738   14.7860 C.2       1 RES1    0.0000
     45 C6B        6.4638   -0.2692   13.3281 C.ar      1 RES1    0.0000
     46 C7B        6.6836    1.2297   11.4477 C.ar      1 RES1    0.0000
     47 H2B        6.9542    2.0695   11.0958 H         1 RES1    0.0000
     48 C8B        6.8347    0.9633   12.7931 C.ar      1 RES1    0.0000
     49 H3B        7.1979    1.6307   13.3640 H         1 RES1    0.0000
     50 C9B        6.4538   -1.3422   17.7317 C.ar      1 RES1    0.0000
     51 C10B       6.8215   -1.7994   19.0041 C.ar      1 RES1    0.0000
     52 H4B        6.7306   -1.2279   19.7582 H         1 RES1    0.0000
     53 C11B       7.8482   -5.3281   18.1184 C.ar      1 RES1    0.0000
     54 H5B        8.0881   -5.7235   18.9478 H         1 RES1    0.0000
     55 C12B       7.8940   -6.0600   16.9741 C.ar      1 RES1    0.0000
     56 H6B        8.1588   -6.9716   16.9992 H         1 RES1    0.0000
     57 C13B       7.5463   -5.4571   15.7520 C.ar      1 RES1    0.0000
     58 H7B        7.5842   -5.9844   14.9620 H         1 RES1    0.0000
@<TRIPOS>BOND
     1    1    5 2
     2    2    6 1
     3    3   15 2
     4    4   13 2
     5    5    8 1
     6    6   14 1
     7    7   11 ar
     8    8    9 ar
     9    9   11 ar
    10   10    5 2
    11   11   14 ar
    12   12   13 2
    13   13   21 1
    14   14   21 ar
    15   15    6 1
    16   16   15 1
    17   17   18 1
    18   19   16 ar
    19   20   19 1
    20   21   22 ar
    21   22    8 ar
    22   23   22 1
    23   24    9 ar
    24   25   24 1
    25   26   24 ar
    26   27   26 1
    27   28    7 ar
    28   29   28 1
    29   30   34 2
    30   31   35 1
    31   32   44 2
    32   33   42 2
    33   34   37 1
    34   35   43 1
    35   36   40 ar
    36   37   38 ar
    37   38   40 ar
    38   39   34 2
    39   40   43 ar
    40   41   42 2
    41   42   50 1
    42   43   50 ar
    43   44   35 1
    44   45   17 ar
    45   46   16 ar
    46   47   46 1
    47   48   45 ar
    48   49   48 1
    49   50   51 ar
    50   51   37 ar
    51   52   51 1
    52   53   38 ar
    53   54   53 1
    54   55   53 ar
    55   56   55 1
    56   57   36 ar
    57   58   57 1
    58   17   19 ar
    59   26   28 ar
    60   44   45 1
    61   46   48 ar
    62   55   57 ar
@<TRIPOS>SUBSTRUCTURE
     1 RES1 1

@<TRIPOS>CRYSIN
  10.9855    9.2181   12.8539  90.0000 111.3770  90.0000  14 1

