# MOL2 file generated by ConQuest
# Please check atom types

@<TRIPOS>MOLECULE
CAVNUI
    29    30     1
SMALL
NO_CHARGES
****
Generated from CSD

@<TRIPOS>ATOM
      1 C1        -7.9131    1.3675   14.4401 C.ar      1 RES1    0.0000
      2 C2        -7.2123    0.1539   14.5394 C.ar      1 RES1    0.0000
      3 C3        -5.9232    0.1518   15.0533 C.ar      1 RES1    0.0000
      4 C4        -5.3516    1.3240   15.5102 C.ar      1 RES1    0.0000
      5 C5        -6.0262    2.5126   15.4226 C.ar      1 RES1    0.0000
      6 C6        -7.3166    2.5276   14.9277 C.ar      1 RES1    0.0000
      7 C7        -9.3170    1.4231   13.9715 C.2       1 RES1    0.0000
      8 C8        -8.8785   -0.0249   11.9436 C.ar      1 RES1    0.0000
      9 C9        -7.9660    0.6798   11.1889 C.ar      1 RES1    0.0000
     10 C10       -7.2431    0.0192   10.2078 C.ar      1 RES1    0.0000
     11 C11       -7.4889   -1.3283    9.9713 C.ar      1 RES1    0.0000
     12 C12       -8.4122   -2.0152   10.7231 C.ar      1 RES1    0.0000
     13 C13       -9.1146   -1.3796   11.7232 C.ar      1 RES1    0.0000
     14 C14      -11.3583    1.8000   11.8268 C.2       1 RES1    0.0000
     15 C15      -12.8123    1.7544   11.4341 C.3       1 RES1    0.0000
     16 N1        -9.6732    0.6371   12.9437 N.am      1 RES1    0.0000
     17 O1        -7.9488    3.7483   14.8825 O.3       1 RES1    0.0000
     18 O2       -10.1390    2.1649   14.5204 O.2       1 RES1    0.0000
     19 O3       -11.0453    0.6841   12.6079 O.3       1 RES1    0.0000
     20 O4       -10.5477    2.6259   11.5363 O.2       1 RES1    0.0000
     21 H1        -7.6651   -0.4703   14.1029 H         1 RES1    0.0000
     22 H2        -5.4058   -0.5630   15.1248 H         1 RES1    0.0000
     23 H3        -4.3634    1.2898   15.9570 H         1 RES1    0.0000
     24 H4        -5.5944    3.2495   15.9132 H         1 RES1    0.0000
     25 H5        -7.7669    1.4965   11.4604 H         1 RES1    0.0000
     26 H6        -6.4742    0.4561    9.5333 H         1 RES1    0.0000
     27 H7        -6.8125   -1.9026    9.0807 H         1 RES1    0.0000
     28 H8        -8.6936   -3.0642   10.4385 H         1 RES1    0.0000
     29 H9        -9.8069   -1.8385   12.3656 H         1 RES1    0.0000
@<TRIPOS>BOND
     1    1    2 ar
     2    2    3 ar
     3    3    4 ar
     4    4    5 ar
     5    5    6 ar
     6    6    1 ar
     7    7    1 1
     8    8    9 ar
     9    9   10 ar
    10   10   11 ar
    11   11   12 ar
    12   12   13 ar
    13   13    8 ar
    14   14   15 1
    15   16    7 1
    16   17    6 1
    17   18    7 2
    18   19   14 1
    19   20   14 2
    20   21    2 1
    21   22    3 1
    22   23    4 1
    23   24    5 1
    24   25    9 1
    25   26   10 1
    26   27   11 1
    27   28   12 1
    28   29   13 1
    29    8   16 1
    30   16   19 1
@<TRIPOS>SUBSTRUCTURE
     1 RES1 1

@<TRIPOS>CRYSIN
  12.8140    7.1260   22.2440  90.0000 138.9800  90.0000  14 1

