# MOL2 file generated by ConQuest
# Please check atom types

@<TRIPOS>MOLECULE
CAVQOF
    28    29     1
SMALL
NO_CHARGES
****
Generated from CSD

@<TRIPOS>ATOM
      1 O1         5.5899    2.2103    9.0116 O.3       1 RES1    0.0000
      2 O2        -1.6230   -1.8364    5.9153 O.2       1 RES1    0.0000
      3 O3        -1.3267   -0.0712    4.7046 O.2       1 RES1    0.0000
      4 N1         3.6087    0.5032    8.5772 N.2       1 RES1    0.0000
      5 N2        -1.0101   -0.8088    5.6327 N.pl3     1 RES1    0.0000
      6 C1         5.9365   -0.8208   11.0455 C.ar      1 RES1    0.0000
      7 H1         5.5281   -1.6462   11.1741 H         1 RES1    0.0000
      8 C2         7.0507   -0.5043   11.7842 C.ar      1 RES1    0.0000
      9 H2         7.3858   -1.1051   12.4102 H         1 RES1    0.0000
     10 C3         7.6706    0.7214   11.5874 C.ar      1 RES1    0.0000
     11 H3         8.4299    0.9368   12.0776 H         1 RES1    0.0000
     12 C4         7.1700    1.6233   10.6715 C.ar      1 RES1    0.0000
     13 H4         7.5886    2.4464   10.5586 H         1 RES1    0.0000
     14 C5         6.0410    1.3114    9.9130 C.ar      1 RES1    0.0000
     15 C6         5.3997    0.0666   10.1028 C.ar      1 RES1    0.0000
     16 C7         4.2097   -0.3079    9.3737 C.2       1 RES1    0.0000
     17 H5         3.8657   -1.1655    9.4849 H         1 RES1    0.0000
     18 C8         2.4214    0.1269    7.9089 C.ar      1 RES1    0.0000
     19 C9         1.7187   -1.0632    8.1395 C.ar      1 RES1    0.0000
     20 H6         2.0173   -1.6600    8.7872 H         1 RES1    0.0000
     21 C10        0.5850   -1.3516    7.4069 C.ar      1 RES1    0.0000
     22 H7         0.1123   -2.1379    7.5614 H         1 RES1    0.0000
     23 C11        0.1589   -0.4566    6.4439 C.ar      1 RES1    0.0000
     24 C12        0.8142    0.7375    6.2152 C.ar      1 RES1    0.0000
     25 H8         0.5024    1.3349    5.5737 H         1 RES1    0.0000
     26 C13        1.9437    1.0259    6.9602 C.ar      1 RES1    0.0000
     27 H9         2.3889    1.8312    6.8257 H         1 RES1    0.0000
     28 H10        4.7771    1.9644    8.6558 H         1 RES1    0.0000
@<TRIPOS>BOND
     1    1   14 1
     2    2    5 2
     3    3    5 2
     4    4   16 2
     5    5   23 1
     6    6    7 1
     7    8    6 ar
     8    9    8 1
     9   10    8 ar
    10   11   10 1
    11   12   10 ar
    12   13   12 1
    13   14   12 ar
    14   15    6 ar
    15   16   15 1
    16   17   16 1
    17   18    4 1
    18   19   18 ar
    19   20   19 1
    20   21   19 ar
    21   22   21 1
    22   23   21 ar
    23   24   23 ar
    24   25   24 1
    25   26   18 ar
    26   27   26 1
    27   28    1 1
    28   14   15 ar
    29   24   26 ar
@<TRIPOS>SUBSTRUCTURE
     1 RES1 1

@<TRIPOS>CRYSIN
  12.4130    5.7440   15.5970  90.0000  97.6900  90.0000  14 1

