# MOL2 file generated by ConQuest
# Please check atom types

@<TRIPOS>MOLECULE
CAWWIH
    52    54     1
SMALL
NO_CHARGES
****
Generated from CSD

@<TRIPOS>ATOM
      1 O1         3.7488    1.2962    3.4674 O.2       1 RES1    0.0000
      2 O2         4.7049    3.0843    2.7635 O.2       1 RES1    0.0000
      3 O3         5.9700    5.7408    8.8607 O.2       1 RES1    0.0000
      4 O4         4.3476    6.0569   10.4268 O.3       1 RES1    0.0000
      5 N1         3.4208    3.0223    7.2601 N.ar      1 RES1    0.0000
      6 N2         4.2011    2.4311    3.6664 N.pl3     1 RES1    0.0000
      7 N3         2.7701    1.2374    5.9365 N.pl3     1 RES1    0.0000
      8 H1         2.8505    0.8308    5.1496 H         1 RES1    0.0000
      9 N4         3.9186    4.7082    8.7296 N.am      1 RES1    0.0000
     10 C1         2.7777    4.2656    9.5027 C.ar      1 RES1    0.0000
     11 C2         2.9361    3.3144   10.4947 C.ar      1 RES1    0.0000
     12 H2         3.7955    2.9596   10.6914 H         1 RES1    0.0000
     13 C3         1.8201    2.8894   11.1972 C.ar      1 RES1    0.0000
     14 H3         1.9157    2.2439   11.8881 H         1 RES1    0.0000
     15 C4         0.5706    3.3961   10.9023 C.ar      1 RES1    0.0000
     16 H4        -0.1894    3.0983   11.3881 H         1 RES1    0.0000
     17 C5         0.4232    4.3342    9.9036 C.ar      1 RES1    0.0000
     18 H5        -0.4384    4.6725    9.6927 H         1 RES1    0.0000
     19 C6         1.5354    4.7835    9.2064 C.ar      1 RES1    0.0000
     20 H6         1.4408    5.4437    8.5303 H         1 RES1    0.0000
     21 C7         4.8747    5.5394    9.3144 C.2       1 RES1    0.0000
     22 C8         5.1698    6.7537   11.4426 C.3       1 RES1    0.0000
     23 C9         6.0376    5.7144   12.1119 C.3       1 RES1    0.0000
     24 H7         5.4752    4.9830   12.4413 H         1 RES1    0.0000
     25 H8         6.5155    6.1233   12.8639 H         1 RES1    0.0000
     26 H9         6.6856    5.3642   11.4655 H         1 RES1    0.0000
     27 C10        5.9494    7.8814   10.8456 C.3       1 RES1    0.0000
     28 H10        6.6747    7.5214   10.2942 H         1 RES1    0.0000
     29 H11        6.3277    8.4333   11.5619 H         1 RES1    0.0000
     30 H12        5.3568    8.4293   10.2891 H         1 RES1    0.0000
     31 C11        4.1165    7.2631   12.3971 C.3       1 RES1    0.0000
     32 H13        3.5565    7.9259   11.9414 H         1 RES1    0.0000
     33 H14        4.5505    7.6785   13.1710 H         1 RES1    0.0000
     34 H15        3.5585    6.5156   12.6977 H         1 RES1    0.0000
     35 C12        4.0705    4.1638    7.4356 C.ar      1 RES1    0.0000
     36 C13        4.7918    4.8153    6.4266 C.ar      1 RES1    0.0000
     37 H16        5.2466    5.6338    6.5874 H         1 RES1    0.0000
     38 C14        4.8061    4.2113    5.1948 C.ar      1 RES1    0.0000
     39 H17        5.2754    4.6207    4.4771 H         1 RES1    0.0000
     40 C15        4.1443    3.0086    4.9824 C.ar      1 RES1    0.0000
     41 C16        3.4313    2.4100    6.0614 C.ar      1 RES1    0.0000
     42 C17        1.9465    0.5436    6.8529 C.ar      1 RES1    0.0000
     43 C18        1.4021    1.0892    8.0115 C.ar      1 RES1    0.0000
     44 H18        1.6015    1.9846    8.2612 H         1 RES1    0.0000
     45 C19        0.5667    0.3125    8.7965 C.ar      1 RES1    0.0000
     46 H19        0.2047    0.6820    9.5937 H         1 RES1    0.0000
     47 C20        0.2466   -0.9830    8.4507 C.ar      1 RES1    0.0000
     48 H20       -0.3367   -1.4971    8.9960 H         1 RES1    0.0000
     49 C21        0.7893   -1.5223    7.2983 C.ar      1 RES1    0.0000
     50 H21        0.5764   -2.4136    7.0493 H         1 RES1    0.0000
     51 C22        1.6350   -0.7752    6.5103 C.ar      1 RES1    0.0000
     52 H22        2.0109   -1.1591    5.7270 H         1 RES1    0.0000
@<TRIPOS>BOND
     1    1    6 2
     2    2    6 2
     3    3   21 2
     4    4   21 1
     5    5   35 ar
     6    6   40 1
     7    7    8 1
     8    9   10 1
     9   10   11 ar
    10   11   12 1
    11   13   11 ar
    12   14   13 1
    13   15   13 ar
    14   16   15 1
    15   17   15 ar
    16   18   17 1
    17   19   10 ar
    18   20   19 1
    19   21    9 1
    20   22    4 1
    21   23   22 1
    22   24   23 1
    23   25   23 1
    24   26   23 1
    25   27   22 1
    26   28   27 1
    27   29   27 1
    28   30   27 1
    29   31   22 1
    30   32   31 1
    31   33   31 1
    32   34   31 1
    33   35    9 1
    34   36   35 ar
    35   37   36 1
    36   38   36 ar
    37   39   38 1
    38   40   38 ar
    39   41    5 ar
    40   42    7 1
    41   43   42 ar
    42   44   43 1
    43   45   43 ar
    44   46   45 1
    45   47   45 ar
    46   48   47 1
    47   49   47 ar
    48   50   49 1
    49   51   42 ar
    50   52   51 1
    51    7   41 1
    52   17   19 ar
    53   40   41 ar
    54   49   51 ar
@<TRIPOS>SUBSTRUCTURE
     1 RES1 1

@<TRIPOS>CRYSIN
   8.5952    9.7900   13.3080  72.5700  83.9100  75.3600   2 1

