# MOL2 file generated by ConQuest
# Please check atom types

@<TRIPOS>MOLECULE
CAWWED
    80    84     2
SMALL
NO_CHARGES
****
Generated from CSD

@<TRIPOS>ATOM
      1 N1         2.6409    0.6024    9.9960 N.ar      1 RES1    0.0000
      2 N2         4.6391    2.4149    7.4657 N.pl3     1 RES1    0.0000
      3 N3         4.2205    2.2093   10.4369 N.3       1 RES1    0.0000
      4 N4         1.0691   -1.0706    9.6036 N.pl3     1 RES1    0.0000
      5 H1         0.5928   -1.4752    8.9535 H         1 RES1    0.0000
      6 N5         7.6508    5.9003    4.1322 N.ar      2 RES2    0.0000
      7 N6         8.2631    8.8659    6.2384 N.pl3     2 RES2    0.0000
      8 N7         8.6983    7.8219    3.4466 N.3       2 RES2    0.0000
      9 H2         6.2653    3.4095    5.3472 H         2 RES2    0.0000
     10 N8         6.6274    3.9033    4.7030 N.pl3     2 RES2    0.0000
     11 O1         5.7261    2.5291    8.0351 O.2       1 RES1    0.0000
     12 O2         4.4791    2.7867    6.2976 O.2       1 RES1    0.0000
     13 O3         8.6839    9.0650    7.3881 O.2       2 RES2    0.0000
     14 O4         7.9844    9.7922    5.4675 O.2       2 RES2    0.0000
     15 C1         1.0021   -1.7481   10.8325 C.ar      1 RES1    0.0000
     16 C2         1.7957   -1.4842   11.9273 C.ar      1 RES1    0.0000
     17 H3         2.4399   -0.8148   11.8872 H         1 RES1    0.0000
     18 C3         1.6280   -2.2244   13.0934 C.ar      1 RES1    0.0000
     19 H4         2.1640   -2.0430   13.8323 H         1 RES1    0.0000
     20 C4         0.6970   -3.2049   13.1697 C.ar      1 RES1    0.0000
     21 H5         0.5871   -3.6873   13.9571 H         1 RES1    0.0000
     22 C5        -0.0855   -3.4832   12.0739 C.ar      1 RES1    0.0000
     23 H6        -0.7173   -4.1640   12.1154 H         1 RES1    0.0000
     24 C6         0.0639   -2.7554   10.9179 C.ar      1 RES1    0.0000
     25 H7        -0.4753   -2.9440   10.1835 H         1 RES1    0.0000
     26 C7         1.8420   -0.0485    9.1576 C.ar      1 RES1    0.0000
     27 C8         1.7208    0.2858    7.7907 C.ar      1 RES1    0.0000
     28 H8         1.0675   -0.1029    7.2538 H         1 RES1    0.0000
     29 C9         2.5882    1.1936    7.2923 C.ar      1 RES1    0.0000
     30 H9         2.5448    1.4339    6.3941 H         1 RES1    0.0000
     31 C10        3.5462    1.7700    8.1179 C.ar      1 RES1    0.0000
     32 C11        3.4784    1.5318    9.5086 C.ar      1 RES1    0.0000
     33 C12        4.5731    3.5792   10.2294 C.ar      1 RES1    0.0000
     34 C13        5.8533    4.0139   10.5024 C.ar      1 RES1    0.0000
     35 H10        6.4929    3.4168   10.8204 H         1 RES1    0.0000
     36 C14        6.1808    5.3415   10.3008 C.ar      1 RES1    0.0000
     37 H11        7.0409    5.6430   10.4847 H         1 RES1    0.0000
     38 C15        5.2319    6.2155    9.8278 C.ar      1 RES1    0.0000
     39 H12        5.4574    7.1058    9.6806 H         1 RES1    0.0000
     40 C16        3.9565    5.7879    9.5707 C.ar      1 RES1    0.0000
     41 H13        3.3169    6.3873    9.2614 H         1 RES1    0.0000
     42 C17        3.6279    4.4715    9.7706 C.ar      1 RES1    0.0000
     43 H14        2.7621    4.1798    9.5957 H         1 RES1    0.0000
     44 C18        4.2222    1.7348   11.8187 C.3       1 RES1    0.0000
     45 H15        3.3622    1.8961   12.2136 H         1 RES1    0.0000
     46 H16        4.8954    2.2024   12.3171 H         1 RES1    0.0000
     47 H17        4.4090    0.7929   11.8328 H         1 RES1    0.0000
     48 C19        6.5245    3.2861    3.4432 C.ar      2 RES2    0.0000
     49 C20        6.5698    3.9543    2.2321 C.ar      2 RES2    0.0000
     50 H18        6.6485    4.8802    2.2118 H         2 RES2    0.0000
     51 C21        6.4970    3.2379    1.0523 C.ar      2 RES2    0.0000
     52 H19        6.5461    3.6916    0.2428 H         2 RES2    0.0000
     53 C22        6.3568    1.8914    1.0466 C.ar      2 RES2    0.0000
     54 H20        6.3101    1.4255    0.2428 H         2 RES2    0.0000
     55 C23        6.2845    1.2248    2.2420 C.ar      2 RES2    0.0000
     56 H21        6.1779    0.3019    2.2503 H         2 RES2    0.0000
     57 C24        6.3684    1.9115    3.4241 C.ar      2 RES2    0.0000
     58 H22        6.3199    1.4464    4.2273 H         2 RES2    0.0000
     59 C25        7.1722    5.0826    5.0712 C.ar      2 RES2    0.0000
     60 C26        7.2406    5.3838    6.4510 C.ar      2 RES2    0.0000
     61 H23        6.9945    4.7581    7.0933 H         2 RES2    0.0000
     62 C27        7.6751    6.6057    6.8022 C.ar      2 RES2    0.0000
     63 H24        7.7157    6.8421    7.7010 H         2 RES2    0.0000
     64 C28        8.0654    7.5218    5.8223 C.ar      2 RES2    0.0000
     65 C29        8.1334    7.0912    4.4745 C.ar      2 RES2    0.0000
     66 C30        9.7922    8.7090    3.6399 C.ar      2 RES2    0.0000
     67 C31        9.9621    9.7901    2.7869 C.ar      2 RES2    0.0000
     68 H25        9.3491    9.9480    2.1057 H         2 RES2    0.0000
     69 C32       11.0411   10.6274    2.9538 C.ar      2 RES2    0.0000
     70 H26       11.1621   11.3392    2.3671 H         2 RES2    0.0000
     71 C33       11.9463   10.4297    3.9747 C.ar      2 RES2    0.0000
     72 H27       12.6628   11.0118    4.0880 H         2 RES2    0.0000
     73 C34       11.7799    9.3659    4.8212 C.ar      2 RES2    0.0000
     74 H28       12.3816    9.2299    5.5170 H         2 RES2    0.0000
     75 C35       10.7275    8.4993    4.6479 C.ar      2 RES2    0.0000
     76 H29       10.6399    7.7646    5.2105 H         2 RES2    0.0000
     77 C36        8.4123    7.3801    2.0785 C.3       2 RES2    0.0000
     78 H30        8.8519    6.5419    1.9146 H         2 RES2    0.0000
     79 H31        8.7331    8.0373    1.4569 H         2 RES2    0.0000
     80 H32        7.4656    7.2707    1.9690 H         2 RES2    0.0000
@<TRIPOS>BOND
     1    1   26 ar
     2    2   11 2
     3    3   32 1
     4    4    5 1
     5    6   59 ar
     6    7   13 2
     7    8   65 1
     8    9   10 1
     9   10   48 1
    10   12    2 2
    11   14    7 2
    12   15    4 1
    13   16   15 ar
    14   17   16 1
    15   18   16 ar
    16   19   18 1
    17   20   18 ar
    18   21   20 1
    19   22   20 ar
    20   23   22 1
    21   24   15 ar
    22   25   24 1
    23   26    4 1
    24   27   26 ar
    25   28   27 1
    26   29   27 ar
    27   30   29 1
    28   31    2 1
    29   32    1 ar
    30   33    3 1
    31   34   33 ar
    32   35   34 1
    33   36   34 ar
    34   37   36 1
    35   38   36 ar
    36   39   38 1
    37   40   38 ar
    38   41   40 1
    39   42   33 ar
    40   43   42 1
    41   44    3 1
    42   45   44 1
    43   46   44 1
    44   47   44 1
    45   48   49 ar
    46   49   50 1
    47   51   49 ar
    48   52   51 1
    49   53   51 ar
    50   54   53 1
    51   55   53 ar
    52   56   55 1
    53   57   48 ar
    54   58   57 1
    55   59   10 1
    56   60   59 ar
    57   61   60 1
    58   62   60 ar
    59   63   62 1
    60   64    7 1
    61   65    6 ar
    62   66    8 1
    63   67   66 ar
    64   68   67 1
    65   69   67 ar
    66   70   69 1
    67   71   69 ar
    68   72   71 1
    69   73   71 ar
    70   74   73 1
    71   75   66 ar
    72   76   75 1
    73   77    8 1
    74   78   77 1
    75   79   77 1
    76   80   77 1
    77   22   24 ar
    78   29   31 ar
    79   31   32 ar
    80   40   42 ar
    81   55   57 ar
    82   62   64 ar
    83   64   65 ar
    84   73   75 ar
@<TRIPOS>SUBSTRUCTURE
     1 RES1 1
     2 RES2 6

@<TRIPOS>CRYSIN
  10.1130   12.4170   14.1050 107.4800  95.2100 102.1800   2 1

