# MOL2 file generated by ConQuest
# Please check atom types

@<TRIPOS>MOLECULE
CAXFUC
    56    58     2
SMALL
NO_CHARGES
****
Generated from CSD

@<TRIPOS>ATOM
      1 O1         4.2516    1.7979    6.8891 O.2       1 RES1    0.0000
      2 N1         3.7232    2.7158    7.6076 N.3       1 RES1    0.0000
      3 C1         4.6217    3.8114    8.0400 C.3       1 RES1    0.0000
      4 C2         3.8989    4.8767    8.7748 C.3       1 RES1    0.0000
      5 C3         2.5037    4.7683    9.1616 C.3       1 RES1    0.0000
      6 C4         1.8036    3.5480    8.8788 C.3       1 RES1    0.0000
      7 C5         2.2402    2.6627    7.7658 C.3       1 RES1    0.0000
      8 C6         1.6162    3.0084    6.4285 C.3       1 RES1    0.0000
      9 C7         1.8722    1.2278    8.1267 C.3       1 RES1    0.0000
     10 C8         5.1952    4.4822    6.8349 C.3       1 RES1    0.0000
     11 C9         5.6668    3.2522    8.9189 C.3       1 RES1    0.0000
     12 O2         2.6427    5.4618    7.9349 O.3       1 RES1    0.0000
     13 H1         4.4914    5.6352    9.2657 H         1 RES1    0.0000
     14 H2         2.1551    5.3426   10.0351 H         1 RES1    0.0000
     15 H3         1.7448    2.9477    9.8075 H         1 RES1    0.0000
     16 H4         0.7392    3.7171    8.8322 H         1 RES1    0.0000
     17 H5         1.9236    2.3841    5.5811 H         1 RES1    0.0000
     18 H6         0.5506    2.9802    6.5131 H         1 RES1    0.0000
     19 H7         1.8531    4.0314    6.1663 H         1 RES1    0.0000
     20 H8         2.3181    0.9428    9.0706 H         1 RES1    0.0000
     21 H9         2.1908    0.5635    7.2933 H         1 RES1    0.0000
     22 H10        0.8013    1.1596    8.2253 H         1 RES1    0.0000
     23 H11        5.7187    3.7063    6.2530 H         1 RES1    0.0000
     24 H12        5.8521    5.2993    7.0874 H         1 RES1    0.0000
     25 H13        4.4214    4.9092    6.1446 H         1 RES1    0.0000
     26 H14        6.2284    2.4275    8.4204 H         1 RES1    0.0000
     27 H15        6.3659    4.0205    9.2440 H         1 RES1    0.0000
     28 H16        5.3085    2.7418    9.8184 H         1 RES1    0.0000
     29 O3        13.8882    1.6537    3.1384 O.2       2 RES2    0.0000
     30 N2        14.0006    2.5792    2.2649 N.3       2 RES2    0.0000
     31 C10       12.9775    2.5846    1.2083 C.3       2 RES2    0.0000
     32 C11       13.1206    3.7745    0.3056 C.3       2 RES2    0.0000
     33 C12       14.2209    4.6567    0.3446 C.3       2 RES2    0.0000
     34 C13       15.3574    4.3500    1.2484 C.3       2 RES2    0.0000
     35 C14       15.0082    3.6228    2.5294 C.3       2 RES2    0.0000
     36 C15       14.5074    4.5450    3.6152 C.3       2 RES2    0.0000
     37 C16       16.2906    2.9303    3.0127 C.3       2 RES2    0.0000
     38 C17       13.1406    1.3221    0.3890 C.3       2 RES2    0.0000
     39 C18       11.5985    2.6063    1.8737 C.3       2 RES2    0.0000
     40 O4        13.0956    5.1367    1.0208 O.3       2 RES2    0.0000
     41 H17       12.5571    3.7279   -0.6285 H         2 RES2    0.0000
     42 H18       14.4693    5.1692   -0.5744 H         2 RES2    0.0000
     43 H19       15.8990    5.2559    1.4738 H         2 RES2    0.0000
     44 H20       16.0962    3.7604    0.6827 H         2 RES2    0.0000
     45 H21       14.2220    4.0422    4.5407 H         2 RES2    0.0000
     46 H22       15.2206    5.3210    3.8146 H         2 RES2    0.0000
     47 H23       13.5736    5.0175    3.2728 H         2 RES2    0.0000
     48 H24       16.7010    2.2866    2.2433 H         2 RES2    0.0000
     49 H25       16.0638    2.4167    3.9447 H         2 RES2    0.0000
     50 H26       17.0790    3.7063    3.2186 H         2 RES2    0.0000
     51 H27       13.0512    0.4335    1.0512 H         2 RES2    0.0000
     52 H28       12.3771    1.2896   -0.3685 H         2 RES2    0.0000
     53 H29       14.0968    1.2679   -0.0650 H         2 RES2    0.0000
     54 H30       11.4877    1.7448    2.5359 H         2 RES2    0.0000
     55 H31       10.8301    2.6009    1.1162 H         2 RES2    0.0000
     56 H32       11.4625    3.5112    2.4708 H         2 RES2    0.0000
@<TRIPOS>BOND
     1    1    2 1
     2    2    3 1
     3    3    4 1
     4    4    5 1
     5    5    6 1
     6    6    7 1
     7    7    2 1
     8    8    7 1
     9    9    7 1
    10   10    3 1
    11   11    3 1
    12   12    4 1
    13   13    4 1
    14   14    5 1
    15   15    6 1
    16   16    6 1
    17   17    8 1
    18   18    8 1
    19   19    8 1
    20   20    9 1
    21   21    9 1
    22   22    9 1
    23   23   10 1
    24   24   10 1
    25   25   10 1
    26   26   11 1
    27   27   11 1
    28   28   11 1
    29   29   30 1
    30   30   31 1
    31   31   32 1
    32   32   33 1
    33   33   34 1
    34   34   35 1
    35   35   30 1
    36   36   35 1
    37   37   35 1
    38   38   31 1
    39   39   31 1
    40   40   32 1
    41   41   32 1
    42   42   33 1
    43   43   34 1
    44   44   34 1
    45   45   36 1
    46   46   36 1
    47   47   36 1
    48   48   37 1
    49   49   37 1
    50   50   37 1
    51   51   38 1
    52   52   38 1
    53   53   38 1
    54   54   39 1
    55   55   39 1
    56   56   39 1
    57    5   12 1
    58   33   40 1
@<TRIPOS>SUBSTRUCTURE
     1 RES1 1
     2 RES2 29

@<TRIPOS>CRYSIN
  16.5170   10.8370   11.5720  90.0000 110.5300  90.0000  14 1

