# MOL2 file generated by ConQuest
# Please check atom types

@<TRIPOS>MOLECULE
CAXJUJ
    80    84     2
SMALL
NO_CHARGES
****
Generated from CSD

@<TRIPOS>ATOM
      1 O1        -2.7269  -13.4819   -3.6342 O.2       1 RES1    0.0000
      2 O2        -2.5939  -13.2331   -1.4295 O.3       1 RES1    0.0000
      3 O3        -2.8379  -13.3272    3.1016 O.3       1 RES1    0.0000
      4 O4        -5.8004  -14.7281    5.4772 O.3       1 RES1    0.0000
      5 H1        -5.6182  -14.6158    6.2696 H         1 RES1    0.0000
      6 N1        -4.7312  -14.2537    4.6748 N.2       1 RES1    0.0000
      7 C1        -1.0011  -14.6141   -2.3357 C.2       1 RES1    0.0000
      8 C2        -0.0534  -14.9729   -3.2188 C.2       1 RES1    0.0000
      9 C3         1.1833  -15.6461   -2.7387 C.3       1 RES1    0.0000
     10 H2         1.9373  -15.0681   -2.9325 H         1 RES1    0.0000
     11 H3         1.3048  -16.4605   -3.2531 H         1 RES1    0.0000
     12 C4         1.2305  -16.0116   -1.2519 C.3       1 RES1    0.0000
     13 H4         0.8346  -16.8889   -1.1267 H         1 RES1    0.0000
     14 H5         2.1551  -16.0592   -0.9638 H         1 RES1    0.0000
     15 C5         0.4869  -14.9984   -0.3893 C.3       1 RES1    0.0000
     16 H6         0.9268  -14.1347   -0.4493 H         1 RES1    0.0000
     17 H7         0.5058  -15.2823    0.5368 H         1 RES1    0.0000
     18 C6        -0.9645  -14.8692   -0.8609 C.3       1 RES1    0.0000
     19 C7        -1.6368  -13.5805   -0.3618 C.3       1 RES1    0.0000
     20 H8        -0.9582  -12.8749   -0.3070 H         1 RES1    0.0000
     21 C8        -2.1750  -13.7573   -2.6015 C.2       1 RES1    0.0000
     22 C9        -2.3866  -13.6196    0.9260 C.2       1 RES1    0.0000
     23 C10       -3.6390  -14.2350    1.2244 C.2       1 RES1    0.0000
     24 H9        -4.1919  -14.6856    0.6259 H         1 RES1    0.0000
     25 C11       -3.8715  -14.0412    2.5500 C.2       1 RES1    0.0000
     26 C12       -1.9656  -13.0857    2.0887 C.2       1 RES1    0.0000
     27 H10       -1.1718  -12.6097    2.1865 H         1 RES1    0.0000
     28 C13       -0.1110  -14.6975   -4.6919 C.3       1 RES1    0.0000
     29 H11       -0.7728  -14.0242   -4.8651 H         1 RES1    0.0000
     30 H12       -0.3435  -15.5016   -5.1601 H         1 RES1    0.0000
     31 H13        0.7467  -14.3880   -4.9938 H         1 RES1    0.0000
     32 C14       -1.7761  -16.1255   -0.5368 C.3       1 RES1    0.0000
     33 H14       -1.4169  -16.8719   -1.0204 H         1 RES1    0.0000
     34 H15       -2.6913  -15.9895   -0.7906 H         1 RES1    0.0000
     35 H16       -1.7289  -16.3024    0.4064 H         1 RES1    0.0000
     36 C15       -4.9302  -14.4764    3.4332 C.2       1 RES1    0.0000
     37 C16       -6.1094  -15.1735    2.8519 C.3       1 RES1    0.0000
     38 H17       -6.0476  -16.1136    3.0319 H         1 RES1    0.0000
     39 H18       -6.1282  -15.0307    1.9018 H         1 RES1    0.0000
     40 H19       -6.9126  -14.8233    3.2429 H         1 RES1    0.0000
     41 O5        -5.5386  -15.2721   15.9456 O.2       2 RES2    0.0000
     42 O6        -5.7146  -15.2337   13.7196 O.3       2 RES2    0.0000
     43 O7        -5.6465  -15.0919    9.1825 O.3       2 RES2    0.0000
     44 O8        -3.0526  -13.2405    6.6548 O.3       2 RES2    0.0000
     45 H20       -3.2442  -13.3799    5.8701 H         2 RES2    0.0000
     46 N2        -3.9888  -13.8831    7.4872 N.2       2 RES2    0.0000
     47 C17       -5.3868  -17.3394   14.6246 C.2       2 RES2    0.0000
     48 C18       -5.6842  -18.3187   15.4374 C.2       2 RES2    0.0000
     49 C19       -5.7345  -19.7298   14.9127 C.3       2 RES2    0.0000
     50 H21       -6.6560  -20.0341   14.9350 H         2 RES2    0.0000
     51 H22       -5.2255  -20.2993   15.5112 H         2 RES2    0.0000
     52 C20       -5.2025  -19.9202   13.5030 C.3       2 RES2    0.0000
     53 H23       -4.2349  -19.9712   13.5271 H         2 RES2    0.0000
     54 H24       -5.5386  -20.7549   13.1395 H         2 RES2    0.0000
     55 C21       -5.6308  -18.7692   12.6130 C.3       2 RES2    0.0000
     56 H25       -6.5995  -18.7301   12.5736 H         2 RES2    0.0000
     57 H26       -5.2978  -18.9120   11.7127 H         2 RES2    0.0000
     58 C22       -5.0873  -17.4550   13.1549 C.3       2 RES2    0.0000
     59 C23       -5.8643  -16.2224   12.6525 C.3       2 RES2    0.0000
     60 H27       -6.8120  -16.4690   12.6113 H         2 RES2    0.0000
     61 C24       -5.5313  -15.8892   14.8990 C.2       2 RES2    0.0000
     62 C25       -5.5051  -15.6070   11.3526 C.2       2 RES2    0.0000
     63 C26       -4.3302  -14.9151   10.9616 C.2       2 RES2    0.0000
     64 H28       -3.6107  -14.7026   11.5121 H         2 RES2    0.0000
     65 C27       -4.4443  -14.6209    9.6480 C.2       2 RES2    0.0000
     66 C28       -6.2455  -15.6903   10.2465 C.2       2 RES2    0.0000
     67 H29       -7.0749  -16.1085   10.2070 H         2 RES2    0.0000
     68 C29       -6.0622  -18.1657   16.8917 C.3       2 RES2    0.0000
     69 H30       -5.9533  -17.2493   17.1558 H         2 RES2    0.0000
     70 H31       -5.4968  -18.7233   17.4301 H         2 RES2    0.0000
     71 H32       -6.9785  -18.4275   17.0134 H         2 RES2    0.0000
     72 C30       -3.5657  -17.3326   12.9131 C.3       2 RES2    0.0000
     73 H33       -3.2568  -16.4860   13.2441 H         2 RES2    0.0000
     74 H34       -3.3856  -17.3921   11.9716 H         2 RES2    0.0000
     75 H35       -3.1112  -18.0416   13.3727 H         2 RES2    0.0000
     76 C31       -3.5710  -13.9545    8.7134 C.2       2 RES2    0.0000
     77 C32       -2.2567  -13.4479    9.1952 C.3       2 RES2    0.0000
     78 H36       -1.5551  -14.0089    8.8574 H         2 RES2    0.0000
     79 H37       -2.2421  -13.4598   10.1556 H         2 RES2    0.0000
     80 H38       -2.1269  -12.5485    8.8848 H         2 RES2    0.0000
@<TRIPOS>BOND
     1    1   21 2
     2    2   19 1
     3    3   25 1
     4    4    5 1
     5    6    4 1
     6    7    8 2
     7    8    9 1
     8    9   10 1
     9   11    9 1
    10   12    9 1
    11   13   12 1
    12   14   12 1
    13   15   12 1
    14   16   15 1
    15   17   15 1
    16   18    7 1
    17   19   18 1
    18   20   19 1
    19   21    2 1
    20   22   19 1
    21   23   22 1
    22   24   23 1
    23   25   23 2
    24   26    3 1
    25   27   26 1
    26   28    8 1
    27   29   28 1
    28   30   28 1
    29   31   28 1
    30   32   18 1
    31   33   32 1
    32   34   32 1
    33   35   32 1
    34   36    6 2
    35   37   36 1
    36   38   37 1
    37   39   37 1
    38   40   37 1
    39   41   61 2
    40   42   59 1
    41   43   65 1
    42   44   45 1
    43   46   44 1
    44   47   48 2
    45   48   49 1
    46   49   50 1
    47   51   49 1
    48   52   49 1
    49   53   52 1
    50   54   52 1
    51   55   52 1
    52   56   55 1
    53   57   55 1
    54   58   47 1
    55   59   58 1
    56   60   59 1
    57   61   42 1
    58   62   59 1
    59   63   62 1
    60   64   63 1
    61   65   63 2
    62   66   43 1
    63   67   66 1
    64   68   48 1
    65   69   68 1
    66   70   68 1
    67   71   68 1
    68   72   58 1
    69   73   72 1
    70   74   72 1
    71   75   72 1
    72   76   46 2
    73   77   76 1
    74   78   77 1
    75   79   77 1
    76   80   77 1
    77    7   21 1
    78   15   18 1
    79   22   26 2
    80   25   36 1
    81   47   61 1
    82   55   58 1
    83   62   66 2
    84   65   76 1
@<TRIPOS>SUBSTRUCTURE
     1 RES1 1
     2 RES2 41

@<TRIPOS>CRYSIN
  10.4720   17.0011   17.1489  90.0000  90.0000  90.0000  19 1

