# MOL2 file generated by ConQuest
# Please check atom types

@<TRIPOS>MOLECULE
CAXKIV
    62    68     2
SMALL
NO_CHARGES
****
Generated from CSD

@<TRIPOS>ATOM
      1 C1        -0.3790   -2.5607    6.9351 C.3       1 RES1    0.0000
      2 C2        -0.7554   -1.9826    8.2875 C.3       1 RES1    0.0000
      3 C3        -0.1072   -0.6782    8.5292 C.3       1 RES1    0.0000
      4 C4         1.0728   -0.3156    7.7093 C.ar      1 RES1    0.0000
      5 C5         1.7082    0.9110    7.8821 C.ar      1 RES1    0.0000
      6 C6         2.8875    1.2047    7.2090 C.ar      1 RES1    0.0000
      7 C7         3.4434    0.2648    6.3721 C.ar      1 RES1    0.0000
      8 C8         2.8354   -0.9730    6.1886 C.ar      1 RES1    0.0000
      9 C9         1.6483   -1.2644    6.8635 C.ar      1 RES1    0.0000
     10 C10       -1.5692   -0.7433    7.9823 C.3       1 RES1    0.0000
     11 C11       -2.6470   -0.2753    8.8953 C.2       1 RES1    0.0000
     12 C12       -1.7605   -0.7132    6.5081 C.2       1 RES1    0.0000
     13 C13        1.8331   -4.4790    5.7285 C.3       1 RES1    0.0000
     14 N1         1.0682   -2.5592    6.7874 N.3       1 RES1    0.0000
     15 N2        -1.0422   -1.6831    5.9693 N.am      1 RES1    0.0000
     16 O1         1.3514   -3.1532    5.5083 O.3       1 RES1    0.0000
     17 O2        -3.5857    0.4930    8.3600 O.3       1 RES1    0.0000
     18 O3        -2.6833   -0.5689   10.0616 O.2       1 RES1    0.0000
     19 O4        -2.5122    0.0706    5.9084 O.2       1 RES1    0.0000
     20 H1        -0.7351   -3.5273    6.7668 H         1 RES1    0.0000
     21 H2        -0.9902   -2.5865    8.9687 H         1 RES1    0.0000
     22 H3        -0.0905   -0.2983    9.4520 H         1 RES1    0.0000
     23 H4         1.2908    1.5993    8.4316 H         1 RES1    0.0000
     24 H5         3.3927    2.0657    7.3486 H         1 RES1    0.0000
     25 H6         4.3572    0.4779    5.8717 H         1 RES1    0.0000
     26 H7         3.2514   -1.7028    5.6479 H         1 RES1    0.0000
     27 H8         2.6604   -4.4203    6.1939 H         1 RES1    0.0000
     28 H9         2.0066   -4.8180    4.8603 H         1 RES1    0.0000
     29 H10        1.1161   -5.0040    6.2655 H         1 RES1    0.0000
     30 H11       -1.0474   -1.8179    5.0930 H         1 RES1    0.0000
     31 H12       -3.5007    0.5134    7.4291 H         1 RES1    0.0000
     32 C14       -1.0949    3.3771    6.0257 C.3       2 RES2    0.0000
     33 C15       -1.1142    4.7914    6.5878 C.3       2 RES2    0.0000
     34 C16       -1.7301    5.7522    5.6497 C.3       2 RES2    0.0000
     35 C17       -1.8642    5.3724    4.2257 C.ar      2 RES2    0.0000
     36 C18       -2.4745    6.2188    3.3100 C.ar      2 RES2    0.0000
     37 C19       -2.4761    5.9235    1.9540 C.ar      2 RES2    0.0000
     38 C20       -1.8567    4.7795    1.5118 C.ar      2 RES2    0.0000
     39 C21       -1.2310    3.9220    2.3961 C.ar      2 RES2    0.0000
     40 C22       -1.2400    4.2074    3.7620 C.ar      2 RES2    0.0000
     41 C23       -2.5703    5.1200    6.8071 C.3       2 RES2    0.0000
     42 C24       -3.0342    6.0401    7.8713 C.2       2 RES2    0.0000
     43 C25       -3.3428    3.8894    6.4875 C.2       2 RES2    0.0000
     44 C26        0.7585    1.5076    4.2122 C.3       2 RES2    0.0000
     45 N3        -0.5285    3.3929    4.6768 N.3       2 RES2    0.0000
     46 N4        -2.5000    2.9764    6.0292 N.am      2 RES2    0.0000
     47 O5        -0.5593    2.0316    4.2149 O.3       2 RES2    0.0000
     48 O6        -4.3043    5.8901    8.2267 O.3       2 RES2    0.0000
     49 O7        -2.3395    6.8772    8.3851 O.2       2 RES2    0.0000
     50 O8        -4.5530    3.7647    6.6755 O.2       2 RES2    0.0000
     51 H13       -0.5742    2.7393    6.6236 H         2 RES2    0.0000
     52 H14       -0.4232    5.1722    7.1785 H         2 RES2    0.0000
     53 H15       -1.5425    6.7479    5.8449 H         2 RES2    0.0000
     54 H16       -2.9077    7.0839    3.6161 H         2 RES2    0.0000
     55 H17       -2.8988    6.6474    1.3426 H         2 RES2    0.0000
     56 H18       -1.8641    4.5105    0.5639 H         2 RES2    0.0000
     57 H19       -0.8315    3.1263    2.0676 H         2 RES2    0.0000
     58 H20        1.3722    2.0899    3.5535 H         2 RES2    0.0000
     59 H21        0.6393    0.5691    3.8757 H         2 RES2    0.0000
     60 H22        1.1564    1.6177    5.0661 H         2 RES2    0.0000
     61 H23       -2.5992    2.1460    5.6748 H         2 RES2    0.0000
     62 H24       -4.6108    5.1222    7.6977 H         2 RES2    0.0000
@<TRIPOS>BOND
     1    1    2 1
     2    2    3 1
     3    3    4 1
     4    4    5 ar
     5    5    6 ar
     6    6    7 ar
     7    7    8 ar
     8    8    9 ar
     9    9    4 ar
    10   10    2 1
    11   11   10 1
    12   12   10 1
    13   13   16 1
    14   14    1 1
    15   15    1 1
    16   16   14 1
    17   17   11 1
    18   18   11 2
    19   19   12 2
    20   20    1 1
    21   21    2 1
    22   22    3 1
    23   23    5 1
    24   24    6 1
    25   25    7 1
    26   26    8 1
    27   27   13 1
    28   28   13 1
    29   29   13 1
    30   30   15 1
    31   31   17 1
    32   32   33 1
    33   33   34 1
    34   34   35 1
    35   35   36 ar
    36   36   37 ar
    37   37   38 ar
    38   38   39 ar
    39   39   40 ar
    40   40   35 ar
    41   41   33 1
    42   42   41 1
    43   43   41 1
    44   44   47 1
    45   45   32 1
    46   46   32 1
    47   47   45 1
    48   48   42 1
    49   49   42 2
    50   50   43 2
    51   51   32 1
    52   52   33 1
    53   53   34 1
    54   54   36 1
    55   55   37 1
    56   56   38 1
    57   57   39 1
    58   58   44 1
    59   59   44 1
    60   60   44 1
    61   61   46 1
    62   62   48 1
    63    3   10 1
    64    9   14 1
    65   12   15 1
    66   34   41 1
    67   40   45 1
    68   43   46 1
@<TRIPOS>SUBSTRUCTURE
     1 RES1 1
     2 RES2 32

@<TRIPOS>CRYSIN
   9.8910   13.6530    9.7250 105.1300 110.2300  75.9500   2 1

