# MOL2 file generated by ConQuest
# Please check atom types

@<TRIPOS>MOLECULE
CAXKIY
   110   116     2
SMALL
NO_CHARGES
****
Generated from CSD

@<TRIPOS>ATOM
      1 O1         8.3557   15.7316   10.2448 O.3       1 RES1    0.0000
      2 O2        10.3337   16.3571   11.0609 O.2       1 RES1    0.0000
      3 O3         5.8320   12.7771    8.8966 O.3       1 RES1    0.0000
      4 O4         2.3311   11.2494    7.4668 O.3       1 RES1    0.0000
      5 O5         3.4142   10.1743    5.8041 O.2       1 RES1    0.0000
      6 N1         3.6245   11.7680    7.8379 N.2       1 RES1    0.0000
      7 C1         8.2583   16.6783   12.3395 C.2       1 RES1    0.0000
      8 C2         8.5213   17.5893   13.2851 C.2       1 RES1    0.0000
      9 C3         7.3917   17.9814   14.2198 C.3       1 RES1    0.0000
     10 H1         7.1903   18.9164   14.0674 H         1 RES1    0.0000
     11 H2         7.7185   17.9025   15.1295 H         1 RES1    0.0000
     12 C4         6.0908   17.2043   14.1229 C.3       1 RES1    0.0000
     13 H3         5.3620   17.7447   14.4646 H         1 RES1    0.0000
     14 H4         6.1499   16.4009   14.6659 H         1 RES1    0.0000
     15 C5         5.8053   16.8193   12.6779 C.3       1 RES1    0.0000
     16 H5         4.9762   16.3196   12.6311 H         1 RES1    0.0000
     17 H6         5.7063   17.6204   12.1414 H         1 RES1    0.0000
     18 C6         6.9441   15.9777   12.1338 C.3       1 RES1    0.0000
     19 C7         6.9491   15.8342   10.6039 C.3       1 RES1    0.0000
     20 H7         6.5940   16.6615   10.2165 H         1 RES1    0.0000
     21 C8         9.1357   16.2885   11.2220 C.2       1 RES1    0.0000
     22 C9         9.8265   18.2803   13.4505 C.3       1 RES1    0.0000
     23 H8        10.3726   18.1201   12.6779 H         1 RES1    0.0000
     24 H9        10.2704   17.9408   14.2318 H         1 RES1    0.0000
     25 H10        9.6790   19.2225   13.5495 H         1 RES1    0.0000
     26 C10        7.0014   14.5741   12.7758 C.3       1 RES1    0.0000
     27 H11        7.2275   14.6554   13.7051 H         1 RES1    0.0000
     28 H12        7.6687   14.0456   12.3297 H         1 RES1    0.0000
     29 H13        6.1457   14.1460   12.6899 H         1 RES1    0.0000
     30 C11        6.2382   14.6888    9.9858 C.2       1 RES1    0.0000
     31 C12        4.8222   14.5119    9.8672 C.2       1 RES1    0.0000
     32 H14        4.1631   15.0834   10.1861 H         1 RES1    0.0000
     33 C13        4.6322   13.3570    9.2046 C.2       1 RES1    0.0000
     34 C14        6.7773   13.6009    9.4167 C.2       1 RES1    0.0000
     35 H15        7.6910   13.4311    9.3819 H         1 RES1    0.0000
     36 C15        3.4406   12.7114    8.6877 C.2       1 RES1    0.0000
     37 C16        2.4064   10.3872    6.4146 C.2       1 RES1    0.0000
     38 C17        1.0790    9.8061    6.1186 C.ar      1 RES1    0.0000
     39 C18        1.0329    8.7923    5.1795 C.ar      1 RES1    0.0000
     40 H16        1.8136    8.5101    4.7606 H         1 RES1    0.0000
     41 C19       -0.1816    8.1921    4.8618 C.ar      1 RES1    0.0000
     42 H17       -0.2063    7.5249    4.2154 H         1 RES1    0.0000
     43 C20       -1.3556    8.5723    5.4907 C.ar      1 RES1    0.0000
     44 C21       -1.2954    9.6076    6.4135 C.ar      1 RES1    0.0000
     45 H18       -2.0784    9.9065    6.8161 H         1 RES1    0.0000
     46 C22       -0.0968   10.2006    6.7454 C.ar      1 RES1    0.0000
     47 H19       -0.0749   10.8678    7.3928 H         1 RES1    0.0000
     48 C23        2.1225   13.2207    9.1251 C.3       1 RES1    0.0000
     49 H20        1.7111   12.5822    9.7127 H         1 RES1    0.0000
     50 H21        1.5612   13.3570    8.3591 H         1 RES1    0.0000
     51 H22        2.2380   14.0528    9.5898 H         1 RES1    0.0000
     52 C24       -2.6504    7.8908    5.1665 C.3       1 RES1    0.0000
     53 H23       -3.1086    8.3858    4.4820 H         1 RES1    0.0000
     54 H24       -3.1970    7.8525    5.9543 H         1 RES1    0.0000
     55 H25       -2.4739    7.0013    4.8542 H         1 RES1    0.0000
     56 O6         1.4083   13.1843    5.0011 O.2       2 RES2    0.0000
     57 O7        -0.5644   13.7006    5.8944 O.3       2 RES2    0.0000
     58 O8        -3.0423   16.6917    7.1861 O.3       2 RES2    0.0000
     59 O9        -6.5060   18.4535    8.3917 O.3       2 RES2    0.0000
     60 O10       -5.3437   20.0044    9.5354 O.2       2 RES2    0.0000
     61 N2        -5.2361   17.9308    7.9771 N.2       2 RES2    0.0000
     62 C25       -0.6915   12.7137    3.8205 C.2       2 RES2    0.0000
     63 C26       -0.4163   11.8171    2.8857 C.2       2 RES2    0.0000
     64 C27       -1.5221   11.3030    2.0120 C.3       2 RES2    0.0000
     65 H26       -1.6217   10.3537    2.1795 H         2 RES2    0.0000
     66 H27       -1.2470   11.4058    1.0881 H         2 RES2    0.0000
     67 C28       -2.9057   11.9629    2.1741 C.3       2 RES2    0.0000
     68 H28       -2.9639   12.7353    1.5909 H         2 RES2    0.0000
     69 H29       -3.5944   11.3341    1.9075 H         2 RES2    0.0000
     70 C29       -3.1479   12.3957    3.6061 C.3       2 RES2    0.0000
     71 H30       -3.1708   11.6162    4.1828 H         2 RES2    0.0000
     72 H31       -4.0065   12.8429    3.6703 H         2 RES2    0.0000
     73 C30       -2.0415   13.3426    4.0685 C.3       2 RES2    0.0000
     74 C31       -1.9798   13.5459    5.5876 C.3       2 RES2    0.0000
     75 H32       -2.3124   12.7353    6.0294 H         2 RES2    0.0000
     76 C32        0.1985   13.1872    4.8944 C.2       2 RES2    0.0000
     77 C33        0.9295   11.2264    2.6115 C.3       2 RES2    0.0000
     78 H33        1.5598   11.5564    3.2557 H         2 RES2    0.0000
     79 H34        1.2141   11.4751    1.7291 H         2 RES2    0.0000
     80 H35        0.8779   10.2700    2.6746 H         2 RES2    0.0000
     81 C34       -2.1208   14.6912    3.3351 C.3       2 RES2    0.0000
     82 H36       -2.0332   14.5478    2.3896 H         2 RES2    0.0000
     83 H37       -1.4114   15.2627    3.6387 H         2 RES2    0.0000
     84 H38       -2.9670   15.1073    3.5190 H         2 RES2    0.0000
     85 C35       -2.6878   14.7295    6.1545 C.2       2 RES2    0.0000
     86 C36       -4.0894   14.9686    6.2154 C.2       2 RES2    0.0000
     87 H39       -4.7596   14.4115    5.8890 H         2 RES2    0.0000
     88 C37       -4.2613   16.1474    6.8324 C.2       2 RES2    0.0000
     89 C38       -2.1173   15.7888    6.7421 C.2       2 RES2    0.0000
     90 H40       -1.1981   15.8964    6.8357 H         2 RES2    0.0000
     91 C39       -5.4393   16.8672    7.2905 C.2       2 RES2    0.0000
     92 C40       -6.3838   19.4783    9.2764 C.2       2 RES2    0.0000
     93 C41       -7.6909   19.8202    9.8672 C.ar      2 RES2    0.0000
     94 C42       -7.7050   20.7098   10.9369 C.ar      2 RES2    0.0000
     95 H41       -6.9100   21.1019   11.2165 H         2 RES2    0.0000
     96 C43       -8.8775   21.0182   11.5876 C.ar      2 RES2    0.0000
     97 H42       -8.8595   21.5945   12.3166 H         2 RES2    0.0000
     98 C44      -10.0747   20.4826   11.1741 C.ar      2 RES2    0.0000
     99 C45      -10.0773   19.6242   10.0838 C.ar      2 RES2    0.0000
    100 H43      -10.8805   19.2703    9.7747 H         2 RES2    0.0000
    101 C46       -8.8959   19.2918    9.4548 C.ar      2 RES2    0.0000
    102 H44       -8.9119   18.6988    8.7377 H         2 RES2    0.0000
    103 C47       -6.7801   16.3124    6.9554 C.3       2 RES2    0.0000
    104 H45       -6.6747   15.4947    6.4657 H         2 RES2    0.0000
    105 H46       -7.2639   16.9461    6.4200 H         2 RES2    0.0000
    106 H47       -7.2668   16.1427    7.7650 H         2 RES2    0.0000
    107 C48      -11.3633   20.8150   11.9205 C.3       2 RES2    0.0000
    108 H48      -11.8854   20.0163   12.0305 H         2 RES2    0.0000
    109 H49      -11.8674   21.4606   11.4189 H         2 RES2    0.0000
    110 H50      -11.1488   21.1784   12.7834 H         2 RES2    0.0000
@<TRIPOS>BOND
     1    1   19 1
     2    2   21 2
     3    3   33 1
     4    4    6 1
     5    5   37 2
     6    6   36 2
     7    7    8 2
     8    8    9 1
     9    9   10 1
    10   11    9 1
    11   12    9 1
    12   13   12 1
    13   14   12 1
    14   15   12 1
    15   16   15 1
    16   17   15 1
    17   18    7 1
    18   19   18 1
    19   20   19 1
    20   21    1 1
    21   22    8 1
    22   23   22 1
    23   24   22 1
    24   25   22 1
    25   26   18 1
    26   27   26 1
    27   28   26 1
    28   29   26 1
    29   30   19 1
    30   31   30 1
    31   32   31 1
    32   33   31 2
    33   34    3 1
    34   35   34 1
    35   36   33 1
    36   37    4 1
    37   38   37 1
    38   39   38 ar
    39   40   39 1
    40   41   39 ar
    41   42   41 1
    42   43   41 ar
    43   44   43 ar
    44   45   44 1
    45   46   38 ar
    46   47   46 1
    47   48   36 1
    48   49   48 1
    49   50   48 1
    50   51   48 1
    51   52   43 1
    52   53   52 1
    53   54   52 1
    54   55   52 1
    55   56   76 2
    56   57   74 1
    57   58   88 1
    58   59   61 1
    59   60   92 2
    60   61   91 2
    61   62   63 2
    62   63   64 1
    63   64   65 1
    64   66   64 1
    65   67   64 1
    66   68   67 1
    67   69   67 1
    68   70   67 1
    69   71   70 1
    70   72   70 1
    71   73   62 1
    72   74   73 1
    73   75   74 1
    74   76   57 1
    75   77   63 1
    76   78   77 1
    77   79   77 1
    78   80   77 1
    79   81   73 1
    80   82   81 1
    81   83   81 1
    82   84   81 1
    83   85   74 1
    84   86   85 1
    85   87   86 1
    86   88   86 2
    87   89   58 1
    88   90   89 1
    89   91   88 1
    90   92   59 1
    91   93   92 1
    92   94   93 ar
    93   95   94 1
    94   96   94 ar
    95   97   96 1
    96   98   96 ar
    97   99   98 ar
    98  100   99 1
    99  101   93 ar
   100  102  101 1
   101  103   91 1
   102  104  103 1
   103  105  103 1
   104  106  103 1
   105  107   98 1
   106  108  107 1
   107  109  107 1
   108  110  107 1
   109    7   21 1
   110   15   18 1
   111   30   34 2
   112   44   46 ar
   113   62   76 1
   114   70   73 1
   115   85   89 2
   116   99  101 ar
@<TRIPOS>SUBSTRUCTURE
     1 RES1 1
     2 RES2 56

@<TRIPOS>CRYSIN
   8.2307   23.9115   11.3903  90.0000 107.1920  90.0000   4 1

