# MOL2 file generated by ConQuest
# Please check atom types

@<TRIPOS>MOLECULE
CAXMUK
    39    40     1
SMALL
NO_CHARGES
****
Generated from CSD

@<TRIPOS>ATOM
      1 O1        -4.3750   -2.2495   -8.4745 O.2       1 RES1    0.0000
      2 O2        -4.6469   -0.0243  -10.2244 O.3       1 RES1    0.0000
      3 O3        -5.0831   -1.5377  -11.8240 O.2       1 RES1    0.0000
      4 O4         0.7810    2.2667  -13.6821 O.2       1 RES1    0.0000
      5 O5         0.3110    0.9675  -15.3333 O.2       1 RES1    0.0000
      6 N1         0.1000    1.3962  -14.2068 N.pl3     1 RES1    0.0000
      7 C1        -5.2890   -1.4569   -8.3547 C.2       1 RES1    0.0000
      8 C2        -6.1205   -1.1697   -7.2011 C.2       1 RES1    0.0000
      9 C3        -6.8077   -0.0415   -7.3865 C.2       1 RES1    0.0000
     10 C4        -6.5209    0.5995   -8.7340 C.3       1 RES1    0.0000
     11 C5        -5.7612   -0.5055   -9.4512 C.3       1 RES1    0.0000
     12 C6        -4.3939   -0.6551  -11.3820 C.2       1 RES1    0.0000
     13 C7        -3.1865   -0.1233  -12.0593 C.ar      1 RES1    0.0000
     14 C8        -2.8730   -0.6349  -13.3170 C.ar      1 RES1    0.0000
     15 C9        -1.7821   -0.1486  -14.0129 C.ar      1 RES1    0.0000
     16 C10       -1.0151    0.8331  -13.4382 C.ar      1 RES1    0.0000
     17 C11       -1.2806    1.3335  -12.1805 C.ar      1 RES1    0.0000
     18 C12       -2.3726    0.8583  -11.4975 C.ar      1 RES1    0.0000
     19 C13       -7.7241    0.6096   -6.4111 C.3       1 RES1    0.0000
     20 C14       -7.7526    1.1616   -9.4584 C.3       1 RES1    0.0000
     21 C15       -8.8116    0.1132   -9.7222 C.3       1 RES1    0.0000
     22 C16       -7.3524    1.8410  -10.7603 C.3       1 RES1    0.0000
     23 H1        -6.1694   -1.7106   -6.4211 H         1 RES1    0.0000
     24 H2        -5.9173    1.3183   -8.5900 H         1 RES1    0.0000
     25 H3        -6.3592   -0.9675  -10.0273 H         1 RES1    0.0000
     26 H4        -3.4114   -1.3194  -13.6963 H         1 RES1    0.0000
     27 H5        -1.5676   -0.4873  -14.8742 H         1 RES1    0.0000
     28 H6        -0.7187    1.9947  -11.7941 H         1 RES1    0.0000
     29 H7        -2.5758    1.2011  -10.6348 H         1 RES1    0.0000
     30 H8        -7.7928    0.0698   -5.6325 H         1 RES1    0.0000
     31 H9        -8.5838    0.7107   -6.8032 H         1 RES1    0.0000
     32 H10       -7.3816    1.4629   -6.1758 H         1 RES1    0.0000
     33 H11       -8.1380    1.8228   -8.8965 H         1 RES1    0.0000
     34 H12       -9.5696    0.5237  -10.1214 H         1 RES1    0.0000
     35 H13       -8.4629   -0.5480  -10.3082 H         1 RES1    0.0000
     36 H14       -9.0668   -0.2922   -8.9022 H         1 RES1    0.0000
     37 H15       -6.7001    2.5073  -10.5820 H         1 RES1    0.0000
     38 H16       -6.9926    1.1960  -11.3563 H         1 RES1    0.0000
     39 H17       -8.1171    2.2444  -11.1538 H         1 RES1    0.0000
@<TRIPOS>BOND
     1    1    7 2
     2    2   11 1
     3    3   12 2
     4    4    6 2
     5    5    6 2
     6    6   16 1
     7    7    8 1
     8    8    9 2
     9    9   10 1
    10   10   11 1
    11   11    7 1
    12   12    2 1
    13   13   12 1
    14   14   13 ar
    15   15   14 ar
    16   16   15 ar
    17   17   16 ar
    18   18   13 ar
    19   19    9 1
    20   20   10 1
    21   21   20 1
    22   22   20 1
    23   23    8 1
    24   24   10 1
    25   25   11 1
    26   26   14 1
    27   27   15 1
    28   28   17 1
    29   29   18 1
    30   30   19 1
    31   31   19 1
    32   32   19 1
    33   33   20 1
    34   34   21 1
    35   35   21 1
    36   36   21 1
    37   37   22 1
    38   38   22 1
    39   39   22 1
    40   17   18 ar
@<TRIPOS>SUBSTRUCTURE
     1 RES1 1

@<TRIPOS>CRYSIN
  10.4290   10.1100   14.2980  90.0000  94.2020  90.0000  14 1

