# MOL2 file generated by ConQuest
# Please check atom types

@<TRIPOS>MOLECULE
CAYHEP
    29    32     1
SMALL
NO_CHARGES
****
Generated from CSD

@<TRIPOS>ATOM
      1 O1         1.6388    3.5043    0.5336 O.3       1 RES1    0.0000
      2 N1         0.6070    4.4782    0.3820 N.2       1 RES1    0.0000
      3 C1         1.3697    1.4456    1.8414 C.3       1 RES1    0.0000
      4 C2         1.6221    2.9641    1.9105 C.3       1 RES1    0.0000
      5 C3         0.3037    3.5032    2.5036 C.3       1 RES1    0.0000
      6 C4        -0.5634    2.2017    2.6341 C.3       1 RES1    0.0000
      7 C5         0.0906    1.4105    3.7368 C.2       1 RES1    0.0000
      8 C6         1.2388    0.9638    3.2683 C.2       1 RES1    0.0000
      9 C7        -0.0961    1.4164    1.4115 C.3       1 RES1    0.0000
     10 C8         0.2197    4.4369    3.7099 C.3       1 RES1    0.0000
     11 C9        -1.0066    5.3142    3.4245 C.3       1 RES1    0.0000
     12 C10       -1.1461    5.4147    1.8925 C.3       1 RES1    0.0000
     13 C11       -0.1238    4.4350    1.4190 C.2       1 RES1    0.0000
     14 C12        2.9229    3.3716    2.5500 C.3       1 RES1    0.0000
     15 H1         1.9882    0.9369    1.2760 H         1 RES1    0.0000
     16 H2        -1.5314    2.3352    2.7155 H         1 RES1    0.0000
     17 H3        -0.2521    1.2649    4.5891 H         1 RES1    0.0000
     18 H4         1.8563    0.4462    3.7320 H         1 RES1    0.0000
     19 H5        -0.2567    1.8827    0.5762 H         1 RES1    0.0000
     20 H6        -0.4633    0.5187    1.3741 H         1 RES1    0.0000
     21 H7         1.0220    4.9768    3.7861 H         1 RES1    0.0000
     22 H8         0.1019    3.9331    4.5298 H         1 RES1    0.0000
     23 H9        -0.8856    6.1959    3.8096 H         1 RES1    0.0000
     24 H10       -1.8024    4.9158    3.8096 H         1 RES1    0.0000
     25 H11       -2.0369    5.1637    1.6019 H         1 RES1    0.0000
     26 H12       -0.9490    6.3103    1.5784 H         1 RES1    0.0000
     27 H13        3.6546    3.0255    2.0340 H         1 RES1    0.0000
     28 H14        2.9649    3.0204    3.4418 H         1 RES1    0.0000
     29 H15        2.9778    4.3297    2.5796 H         1 RES1    0.0000
@<TRIPOS>BOND
     1    1    2 1
     2    2   13 2
     3    3    4 1
     4    4    1 1
     5    5    4 1
     6    6    5 1
     7    7    6 1
     8    8    3 1
     9    9    3 1
    10   10    5 1
    11   11   10 1
    12   12   11 1
    13   13    5 1
    14   14    4 1
    15   15    3 1
    16   16    6 1
    17   17    7 1
    18   18    8 1
    19   19    9 1
    20   20    9 1
    21   21   10 1
    22   22   10 1
    23   23   11 1
    24   24   11 1
    25   25   12 1
    26   26   12 1
    27   27   14 1
    28   28   14 1
    29   29   14 1
    30    6    9 1
    31    7    8 2
    32   12   13 1
@<TRIPOS>SUBSTRUCTURE
     1 RES1 1

@<TRIPOS>CRYSIN
   7.6400   12.7121   10.2205  90.0000  91.6680  90.0000 231 1

