# MOL2 file generated by ConQuest
# Please check atom types

@<TRIPOS>MOLECULE
CAYMAR
    68    72     2
SMALL
NO_CHARGES
****
Generated from CSD

@<TRIPOS>ATOM
      1 O1         4.1730    0.0830    9.3428 O.2       1 RES1    0.0000
      2 O2         5.2098   -1.7854    9.1303 O.2       1 RES1    0.0000
      3 N1         5.4725    1.4692    7.1844 N.ar      1 RES1    0.0000
      4 N2         6.4215    3.5675    7.1014 N.pl3     1 RES1    0.0000
      5 H1         6.5943    4.2494    6.6039 H         1 RES1    0.0000
      6 N3         4.6473   -0.8041    8.6590 N.pl3     1 RES1    0.0000
      7 C1         4.9171    0.4239    6.5235 C.ar      1 RES1    0.0000
      8 C2         5.8523    2.5144    6.4693 C.ar      1 RES1    0.0000
      9 C3         5.6977    2.5828    5.0478 C.ar      1 RES1    0.0000
     10 H2         5.9742    3.3376    4.5792 H         1 RES1    0.0000
     11 C4         5.1498    1.5443    4.3977 C.ar      1 RES1    0.0000
     12 H3         5.0464    1.5780    3.4736 H         1 RES1    0.0000
     13 C5         4.7260    0.3936    5.1145 C.ar      1 RES1    0.0000
     14 C6         4.1537   -0.7222    4.5066 C.ar      1 RES1    0.0000
     15 H4         4.0345   -0.7222    3.5841 H         1 RES1    0.0000
     16 C7         3.7625   -1.8157    5.2244 C.ar      1 RES1    0.0000
     17 H5         3.3770   -2.5458    4.7970 H         1 RES1    0.0000
     18 C8         3.9491   -1.8213    6.6023 C.ar      1 RES1    0.0000
     19 H6         3.7010   -2.5649    7.1022 H         1 RES1    0.0000
     20 C9         4.4995   -0.7323    7.2159 C.ar      1 RES1    0.0000
     21 C10        6.5564    3.6651    8.5379 C.3       1 RES1    0.0000
     22 H7         7.3229    4.2213    8.7474 H         1 RES1    0.0000
     23 H8         6.7223    2.7813    8.9026 H         1 RES1    0.0000
     24 C11        5.3179    4.2527    9.2016 C.ar      1 RES1    0.0000
     25 C12        5.1240    5.6210    9.2738 C.ar      1 RES1    0.0000
     26 H9         5.7862    6.1940    8.9603 H         1 RES1    0.0000
     27 C13        3.9649    6.1481    9.8019 C.ar      1 RES1    0.0000
     28 H10        3.8462    7.0699    9.8398 H         1 RES1    0.0000
     29 C14        3.0024    5.3193   10.2623 C.ar      1 RES1    0.0000
     30 H11        2.2165    5.6748   10.6105 H         1 RES1    0.0000
     31 C15        3.1725    3.9611   10.2227 C.ar      1 RES1    0.0000
     32 H12        2.5092    3.4004   10.5527 H         1 RES1    0.0000
     33 C16        4.3319    3.4251    9.6899 C.ar      1 RES1    0.0000
     34 H13        4.4447    2.5021    9.6616 H         1 RES1    0.0000
     35 O3         0.9506    3.3286    2.2371 O.2       2 RES2    0.0000
     36 O4         2.1575    1.9839    1.1155 O.2       2 RES2    0.0000
     37 N4         1.8948    2.5581    4.8554 N.ar      2 RES2    0.0000
     38 N5         2.7239    3.7862    6.6133 N.pl3     2 RES2    0.0000
     39 H14        2.9776    3.8580    7.4290 H         2 RES2    0.0000
     40 N6         1.4510    2.2497    2.0785 N.pl3     2 RES2    0.0000
     41 C17        1.3554    1.3918    4.4052 C.ar      2 RES2    0.0000
     42 C18        2.1411    2.6456    6.1447 C.ar      2 RES2    0.0000
     43 C19        1.8378    1.6049    7.0758 C.ar      2 RES2    0.0000
     44 H15        2.0200    1.7137    7.9801 H         2 RES2    0.0000
     45 C20        1.2930    0.4778    6.6287 C.ar      2 RES2    0.0000
     46 H16        1.0857   -0.2030    7.2277 H         2 RES2    0.0000
     47 C21        1.0243    0.3050    5.2442 C.ar      2 RES2    0.0000
     48 C22        0.5063   -0.8714    4.6996 C.ar      2 RES2    0.0000
     49 H17        0.2689   -1.5656    5.2706 H         2 RES2    0.0000
     50 C23        0.3378   -1.0351    3.3630 C.ar      2 RES2    0.0000
     51 H18       -0.0042   -1.8314    3.0264 H         2 RES2    0.0000
     52 C24        0.6800   -0.0011    2.5033 C.ar      2 RES2    0.0000
     53 H19        0.5866   -0.1043    1.5841 H         2 RES2    0.0000
     54 C25        1.1602    1.1809    3.0231 C.ar      2 RES2    0.0000
     55 C26        2.8804    4.9817    5.8349 C.3       2 RES2    0.0000
     56 H20        3.1626    4.7428    4.9389 H         2 RES2    0.0000
     57 H21        3.5769    5.5301    6.2293 H         2 RES2    0.0000
     58 C27        1.6019    5.7858    5.7557 C.ar      2 RES2    0.0000
     59 C28        1.2120    6.5832    6.8102 C.ar      2 RES2    0.0000
     60 H22        1.7693    6.6763    7.5494 H         2 RES2    0.0000
     61 C29       -0.0006    7.2460    6.7788 C.ar      2 RES2    0.0000
     62 H23       -0.2516    7.7866    7.4917 H         2 RES2    0.0000
     63 C30       -0.8241    7.1103    5.7145 C.ar      2 RES2    0.0000
     64 H24       -1.6387    7.5589    5.7046 H         2 RES2    0.0000
     65 C31       -0.4723    6.3219    4.6518 C.ar      2 RES2    0.0000
     66 H25       -1.0438    6.2333    3.9241 H         2 RES2    0.0000
     67 C32        0.7471    5.6535    4.6716 C.ar      2 RES2    0.0000
     68 H26        0.9909    5.1152    3.9538 H         2 RES2    0.0000
@<TRIPOS>BOND
     1    1    6 2
     2    2    6 2
     3    3    7 ar
     4    4    5 1
     5    6   20 1
     6    7   13 ar
     7    8    3 ar
     8    9    8 ar
     9   10    9 1
    10   11    9 ar
    11   12   11 1
    12   13   11 ar
    13   14   13 ar
    14   15   14 1
    15   16   14 ar
    16   17   16 1
    17   18   16 ar
    18   19   18 1
    19   20    7 ar
    20   21    4 1
    21   22   21 1
    22   23   21 1
    23   24   21 1
    24   25   24 ar
    25   26   25 1
    26   27   25 ar
    27   28   27 1
    28   29   27 ar
    29   30   29 1
    30   31   29 ar
    31   32   31 1
    32   33   24 ar
    33   34   33 1
    34   35   40 2
    35   36   40 2
    36   37   41 ar
    37   38   39 1
    38   40   54 1
    39   41   47 ar
    40   42   37 ar
    41   43   42 ar
    42   44   43 1
    43   45   43 ar
    44   46   45 1
    45   47   45 ar
    46   48   47 ar
    47   49   48 1
    48   50   48 ar
    49   51   50 1
    50   52   50 ar
    51   53   52 1
    52   54   41 ar
    53   55   38 1
    54   56   55 1
    55   57   55 1
    56   58   55 1
    57   59   58 ar
    58   60   59 1
    59   61   59 ar
    60   62   61 1
    61   63   61 ar
    62   64   63 1
    63   65   63 ar
    64   66   65 1
    65   67   58 ar
    66   68   67 1
    67    4    8 1
    68   18   20 ar
    69   31   33 ar
    70   38   42 1
    71   52   54 ar
    72   65   67 ar
@<TRIPOS>SUBSTRUCTURE
     1 RES1 1
     2 RES2 35

@<TRIPOS>CRYSIN
   7.4390   11.2150   16.5410  90.0000  93.9600  90.0000   7 1

