# MOL2 file generated by ConQuest
# Please check atom types

@<TRIPOS>MOLECULE
CAYNIC
    46    48     1
SMALL
NO_CHARGES
****
Generated from CSD

@<TRIPOS>ATOM
      1 O1        -0.7352    5.5213    8.3161 O.3       1 RES1    0.0000
      2 O2        -4.4932    7.6440    8.0361 O.3       1 RES1    0.0000
      3 O3        -1.6560    5.9966    6.3310 O.3       1 RES1    0.0000
      4 O4        -0.9374    4.7181    6.2371 O.3       1 RES1    0.0000
      5 C1        -3.1663    5.6824    8.2264 C.3       1 RES1    0.0000
      6 C2        -1.7898    6.2599    7.7434 C.3       1 RES1    0.0000
      7 C3        -4.2871    6.4430    7.5101 C.2       1 RES1    0.0000
      8 O5        -4.9120    6.0108    6.5773 O.2       1 RES1    0.0000
      9 C4        -4.4866    5.2316   10.4027 C.ar      1 RES1    0.0000
     10 C5        -3.2685    5.8507    9.7636 C.3       1 RES1    0.0000
     11 H1        -2.4777    5.4600   10.1685 H         1 RES1    0.0000
     12 H2        -3.2626    6.7988    9.9686 H         1 RES1    0.0000
     13 C6        -3.2283    4.2087    7.8024 C.3       1 RES1    0.0000
     14 H3        -3.9452    3.7690    8.2869 H         1 RES1    0.0000
     15 H4        -3.4357    4.1592    6.8566 H         1 RES1    0.0000
     16 C7        -6.7010    4.1071   11.6278 C.ar      1 RES1    0.0000
     17 O6        -7.7092    2.5879   13.0471 O.2       1 RES1    0.0000
     18 C8        -5.7395    5.8161   10.3011 C.ar      1 RES1    0.0000
     19 H5        -5.8326    6.6069    9.8200 H         1 RES1    0.0000
     20 N1        -7.8792    3.5273   12.2892 N.pl3     1 RES1    0.0000
     21 C9        -1.5382    7.7266    7.9536 C.3       1 RES1    0.0000
     22 H6        -1.6817    7.9473    8.8763 H         1 RES1    0.0000
     23 H7        -2.1400    8.2361    7.4063 H         1 RES1    0.0000
     24 H8        -0.6319    7.9343    7.7115 H         1 RES1    0.0000
     25 C10       -6.8516    5.2539   10.8950 C.ar      1 RES1    0.0000
     26 H9        -7.6884    5.6468   10.7989 H         1 RES1    0.0000
     27 C11       -0.7501    4.2890    7.6018 C.3       1 RES1    0.0000
     28 C12       -1.9272    3.4673    8.0635 C.3       1 RES1    0.0000
     29 H10       -1.8431    3.2834    9.0119 H         1 RES1    0.0000
     30 H11       -1.9361    2.6193    7.5922 H         1 RES1    0.0000
     31 C13       -5.4742    3.5074   11.7777 C.ar      1 RES1    0.0000
     32 H12       -5.3846    2.7343   12.2888 H         1 RES1    0.0000
     33 O7        -8.9730    4.0151   12.0491 O.2       1 RES1    0.0000
     34 C14       -5.5284    8.4595    7.4285 C.3       1 RES1    0.0000
     35 H13       -6.3820    8.0003    7.4612 H         1 RES1    0.0000
     36 H14       -5.3115    8.6423    6.5011 H         1 RES1    0.0000
     37 C15       -4.3793    4.0706   11.1591 C.ar      1 RES1    0.0000
     38 H15       -3.5470    3.6637   11.2491 H         1 RES1    0.0000
     39 C16        0.5891    3.6083    7.6694 C.3       1 RES1    0.0000
     40 H16        1.2777    4.2321    7.4261 H         1 RES1    0.0000
     41 H17        0.6018    2.8651    7.0624 H         1 RES1    0.0000
     42 H18        0.7437    3.2947    8.5640 H         1 RES1    0.0000
     43 C17       -5.5961    9.7257    8.2003 C.3       1 RES1    0.0000
     44 H19       -5.8401    9.5347    9.1078 H         1 RES1    0.0000
     45 H20       -6.2537   10.3050    7.8074 H         1 RES1    0.0000
     46 H21       -4.7394   10.1582    8.1828 H         1 RES1    0.0000
@<TRIPOS>BOND
     1    1    6 1
     2    2    7 1
     3    3    4 1
     4    4   27 1
     5    5    6 1
     6    6    3 1
     7    7    5 1
     8    8    7 2
     9    9   10 1
    10   10    5 1
    11   11   10 1
    12   12   10 1
    13   13    5 1
    14   14   13 1
    15   15   13 1
    16   16   20 1
    17   17   20 2
    18   18    9 ar
    19   19   18 1
    20   20   33 2
    21   21    6 1
    22   22   21 1
    23   23   21 1
    24   24   21 1
    25   25   16 ar
    26   26   25 1
    27   27    1 1
    28   28   13 1
    29   29   28 1
    30   30   28 1
    31   31   16 ar
    32   32   31 1
    33   34    2 1
    34   35   34 1
    35   36   34 1
    36   37    9 ar
    37   38   37 1
    38   39   27 1
    39   40   39 1
    40   41   39 1
    41   42   39 1
    42   43   34 1
    43   44   43 1
    44   45   43 1
    45   46   43 1
    46   18   25 ar
    47   27   28 1
    48   31   37 ar
@<TRIPOS>SUBSTRUCTURE
     1 RES1 1

@<TRIPOS>CRYSIN
   8.1003    9.0380   12.5160 100.8700 106.9000  93.3600   2 1

