# MOL2 file generated by ConQuest
# Please check atom types

@<TRIPOS>MOLECULE
CAYVIK
    46    48     1
SMALL
NO_CHARGES
****
Generated from CSD

@<TRIPOS>ATOM
      1 O1        -1.8592    5.6760    6.1125 O.3       1 RES1    0.0000
      2 O2        -2.6947    6.7583    7.8950 O.3       1 RES1    0.0000
      3 O3         1.3125    5.2030    7.5009 O.3       1 RES1    0.0000
      4 O4        -3.3332    7.2635    6.6785 O.3       1 RES1    0.0000
      5 N1         4.0953   11.2163    9.8902 N.pl3     1 RES1    0.0000
      6 O5         1.3827    6.6294    5.7878 O.2       1 RES1    0.0000
      7 C1        -0.3017    6.9417    7.4977 C.3       1 RES1    0.0000
      8 C2         1.1052    8.3199    9.1682 C.ar      1 RES1    0.0000
      9 C3        -0.6486    8.2121    6.7212 C.3       1 RES1    0.0000
     10 H1        -1.2053    8.7804    7.2756 H         1 RES1    0.0000
     11 H2         0.1685    8.6968    6.5247 H         1 RES1    0.0000
     12 C4         2.4394    8.0422    8.9407 C.ar      1 RES1    0.0000
     13 H3         2.6858    7.2002    8.6309 H         1 RES1    0.0000
     14 C5         3.4085    8.9899    9.1650 C.ar      1 RES1    0.0000
     15 H4         4.3028    8.7963    8.9973 H         1 RES1    0.0000
     16 C6         0.8786    6.2390    6.8056 C.2       1 RES1    0.0000
     17 C7        -1.5426    5.9915    7.4433 C.3       1 RES1    0.0000
     18 C8         1.7300   10.5345    9.8870 C.ar      1 RES1    0.0000
     19 H5         1.4955   11.3716   10.2159 H         1 RES1    0.0000
     20 C9         0.0344    7.2805    8.9652 C.3       1 RES1    0.0000
     21 H6        -0.7764    7.5870    9.4010 H         1 RES1    0.0000
     22 H7         0.3119    6.4651    9.4106 H         1 RES1    0.0000
     23 O6         5.2512   10.8975    9.7310 O.2       1 RES1    0.0000
     24 C10        3.0454   10.2174    9.6360 C.ar      1 RES1    0.0000
     25 O7         3.7477   12.3430   10.2309 O.2       1 RES1    0.0000
     26 C11       -2.4330    6.8873    5.6105 C.3       1 RES1    0.0000
     27 C12        0.7732    9.5811    9.6413 C.ar      1 RES1    0.0000
     28 H8        -0.1207    9.7866    9.7951 H         1 RES1    0.0000
     29 C13       -1.3791    7.9221    5.4182 C.3       1 RES1    0.0000
     30 H9        -1.7861    8.7391    5.0882 H         1 RES1    0.0000
     31 H10       -0.7429    7.6151    4.7539 H         1 RES1    0.0000
     32 C14       -1.5181    4.7371    8.2838 C.3       1 RES1    0.0000
     33 H11       -2.3393    4.2547    8.1642 H         1 RES1    0.0000
     34 H12       -1.4165    4.9729    9.2087 H         1 RES1    0.0000
     35 H13       -0.7802    4.1843    8.0125 H         1 RES1    0.0000
     36 C15        2.4480    4.4774    6.9402 C.3       1 RES1    0.0000
     37 H14        2.3169    4.3290    5.9907 H         1 RES1    0.0000
     38 H15        3.2651    4.9865    7.0620 H         1 RES1    0.0000
     39 C16       -3.2873    6.5622    4.4057 C.3       1 RES1    0.0000
     40 H16       -2.7290    6.2342    3.6965 H         1 RES1    0.0000
     41 H17       -3.7440    7.3543    4.1141 H         1 RES1    0.0000
     42 H18       -3.9307    5.8898    4.6418 H         1 RES1    0.0000
     43 C17        2.5373    3.2022    7.6419 C.3       1 RES1    0.0000
     44 H19        2.7227    3.3611    8.5700 H         1 RES1    0.0000
     45 H20        3.2428    2.6749    7.2606 H         1 RES1    0.0000
     46 H21        1.7046    2.7327    7.5575 H         1 RES1    0.0000
@<TRIPOS>BOND
     1    1   17 1
     2    2    4 1
     3    3   16 1
     4    4   26 1
     5    5   23 2
     6    6   16 2
     7    7    9 1
     8    8   12 ar
     9    9   10 1
    10   11    9 1
    11   12   13 1
    12   14   12 ar
    13   15   14 1
    14   16    7 1
    15   17    2 1
    16   18   19 1
    17   20    7 1
    18   21   20 1
    19   22   20 1
    20   24    5 1
    21   25    5 2
    22   26    1 1
    23   27    8 ar
    24   28   27 1
    25   29    9 1
    26   30   29 1
    27   31   29 1
    28   32   17 1
    29   33   32 1
    30   34   32 1
    31   35   32 1
    32   36    3 1
    33   37   36 1
    34   38   36 1
    35   39   26 1
    36   40   39 1
    37   41   39 1
    38   42   39 1
    39   43   36 1
    40   44   43 1
    41   45   43 1
    42   46   43 1
    43    7   17 1
    44    8   20 1
    45   14   24 ar
    46   18   24 ar
    47   18   27 ar
    48   26   29 1
@<TRIPOS>SUBSTRUCTURE
     1 RES1 1

@<TRIPOS>CRYSIN
   8.0660   10.1500   11.5420  97.9000 109.1900  98.6200   2 1

