# MOL2 file generated by ConQuest
# Please check atom types

@<TRIPOS>MOLECULE
CAZBUC
    14    14     1
SMALL
NO_CHARGES
****
Generated from CSD

@<TRIPOS>ATOM
      1 H1         0.5422    3.9684    8.2928 H         1 RES1    0.0000
      2 H2        -0.9281    3.7595    5.2337 H         1 RES1    0.0000
      3 N1         1.0992    2.1679    6.6432 N.2       1 RES1    0.0000
      4 O1         2.4370   -0.0171    5.8066 O.2       1 RES1    0.0000
      5 O2        -1.2667    5.4213    6.5985 O.2       1 RES1    0.0000
      6 O3         1.4527    0.0514    3.8559 O.2       1 RES1    0.0000
      7 N2         0.0851    2.2471    4.6130 N.2       1 RES1    0.0000
      8 N3        -0.3701    3.2577    5.4114 N.pl3     1 RES1    0.0000
      9 N4        -0.7197    5.1278    7.6639 N.pl3     1 RES1    0.0000
     10 O4        -0.7923    5.7587    8.7058 O.2       1 RES1    0.0000
     11 N5         1.6771    0.4686    4.9919 N.pl3     1 RES1    0.0000
     12 C1         0.2532    3.1875    6.5969 C.2       1 RES1    0.0000
     13 N6         0.0551    3.9855    7.6842 N.pl3     1 RES1    0.0000
     14 C2         0.9557    1.6596    5.4114 C.2       1 RES1    0.0000
@<TRIPOS>BOND
     1    1   13 1
     2    2    8 1
     3    3   12 2
     4    4   11 2
     5    5    9 2
     6    6   11 2
     7    7    8 1
     8    8   12 1
     9    9   10 2
    10   11   14 1
    11   12   13 1
    12   13    9 1
    13   14    3 1
    14    7   14 2
@<TRIPOS>SUBSTRUCTURE
     1 RES1 1

@<TRIPOS>CRYSIN
   6.8663    5.3554    8.3117  90.0000 102.5130  90.0000   4 1

