# MOL2 file generated by ConQuest
# Please check atom types

@<TRIPOS>MOLECULE
CAZCAJ
    34    34     2
SMALL
NO_CHARGES
****
Generated from CSD

@<TRIPOS>ATOM
      1 O1        -0.1466    2.0664    5.5031 O.2       1 RES1    0.0000
      2 O2        -0.4337    4.0524    6.3439 O.2       1 RES1    0.0000
      3 O3         4.1837    3.0991    9.9419 O.2       1 RES1    0.0000
      4 O4         5.8105    4.5555    9.7669 O.2       1 RES1    0.0000
      5 N1         3.4984    2.3893    7.0421 N.3       1 RES1    0.0000
      6 N2         2.3514    1.9758    6.4554 N.2       1 RES1    0.0000
      7 N3         2.1232    4.0901    7.2748 N.2       1 RES1    0.0000
      8 N4         0.2327    3.0492    6.1198 N.pl3     1 RES1    0.0000
      9 N5         4.3802    4.3396    8.1189 N.pl3     1 RES1    0.0000
     10 N6         4.8131    3.9689    9.3574 N.pl3     1 RES1    0.0000
     11 C1         1.5958    3.0503    6.6337 C.2       1 RES1    0.0000
     12 C2         3.3397    3.6369    7.5243 C.2       1 RES1    0.0000
     13 C3         4.6491    1.5053    7.0781 C.3       1 RES1    0.0000
     14 H1         4.8101    1.1417    6.1821 H         1 RES1    0.0000
     15 H2         4.4776    0.7710    7.7036 H         1 RES1    0.0000
     16 H3         5.4372    2.0084    7.3727 H         1 RES1    0.0000
     17 O5         3.9351    3.5075    4.2680 O.2       2 RES2    0.0000
     18 O6         4.1807    1.4930    3.4563 O.2       2 RES2    0.0000
     19 O7         0.0975    2.3068   -0.3676 O.2       2 RES2    0.0000
     20 O8        -1.4674    0.7781   -0.4055 O.2       2 RES2    0.0000
     21 N7         0.2962    3.2427    2.7277 N.3       2 RES2    0.0000
     22 N8         1.4228    3.6114    3.3555 N.2       2 RES2    0.0000
     23 N9         1.6563    1.5470    2.4463 N.2       2 RES2    0.0000
     24 N10        3.5415    2.5207    3.6629 N.pl3     2 RES2    0.0000
     25 N11       -0.5924    1.3759    1.5271 N.pl3     2 RES2    0.0000
     26 N12       -0.6445    1.4920    0.1550 N.pl3     2 RES2    0.0000
     27 C4         2.1799    2.5543    3.1424 C.2       2 RES2    0.0000
     28 C5         0.4398    2.0155    2.1934 C.2       2 RES2    0.0000
     29 C6        -0.8636    4.1237    2.7117 C.3       2 RES2    0.0000
     30 H4        -0.5735    5.0423    2.5332 H         2 RES2    0.0000
     31 H5        -1.3140    4.0870    3.5815 H         2 RES2    0.0000
     32 H6        -1.4840    3.8345    2.0100 H         2 RES2    0.0000
     33 H7         4.8207    5.0210    7.7324 H         1 RES1    0.0000
     34 H8        -1.0049    0.7027    1.8119 H         2 RES2    0.0000
@<TRIPOS>BOND
     1    1    8 2
     2    2    8 2
     3    3   10 2
     4    4   10 2
     5    5    6 1
     6    6   11 2
     7    7   11 1
     8    8   11 1
     9    9   10 1
    10   12    5 1
    11   13    5 1
    12   14   13 1
    13   15   13 1
    14   16   13 1
    15   17   24 2
    16   18   24 2
    17   19   26 2
    18   20   26 2
    19   21   22 1
    20   22   27 2
    21   23   27 1
    22   24   27 1
    23   25   26 1
    24   28   21 1
    25   29   21 1
    26   30   29 1
    27   31   29 1
    28   32   29 1
    29   33    9 1
    30   34   25 1
    31    7   12 2
    32    9   12 1
    33   23   28 2
    34   25   28 1
@<TRIPOS>SUBSTRUCTURE
     1 RES1 1
     2 RES2 17

@<TRIPOS>CRYSIN
   7.5559   10.1845   19.2349  90.0000  90.0000  90.0000  19 1

