# MOL2 file generated by ConQuest
# Please check atom types

@<TRIPOS>MOLECULE
CAZVEH
   106   115     1
SMALL
NO_CHARGES
****
Generated from CSD

@<TRIPOS>ATOM
      1 O1        13.0722   12.4548    4.8350 O.2       1 RES1    0.0000
      2 O2        14.8377   16.4731   11.3258 O.2       1 RES1    0.0000
      3 O3        14.9406   14.9053   12.8533 O.2       1 RES1    0.0000
      4 N1        13.3867    9.2204    7.2675 N.2       1 RES1    0.0000
      5 N2        12.4360   10.0619    6.7002 N.pl3     1 RES1    0.0000
      6 N3        11.8942   13.5308    6.4790 N.am      1 RES1    0.0000
      7 N4        11.3556   13.2105    7.7766 N.2       1 RES1    0.0000
      8 N5        14.8367   15.2934   11.6857 N.pl3     1 RES1    0.0000
      9 C1        12.6861   11.4582    7.0393 C.3       1 RES1    0.0000
     10 C2        14.1964   11.4172    7.5111 C.3       1 RES1    0.0000
     11 C3        14.3609    9.9210    7.7366 C.2       1 RES1    0.0000
     12 C4        12.5723   12.4932    5.9196 C.2       1 RES1    0.0000
     13 C5        11.7284   12.0359    8.0645 C.2       1 RES1    0.0000
     14 C6        11.7553   14.8963    6.0444 C.ar      1 RES1    0.0000
     15 C7        11.9126   15.1986    4.7024 C.ar      1 RES1    0.0000
     16 C8        11.8332   16.5513    4.3138 C.ar      1 RES1    0.0000
     17 C9        11.5938   17.5120    5.2319 C.ar      1 RES1    0.0000
     18 C10       11.4136   17.1994    6.5290 C.ar      1 RES1    0.0000
     19 C11       11.5086   15.8801    6.9561 C.ar      1 RES1    0.0000
     20 C12       11.2135   11.3365    9.2593 C.3       1 RES1    0.0000
     21 C13       14.4883   12.3792    8.6355 C.ar      1 RES1    0.0000
     22 C14       14.7831   13.7204    8.3252 C.ar      1 RES1    0.0000
     23 C15       14.9008   14.6503    9.3265 C.ar      1 RES1    0.0000
     24 C16       14.7436   14.2622   10.6253 C.ar      1 RES1    0.0000
     25 C17       14.4944   12.9518   10.9739 C.ar      1 RES1    0.0000
     26 C18       14.3702   12.0167    9.9695 C.ar      1 RES1    0.0000
     27 C19       11.1662    9.5406    6.3787 C.ar      1 RES1    0.0000
     28 C20       10.9054    8.1969    6.5194 C.ar      1 RES1    0.0000
     29 C21        9.6729    7.6973    6.1484 C.ar      1 RES1    0.0000
     30 C22        8.6772    8.4940    5.6205 C.ar      1 RES1    0.0000
     31 C23        8.9522    9.8403    5.5102 C.ar      1 RES1    0.0000
     32 C24       10.1735   10.3540    5.8940 C.ar      1 RES1    0.0000
     33 C25        7.3569    7.9061    5.1775 C.3       1 RES1    0.0000
     34 H1        14.7558   11.6683    6.7466 H         1 RES1    0.0000
     35 H2        12.0674   14.5299    4.0754 H         1 RES1    0.0000
     36 H3        11.9476   16.7831    3.4213 H         1 RES1    0.0000
     37 H4        11.5536   18.4023    4.9647 H         1 RES1    0.0000
     38 H5        11.2220   17.8707    7.1432 H         1 RES1    0.0000
     39 H6        11.4081   15.6700    7.8566 H         1 RES1    0.0000
     40 H7        10.9459   11.9821    9.9167 H         1 RES1    0.0000
     41 H8        11.9041   10.7767    9.6240 H         1 RES1    0.0000
     42 H9        10.4590   10.7959    9.0130 H         1 RES1    0.0000
     43 H10       14.8977   13.9753    7.4391 H         1 RES1    0.0000
     44 H11       15.0871   15.5380    9.1218 H         1 RES1    0.0000
     45 H12       14.4114   12.7046   11.8664 H         1 RES1    0.0000
     46 H13       14.2037   11.1290   10.1902 H         1 RES1    0.0000
     47 H14       11.5559    7.6268    6.8617 H         1 RES1    0.0000
     48 H15        9.5061    6.7891    6.2603 H         1 RES1    0.0000
     49 H16        8.3028   10.4116    5.1695 H         1 RES1    0.0000
     50 H17       10.3270   11.2686    5.8237 H         1 RES1    0.0000
     51 H18        6.8988    8.5338    4.6129 H         1 RES1    0.0000
     52 H19        6.8164    7.7165    5.9484 H         1 RES1    0.0000
     53 H20        7.5133    7.0940    4.6912 H         1 RES1    0.0000
     54 O1F       16.8374    6.7596   11.1596 O.2       1 RES1    0.0000
     55 O2F       15.0719    2.7413    4.6688 O.2       1 RES1    0.0000
     56 O3F       14.9690    4.3091    3.1414 O.2       1 RES1    0.0000
     57 N1F       16.5229    9.9940    8.7272 N.2       1 RES1    0.0000
     58 N2F       17.4736    9.1525    9.2945 N.pl3     1 RES1    0.0000
     59 N3F       18.0153    5.6836    9.5157 N.am      1 RES1    0.0000
     60 N4F       18.5540    6.0039    8.2181 N.2       1 RES1    0.0000
     61 N5F       15.0729    3.9210    4.3090 N.pl3     1 RES1    0.0000
     62 C1F       17.2234    7.7562    8.9554 C.3       1 RES1    0.0000
     63 C2F       15.7132    7.7972    8.4836 C.3       1 RES1    0.0000
     64 C3F       15.5487    9.2934    8.2580 C.2       1 RES1    0.0000
     65 C4F       17.3373    6.7212   10.0750 C.2       1 RES1    0.0000
     66 C5F       18.1812    7.1785    7.9302 C.2       1 RES1    0.0000
     67 C6F       18.1543    4.3181    9.9503 C.ar      1 RES1    0.0000
     68 C7F       17.9970    4.0158   11.2922 C.ar      1 RES1    0.0000
     69 C8F       18.0764    2.6631   11.6809 C.ar      1 RES1    0.0000
     70 C9F       18.3158    1.7024   10.7628 C.ar      1 RES1    0.0000
     71 C10F      18.4960    2.0150    9.4656 C.ar      1 RES1    0.0000
     72 C11F      18.4010    3.3343    9.0386 C.ar      1 RES1    0.0000
     73 C12F      18.6960    7.8779    6.7354 C.3       1 RES1    0.0000
     74 C13F      15.4213    6.8352    7.3591 C.ar      1 RES1    0.0000
     75 C14F      15.1265    5.4940    7.6694 C.ar      1 RES1    0.0000
     76 C15F      15.0088    4.5641    6.6682 C.ar      1 RES1    0.0000
     77 C16F      15.1660    4.9522    5.3694 C.ar      1 RES1    0.0000
     78 C17F      15.4152    6.2626    5.0207 C.ar      1 RES1    0.0000
     79 C18F      15.5393    7.1977    6.0252 C.ar      1 RES1    0.0000
     80 C19F      18.7434    9.6738    9.6160 C.ar      1 RES1    0.0000
     81 C20F      19.0042   11.0175    9.4752 C.ar      1 RES1    0.0000
     82 C21F      20.2367   11.5171    9.8463 C.ar      1 RES1    0.0000
     83 C22F      21.2324   10.7204   10.3741 C.ar      1 RES1    0.0000
     84 C23F      20.9574    9.3741   10.4845 C.ar      1 RES1    0.0000
     85 C24F      19.7361    8.8604   10.1006 C.ar      1 RES1    0.0000
     86 C25F      22.5526   11.3083   10.8172 C.3       1 RES1    0.0000
     87 H1F       15.1537    7.5461    9.2481 H         1 RES1    0.0000
     88 H2F       17.8422    4.6845   11.9192 H         1 RES1    0.0000
     89 H3F       17.9620    2.4313   12.5734 H         1 RES1    0.0000
     90 H4F       18.3560    0.8121   11.0299 H         1 RES1    0.0000
     91 H5F       18.6876    1.3437    8.8514 H         1 RES1    0.0000
     92 H6F       18.5015    3.5444    8.1381 H         1 RES1    0.0000
     93 H7F       18.9637    7.2323    6.0780 H         1 RES1    0.0000
     94 H8F       18.0055    8.4377    6.3707 H         1 RES1    0.0000
     95 H9F       19.4506    8.4185    6.9817 H         1 RES1    0.0000
     96 H10F      15.0119    5.2391    8.5555 H         1 RES1    0.0000
     97 H11F      14.8224    3.6764    6.8729 H         1 RES1    0.0000
     98 H12F      15.4982    6.5098    4.1282 H         1 RES1    0.0000
     99 H13F      15.7059    8.0854    5.8045 H         1 RES1    0.0000
    100 H14F      18.3537   11.5876    9.1330 H         1 RES1    0.0000
    101 H15F      20.4035   12.4253    9.7344 H         1 RES1    0.0000
    102 H16F      21.6068    8.8028   10.8252 H         1 RES1    0.0000
    103 H17F      19.5826    7.9458   10.1710 H         1 RES1    0.0000
    104 H18F      23.0108   10.6806   11.3818 H         1 RES1    0.0000
    105 H19F      23.0932   11.4979   10.0463 H         1 RES1    0.0000
    106 H20F      22.3962   12.1204   11.3034 H         1 RES1    0.0000
@<TRIPOS>BOND
     1    1   12 2
     2    2    8 2
     3    3    8 2
     4    4    5 1
     5    5    9 1
     6    6    7 1
     7    7   13 2
     8    8   24 1
     9    9   10 1
    10   10   11 1
    11   11    4 2
    12   12    6 1
    13   13    9 1
    14   14    6 1
    15   15   14 ar
    16   16   15 ar
    17   17   16 ar
    18   18   17 ar
    19   19   14 ar
    20   20   13 1
    21   21   10 1
    22   22   21 ar
    23   23   22 ar
    24   24   23 ar
    25   25   24 ar
    26   26   21 ar
    27   27    5 1
    28   28   27 ar
    29   29   28 ar
    30   30   29 ar
    31   31   30 ar
    32   32   27 ar
    33   33   30 1
    34   34   10 1
    35   35   15 1
    36   36   16 1
    37   37   17 1
    38   38   18 1
    39   39   19 1
    40   40   20 1
    41   41   20 1
    42   42   20 1
    43   43   22 1
    44   44   23 1
    45   45   25 1
    46   46   26 1
    47   47   28 1
    48   48   29 1
    49   49   31 1
    50   50   32 1
    51   51   33 1
    52   52   33 1
    53   53   33 1
    54   54   65 2
    55   55   61 2
    56   56   61 2
    57   57   58 1
    58   58   62 1
    59   59   60 1
    60   60   66 2
    61   61   77 1
    62   62   63 1
    63   63   64 1
    64   64   11 1
    65   65   59 1
    66   66   62 1
    67   67   59 1
    68   68   67 ar
    69   69   68 ar
    70   70   69 ar
    71   71   70 ar
    72   72   67 ar
    73   73   66 1
    74   74   63 1
    75   75   74 ar
    76   76   75 ar
    77   77   76 ar
    78   78   77 ar
    79   79   74 ar
    80   80   58 1
    81   81   80 ar
    82   82   81 ar
    83   83   82 ar
    84   84   83 ar
    85   85   80 ar
    86   86   83 1
    87   87   63 1
    88   88   68 1
    89   89   69 1
    90   90   70 1
    91   91   71 1
    92   92   72 1
    93   93   73 1
    94   94   73 1
    95   95   73 1
    96   96   75 1
    97   97   76 1
    98   98   78 1
    99   99   79 1
   100  100   81 1
   101  101   82 1
   102  102   84 1
   103  103   85 1
   104  104   86 1
   105  105   86 1
   106  106   86 1
   107    9   12 1
   108   18   19 ar
   109   25   26 ar
   110   31   32 ar
   111   57   64 2
   112   62   65 1
   113   71   72 ar
   114   78   79 ar
   115   84   85 ar
@<TRIPOS>SUBSTRUCTURE
     1 RES1 1

@<TRIPOS>CRYSIN
  21.6160   12.8096   16.1911  90.0000  98.9340  90.0000  15 1

