# MOL2 file generated by ConQuest
# Please check atom types

@<TRIPOS>MOLECULE
CAZVII
    74    78     2
SMALL
USER_CHARGES
****
Generated from CSD

@<TRIPOS>ATOM
      1 N1        -0.8148    1.7899    6.5372 N.pl3     1 RES1    0.0000
      2 C1        -1.5931    2.0750    5.3384 C.3       1 RES1    0.0000
      3 N2        -0.8217    2.9058    4.4173 N.pl3     1 RES1    1.0000
      4 C2         0.4770    3.0245    4.4202 C.2       1 RES1    0.0000
      5 C3         1.2769    2.4358    5.5267 C.3       1 RES1    0.0000
      6 C4         0.5490    1.3483    6.2634 C.3       1 RES1    0.0000
      7 C5        -1.5018    1.2834    7.6573 C.ar      1 RES1    0.0000
      8 C6        -0.9612    0.3080    8.4784 C.ar      1 RES1    0.0000
      9 C7        -1.6042   -0.1113    9.6257 C.ar      1 RES1    0.0000
     10 C8        -2.8152    0.4180    9.9868 C.ar      1 RES1    0.0000
     11 C9        -3.3825    1.3502    9.1607 C.ar      1 RES1    0.0000
     12 C10       -2.7440    1.7985    8.0280 C.ar      1 RES1    0.0000
     13 C11       -2.1071    0.8613    4.5852 C.ar      1 RES1    0.0000
     14 C12       -3.4241    0.4607    4.7211 C.ar      1 RES1    0.0000
     15 C13       -3.9156   -0.6176    4.0164 C.ar      1 RES1    0.0000
     16 C14       -3.1027   -1.3271    3.1778 C.ar      1 RES1    0.0000
     17 C15       -1.7876   -0.9368    3.0351 C.ar      1 RES1    0.0000
     18 C16       -1.3002    0.1556    3.7175 C.ar      1 RES1    0.0000
     19 O1        -1.5581    3.4406    3.4205 O.2       1 RES1   -1.0000
     20 N3         1.0714    3.7231    3.4457 N.3       1 RES1    0.0000
     21 H1        -2.3628    2.5278    5.6616 H         1 RES1    0.0000
     22 H2         2.0756    2.0726    5.1627 H         1 RES1    0.0000
     23 H3         1.4936    3.1253    6.1431 H         1 RES1    0.0000
     24 H4         0.5277    0.5609    5.7315 H         1 RES1    0.0000
     25 H5         0.9947    1.1649    7.0826 H         1 RES1    0.0000
     26 H6        -0.1267   -0.0827    8.2455 H         1 RES1    0.0000
     27 H7        -1.2005   -0.7753   10.1721 H         1 RES1    0.0000
     28 H8        -3.2483    0.1443   10.7865 H         1 RES1    0.0000
     29 H9        -4.2406    1.6976    9.3762 H         1 RES1    0.0000
     30 H10       -3.1544    2.4664    7.4913 H         1 RES1    0.0000
     31 H11       -3.9992    0.9363    5.3083 H         1 RES1    0.0000
     32 H12       -4.8272   -0.8691    4.1145 H         1 RES1    0.0000
     33 H13       -3.4368   -2.0790    2.7022 H         1 RES1    0.0000
     34 H14       -1.2120   -1.4256    2.4586 H         1 RES1    0.0000
     35 H15       -0.3989    0.4251    3.5903 H         1 RES1    0.0000
     36 H16        0.4803    4.0147    2.6915 H         1 RES1    0.0000
     37 H17        2.1455    3.6984    3.4884 H         1 RES1    0.0000
     38 N4         4.8788    2.2953    0.2747 N.3       2 RES2    0.0000
     39 C17        3.9982    2.6035    1.3841 C.3       2 RES2    0.0000
     40 N5         4.7136    3.2477    2.5042 N.pl3     2 RES2    1.0000
     41 C18        6.0118    3.1740    2.6673 C.2       2 RES2    0.0000
     42 C19        6.8624    2.4176    1.6869 C.3       2 RES2    0.0000
     43 C20        6.0366    1.5337    0.7814 C.3       2 RES2    0.0000
     44 C21        5.2372    3.3503   -0.6173 C.ar      2 RES2    0.0000
     45 C22        5.9687    3.0096   -1.7617 C.ar      2 RES2    0.0000
     46 C23        6.3633    3.9680   -2.6537 C.ar      2 RES2    0.0000
     47 C24        6.0426    5.2857   -2.4644 C.ar      2 RES2    0.0000
     48 C25        5.2996    5.6292   -1.3628 C.ar      2 RES2    0.0000
     49 C26        4.9060    4.6724   -0.4358 C.ar      2 RES2    0.0000
     50 C27        3.2680    1.3441    1.8335 C.ar      2 RES2    0.0000
     51 C28        2.4462    0.6966    0.9231 C.ar      2 RES2    0.0000
     52 C29        1.7987   -0.4820    1.2793 C.ar      2 RES2    0.0000
     53 C30        1.9616   -1.0106    2.5362 C.ar      2 RES2    0.0000
     54 C31        2.7672   -0.3711    3.4409 C.ar      2 RES2    0.0000
     55 C32        3.4200    0.8017    3.0895 C.ar      2 RES2    0.0000
     56 O2         3.9367    3.9160    3.3914 O.2       2 RES2   -1.0000
     57 N6         6.6079    3.7849    3.6893 N.3       2 RES2    0.0000
     58 H18        3.3554    3.2349    1.0822 H         2 RES2    0.0000
     59 H19        7.3424    3.0402    1.1541 H         2 RES2    0.0000
     60 H20        7.4754    1.8744    2.1693 H         2 RES2    0.0000
     61 H21        6.5684    1.2427    0.0505 H         2 RES2    0.0000
     62 H22        5.7296    0.7781    1.2696 H         2 RES2    0.0000
     63 H23        6.1942    2.1012   -1.9209 H         2 RES2    0.0000
     64 H24        6.8682    3.7142   -3.4166 H         2 RES2    0.0000
     65 H25        6.3293    5.9486   -3.0827 H         2 RES2    0.0000
     66 H26        5.0511    6.5358   -1.2317 H         2 RES2    0.0000
     67 H27        4.4049    4.9336    0.3281 H         2 RES2    0.0000
     68 H28        2.3259    1.0573    0.0534 H         2 RES2    0.0000
     69 H29        1.2401   -0.9243    0.6503 H         2 RES2    0.0000
     70 H30        1.5188   -1.8148    2.7770 H         2 RES2    0.0000
     71 H31        2.8785   -0.7313    4.3125 H         2 RES2    0.0000
     72 H32        3.9796    1.2360    3.7223 H         2 RES2    0.0000
     73 H33        7.5652    3.5855    3.7728 H         2 RES2    0.0000
     74 H34        6.0078    4.1801    4.3037 H         2 RES2    0.0000
@<TRIPOS>BOND
     1    1    2 1
     2    2    3 1
     3    3    4 2
     4    4    5 1
     5    5    6 1
     6    6    1 1
     7    7    1 1
     8    8    7 ar
     9    9    8 ar
    10   10    9 ar
    11   11   10 ar
    12   12    7 ar
    13   13    2 1
    14   14   13 ar
    15   15   14 ar
    16   16   15 ar
    17   17   16 ar
    18   18   13 ar
    19   19    3 1
    20   20    4 1
    21   21    2 1
    22   22    5 1
    23   23    5 1
    24   24    6 1
    25   25    6 1
    26   26    8 1
    27   27    9 1
    28   28   10 1
    29   29   11 1
    30   30   12 1
    31   31   14 1
    32   32   15 1
    33   33   16 1
    34   34   17 1
    35   35   18 1
    36   36   20 1
    37   37   20 1
    38   38   39 1
    39   39   40 1
    40   40   41 2
    41   41   42 1
    42   42   43 1
    43   43   38 1
    44   44   38 1
    45   45   44 ar
    46   46   45 ar
    47   47   46 ar
    48   48   47 ar
    49   49   44 ar
    50   50   39 1
    51   51   50 ar
    52   52   51 ar
    53   53   52 ar
    54   54   53 ar
    55   55   50 ar
    56   56   40 1
    57   57   41 1
    58   58   39 1
    59   59   42 1
    60   60   42 1
    61   61   43 1
    62   62   43 1
    63   63   45 1
    64   64   46 1
    65   65   47 1
    66   66   48 1
    67   67   49 1
    68   68   51 1
    69   69   52 1
    70   70   53 1
    71   71   54 1
    72   72   55 1
    73   73   57 1
    74   74   57 1
    75   11   12 ar
    76   17   18 ar
    77   48   49 ar
    78   54   55 ar
@<TRIPOS>SUBSTRUCTURE
     1 RES1 1
     2 RES2 38

@<TRIPOS>CRYSIN
  10.9490   12.9250   10.6090 112.0800 100.1500  85.4900   2 1

