# MOL2 file generated by ConQuest
# Please check atom types

@<TRIPOS>MOLECULE
CBXLEU
    28    29     1
SMALL
NO_CHARGES
****
Generated from CSD

@<TRIPOS>ATOM
      1 C1        -0.3170    0.7981   11.2317 C.3       1 RES1    0.0000
      2 C2        -0.6280   -3.7792   14.9991 C.3       1 RES1    0.0000
      3 C3        -0.8286   -2.6812   16.0380 C.3       1 RES1    0.0000
      4 C4        -1.6503   -3.2565   17.2434 C.3       1 RES1    0.0000
      5 C5         0.4742   -2.0645   16.4465 C.3       1 RES1    0.0000
      6 C6        -1.2908    1.2767   10.2205 C.ar      1 RES1    0.0000
      7 C7        -1.3648    0.7220    9.0126 C.ar      1 RES1    0.0000
      8 C8        -2.2137    1.2184    8.0039 C.ar      1 RES1    0.0000
      9 C9        -3.0227    2.2760    8.3620 C.ar      1 RES1    0.0000
     10 C10       -2.9794    2.8579    9.5925 C.ar      1 RES1    0.0000
     11 C11       -2.0999    2.3531   10.5407 C.ar      1 RES1    0.0000
     12 C12       -0.0357   -1.1704   12.5631 C.2       1 RES1    0.0000
     13 C13        0.7606   -4.7155   10.4424 C.ar      1 RES1    0.0000
     14 C14        0.0391   -4.3517    9.3303 C.ar      1 RES1    0.0000
     15 C15        0.1683   -5.0700    8.1653 C.ar      1 RES1    0.0000
     16 C16        1.0198   -6.1342    8.1678 C.ar      1 RES1    0.0000
     17 C17        1.8279   -6.4942    9.2446 C.ar      1 RES1    0.0000
     18 C18        1.6758   -5.7788   10.4045 C.ar      1 RES1    0.0000
     19 C19        0.0323   -3.3082   13.7407 C.3       1 RES1    0.0000
     20 C20        0.1768   -4.4166   12.7144 C.2       1 RES1    0.0000
     21 N1         1.1710   -6.9295    6.8868 N.pl3     1 RES1    0.0000
     22 N2        -0.6798   -2.1886   13.1355 N.am      1 RES1    0.0000
     23 O1         1.8687   -7.8592    6.9019 O.2       1 RES1    0.0000
     24 O2         0.5498   -6.5516    5.9336 O.2       1 RES1    0.0000
     25 O3        -0.8872   -0.3930   11.8923 O.3       1 RES1    0.0000
     26 O4         1.1379   -0.9401   12.6665 O.2       1 RES1    0.0000
     27 O5        -0.0858   -5.5795   12.8909 O.2       1 RES1    0.0000
     28 O6         0.6433   -3.9061   11.5670 O.3       1 RES1    0.0000
@<TRIPOS>BOND
     1    1    6 1
     2    2    3 1
     3    3    4 1
     4    5    3 1
     5    6    7 ar
     6    7    8 ar
     7    8    9 ar
     8    9   10 ar
     9   10   11 ar
    10   11    6 ar
    11   12   22 1
    12   13   14 ar
    13   14   15 ar
    14   15   16 ar
    15   16   17 ar
    16   17   18 ar
    17   18   13 ar
    18   19    2 1
    19   20   19 1
    20   21   16 1
    21   22   19 1
    22   23   21 2
    23   24   21 2
    24   25    1 1
    25   26   12 2
    26   27   20 2
    27   28   13 1
    28   12   25 1
    29   20   28 1
@<TRIPOS>SUBSTRUCTURE
     1 RES1 1

@<TRIPOS>CRYSIN
   8.4980    9.4010   25.2170  90.0000  90.0000  90.0000  19 1

