# MOL2 file generated by ConQuest
# Please check atom types

@<TRIPOS>MOLECULE
CBYMBZ
    42    43     1
SMALL
NO_CHARGES
****
Generated from CSD

@<TRIPOS>ATOM
      1 C1        -0.5893   -2.9387   -2.6666 C.ar      1 RES1    0.0000
      2 C2        -1.1881   -0.6382   -5.0414 C.ar      1 RES1    0.0000
      3 C3        -2.0600    0.3209   -5.5369 C.ar      1 RES1    0.0000
      4 C4        -2.6003    1.3042   -4.7359 C.ar      1 RES1    0.0000
      5 C5        -2.2528    1.3150   -3.4091 C.ar      1 RES1    0.0000
      6 C6        -1.3911    0.3652   -2.8602 C.ar      1 RES1    0.0000
      7 C7        -0.6460   -1.6853   -5.9840 C.3       1 RES1    0.0000
      8 C8        -3.5501    2.3354   -5.3108 C.3       1 RES1    0.0000
      9 C9        -1.0781    0.4164   -1.3940 C.3       1 RES1    0.0000
     10 C10        0.0957   -1.6593   -3.1303 C.3       1 RES1    0.0000
     11 C11        0.0731   -4.0599   -2.1516 C.ar      1 RES1    0.0000
     12 C12       -0.5809   -5.2154   -1.7826 C.ar      1 RES1    0.0000
     13 C13       -1.9517   -5.2975   -1.8988 C.ar      1 RES1    0.0000
     14 C14       -2.6529   -4.2083   -2.3849 C.ar      1 RES1    0.0000
     15 C15       -1.9719   -3.0683   -2.7598 C.ar      1 RES1    0.0000
     16 C16       -2.6121   -6.5731   -1.4944 C.2       1 RES1    0.0000
     17 C17       -4.6685   -7.6235   -1.0292 C.3       1 RES1    0.0000
     18 C18       -0.8469   -0.6177   -3.6922 C.ar      1 RES1    0.0000
     19 H1        -2.2728    0.3005   -6.4787 H         1 RES1    0.0000
     20 H2        -2.5851    1.9757   -2.8096 H         1 RES1    0.0000
     21 H3         0.3012   -1.6358   -6.0165 H         1 RES1    0.0000
     22 H4        -1.0654   -1.5525   -6.8904 H         1 RES1    0.0000
     23 H5        -0.8902   -2.6202   -5.6770 H         1 RES1    0.0000
     24 H6        -4.3902    1.9925   -5.4531 H         1 RES1    0.0000
     25 H7        -3.5981    3.0736   -4.6369 H         1 RES1    0.0000
     26 H8        -3.2073    2.8099   -6.1393 H         1 RES1    0.0000
     27 H9        -1.2894   -0.4293   -0.9823 H         1 RES1    0.0000
     28 H10       -0.1178    0.5730   -1.2351 H         1 RES1    0.0000
     29 H11       -1.5499    1.0769   -0.9678 H         1 RES1    0.0000
     30 H12        0.6313   -1.2797   -2.4051 H         1 RES1    0.0000
     31 H13        0.8013   -1.8731   -3.8063 H         1 RES1    0.0000
     32 H14       -0.0670   -5.9395   -1.4662 H         1 RES1    0.0000
     33 H15       -3.6142   -4.2537   -2.5063 H         1 RES1    0.0000
     34 H16       -2.4892   -2.3563   -3.1274 H         1 RES1    0.0000
     35 H17       -4.3548   -7.8538   -0.1806 H         1 RES1    0.0000
     36 H18       -4.5951   -8.2690   -1.6973 H         1 RES1    0.0000
     37 H19       -5.5202   -7.3574   -0.9823 H         1 RES1    0.0000
     38 N1         1.5465   -4.0899   -1.9927 N.pl3     1 RES1    0.0000
     39 O1         2.1422   -3.0663   -1.9891 O.2       1 RES1    0.0000
     40 O2         2.0913   -5.1441   -1.8353 O.2       1 RES1    0.0000
     41 O3        -2.0281   -7.5750   -1.2141 O.2       1 RES1    0.0000
     42 O4        -3.9317   -6.4566   -1.4713 O.3       1 RES1    0.0000
@<TRIPOS>BOND
     1    1   10 1
     2    2    3 ar
     3    3    4 ar
     4    4    5 ar
     5    5    6 ar
     6    6    9 1
     7    7    2 1
     8    8    4 1
     9    9   27 1
    10   10   18 1
    11   11    1 ar
    12   12   11 ar
    13   13   12 ar
    14   14   13 ar
    15   15    1 ar
    16   16   13 1
    17   17   35 1
    18   18    2 ar
    19   19    3 1
    20   20    5 1
    21   21    7 1
    22   22    7 1
    23   23    7 1
    24   24    8 1
    25   25    8 1
    26   26    8 1
    27   28    9 1
    28   29    9 1
    29   30   10 1
    30   31   10 1
    31   32   12 1
    32   33   14 1
    33   34   15 1
    34   36   17 1
    35   37   17 1
    36   38   11 1
    37   39   38 2
    38   40   38 2
    39   41   16 2
    40   42   16 1
    41    6   18 ar
    42   14   15 ar
    43   17   42 1
@<TRIPOS>SUBSTRUCTURE
     1 RES1 1

@<TRIPOS>CRYSIN
   9.5340   11.8870    7.4310 101.6200  97.2500  88.6000   2 1

