# MOL2 file generated by ConQuest
# Please check atom types

@<TRIPOS>MOLECULE
CEBKID10
    52    56     1
SMALL
NO_CHARGES
****
Generated from CSD

@<TRIPOS>ATOM
      1 O1         2.7339    0.0715    3.7882 O.3       1 RES1    0.0000
      2 C1         6.7967   -3.8897    7.0797 C.ar      1 RES1    0.0000
      3 O2         1.3870    5.7204    5.9549 O.2       1 RES1    0.0000
      4 C2         6.4374   -5.1920    6.8021 C.ar      1 RES1    0.0000
      5 O3        -0.0807    4.5832    7.0417 O.2       1 RES1    0.0000
      6 C3         5.3545   -5.4329    5.9881 C.ar      1 RES1    0.0000
      7 N1         3.3065   -2.1579    4.1284 N.3       1 RES1    0.0000
      8 C4         4.6282   -4.3791    5.4731 C.ar      1 RES1    0.0000
      9 N2         0.8288    4.6701    6.2460 N.pl3     1 RES1    0.0000
     10 C5         2.8704   -2.1588    1.8811 C.ar      1 RES1    0.0000
     11 C6         3.8332   -2.4028    2.8414 C.ar      1 RES1    0.0000
     12 C7         5.1045   -2.8483    2.4886 C.ar      1 RES1    0.0000
     13 C8         5.3584   -3.0470    1.1359 C.ar      1 RES1    0.0000
     14 C9         4.4005   -2.8198    0.1859 C.ar      1 RES1    0.0000
     15 C10        3.1419   -2.3641    0.5450 C.ar      1 RES1    0.0000
     16 C11        1.6000   -1.7043    2.5574 C.3       1 RES1    0.0000
     17 C12        2.1686   -1.2839    3.9512 C.3       1 RES1    0.0000
     18 C13        1.2000   -1.3426    5.0808 C.2       1 RES1    0.0000
     19 C14        0.7180   -0.2559    5.6859 C.2       1 RES1    0.0000
     20 C15        1.1899    1.0638    5.3323 C.ar      1 RES1    0.0000
     21 C16        2.2140    1.1641    4.3886 C.ar      1 RES1    0.0000
     22 C17        2.7771    2.3858    4.0517 C.ar      1 RES1    0.0000
     23 C18        2.3049    3.5376    4.6528 C.ar      1 RES1    0.0000
     24 C19        1.2944    3.4405    5.5815 C.ar      1 RES1    0.0000
     25 C20        0.7292    2.2344    5.9319 C.ar      1 RES1    0.0000
     26 C21        0.8682   -0.5743    1.8471 C.3       1 RES1    0.0000
     27 C22        0.6682   -2.9267    2.7124 C.3       1 RES1    0.0000
     28 C23        4.1976   -1.8699    5.2524 C.3       1 RES1    0.0000
     29 C24        4.9687   -3.0683    5.7563 C.ar      1 RES1    0.0000
     30 C25        6.0733   -2.8343    6.5663 C.ar      1 RES1    0.0000
     31 H1         5.7873   -2.9847    3.1483 H         1 RES1    0.0000
     32 H2         6.2148   -3.2908    0.8227 H         1 RES1    0.0000
     33 H3         4.6007   -2.9434   -0.7436 H         1 RES1    0.0000
     34 H4         2.4667   -2.1641   -0.0712 H         1 RES1    0.0000
     35 H5         0.9524   -2.1889    5.3236 H         1 RES1    0.0000
     36 H6         0.0543   -0.3902    6.3678 H         1 RES1    0.0000
     37 H7         3.5322    2.4265    3.4568 H         1 RES1    0.0000
     38 H8         2.7265    4.3760    4.3427 H         1 RES1    0.0000
     39 H9         0.0305    2.2043    6.5181 H         1 RES1    0.0000
     40 H10        0.4909   -0.8261    0.9888 H         1 RES1    0.0000
     41 H11        0.1376   -0.2489    2.3731 H         1 RES1    0.0000
     42 H12        1.5220    0.0979    1.6216 H         1 RES1    0.0000
     43 H13        0.4148   -3.2951    1.8352 H         1 RES1    0.0000
     44 H14       -0.1664   -2.7162    3.2116 H         1 RES1    0.0000
     45 H15        1.1128   -3.7531    3.2828 H         1 RES1    0.0000
     46 H16        4.8423   -1.0990    5.0072 H         1 RES1    0.0000
     47 H17        3.6238   -1.4565    5.9881 H         1 RES1    0.0000
     48 H18        6.3347   -1.8921    6.7000 H         1 RES1    0.0000
     49 H19        7.5638   -3.6637    7.6967 H         1 RES1    0.0000
     50 H20        6.9797   -5.9880    7.2854 H         1 RES1    0.0000
     51 H21        5.0739   -6.3598    5.8062 H         1 RES1    0.0000
     52 H22        3.7984   -4.5445    4.9677 H         1 RES1    0.0000
@<TRIPOS>BOND
     1    1   17 1
     2    2    4 ar
     3    3    9 2
     4    4    6 ar
     5    5    9 2
     6    6    8 ar
     7    7   11 1
     8    8   29 ar
     9    9   24 1
    10   10   11 ar
    11   11   12 ar
    12   12   13 ar
    13   13   14 ar
    14   14   15 ar
    15   15   10 ar
    16   16   10 1
    17   17    7 1
    18   18   17 1
    19   19   18 2
    20   20   19 1
    21   21    1 1
    22   22   21 ar
    23   23   22 ar
    24   24   23 ar
    25   25   20 ar
    26   26   16 1
    27   27   16 1
    28   28    7 1
    29   29   28 1
    30   30    2 ar
    31   31   12 1
    32   32   13 1
    33   33   14 1
    34   34   15 1
    35   35   18 1
    36   36   19 1
    37   37   22 1
    38   38   23 1
    39   39   25 1
    40   40   26 1
    41   41   26 1
    42   42   26 1
    43   43   27 1
    44   44   27 1
    45   45   27 1
    46   46   28 1
    47   47   28 1
    48   48   30 1
    49   49    2 1
    50   50    4 1
    51   51    6 1
    52   52    8 1
    53   16   17 1
    54   20   21 ar
    55   24   25 ar
    56   29   30 ar
@<TRIPOS>SUBSTRUCTURE
     1 RES1 1

@<TRIPOS>CRYSIN
  13.5340   10.1730    8.3740 105.6600 104.9100  73.0200   2 1

