# MOL2 file generated by ConQuest
# Please check atom types

@<TRIPOS>MOLECULE
CEBLAW
    30    33     1
SMALL
NO_CHARGES
****
Generated from CSD

@<TRIPOS>ATOM
      1 N1         7.8539    9.2626    1.8750 N.3       1 RES1    0.0000
      2 C1         9.0333    9.8653    1.5341 C.2       1 RES1    0.0000
      3 C2        10.0432    9.5376    2.6351 C.3       1 RES1    0.0000
      4 C3         9.1871    8.8845    3.6954 C.2       1 RES1    0.0000
      5 C4         7.9556    8.7447    3.2217 C.2       1 RES1    0.0000
      6 N2         9.2174   10.5826    0.5091 N.2       1 RES1    0.0000
      7 O1        10.7104   10.7247    3.0482 O.3       1 RES1    0.0000
      8 C5        11.1161    8.5820    2.1222 C.ar      1 RES1    0.0000
      9 C6        10.8182    7.6448    1.1502 C.ar      1 RES1    0.0000
     10 C7        11.7966    6.7969    0.6534 C.ar      1 RES1    0.0000
     11 C8        13.0789    6.9229    1.1609 C.ar      1 RES1    0.0000
     12 C9        13.3889    7.8006    2.1552 C.ar      1 RES1    0.0000
     13 C10       12.4032    8.6508    2.6435 C.ar      1 RES1    0.0000
     14 N3        14.1179    6.0292    0.6112 N.pl3     1 RES1    0.0000
     15 O2        15.2694    6.2469    0.9789 O.2       1 RES1    0.0000
     16 O3        13.8345    5.1744   -0.1797 O.2       1 RES1    0.0000
     17 C11        9.6957    8.4629    5.0260 C.3       1 RES1    0.0000
     18 C12        6.7411    8.1856    3.8743 C.ar      1 RES1    0.0000
     19 C13        6.2228    8.8250    4.9623 C.ar      1 RES1    0.0000
     20 C14        5.0640    8.3483    5.5742 C.ar      1 RES1    0.0000
     21 C15        4.4525    7.2162    5.0506 C.ar      1 RES1    0.0000
     22 C16        4.9732    6.5586    3.9749 C.ar      1 RES1    0.0000
     23 C17        6.1320    7.0352    3.3553 C.ar      1 RES1    0.0000
     24 C18        6.6042    9.4529    1.1648 C.3       1 RES1    0.0000
     25 C19        5.6791   10.4543    1.8327 C.ar      1 RES1    0.0000
     26 C20        4.3713   10.1357    2.0738 C.ar      1 RES1    0.0000
     27 C21        3.5213   11.0776    2.6950 C.ar      1 RES1    0.0000
     28 C22        3.9984   12.3151    3.0628 C.ar      1 RES1    0.0000
     29 C23        5.3195   12.6221    2.8393 C.ar      1 RES1    0.0000
     30 C24        6.1332   11.6849    2.2381 C.ar      1 RES1    0.0000
@<TRIPOS>BOND
     1    1    2 1
     2    2    3 1
     3    3    4 1
     4    4    5 2
     5    5    1 1
     6    6    2 2
     7    7    3 1
     8    8    3 1
     9    9    8 ar
    10   10    9 ar
    11   11   10 ar
    12   12   11 ar
    13   13    8 ar
    14   14   11 1
    15   15   14 2
    16   16   14 2
    17   17    4 1
    18   18    5 1
    19   19   18 ar
    20   20   19 ar
    21   21   20 ar
    22   22   21 ar
    23   23   18 ar
    24   24    1 1
    25   25   24 1
    26   26   25 ar
    27   27   26 ar
    28   28   27 ar
    29   29   28 ar
    30   30   25 ar
    31   12   13 ar
    32   22   23 ar
    33   29   30 ar
@<TRIPOS>SUBSTRUCTURE
     1 RES1 1

@<TRIPOS>CRYSIN
  12.1090   22.9160    7.6780  90.0000  90.0000  90.0000  19 1

