# MOL2 file generated by ConQuest
# Please check atom types

@<TRIPOS>MOLECULE
CECCEU
    27    29     1
SMALL
NO_CHARGES
****
Generated from CSD

@<TRIPOS>ATOM
      1 O1         0.6101    5.9214   12.1684 O.2       1 RES1    0.0000
      2 O2         1.0506    5.8307   10.0617 O.2       1 RES1    0.0000
      3 N1         1.2830    6.2215   11.2005 N.pl3     1 RES1    0.0000
      4 N2         4.7527    6.9251   14.7471 N.pl3     1 RES1    0.0000
      5 H1         5.2215    6.8408   15.4278 H         1 RES1    0.0000
      6 C1         2.4015    7.1467   11.4052 C.ar      1 RES1    0.0000
      7 C2         2.3547    8.3120   10.6545 C.ar      1 RES1    0.0000
      8 H2         1.7211    8.4127    9.9816 H         1 RES1    0.0000
      9 C3         3.2466    9.3064   10.9167 C.ar      1 RES1    0.0000
     10 H3         3.2234   10.0980   10.4288 H         1 RES1    0.0000
     11 C4         4.1849    9.1329   11.9098 C.ar      1 RES1    0.0000
     12 H4         4.7689    9.8284   12.1100 H         1 RES1    0.0000
     13 C5         4.2801    7.9367   12.6236 C.ar      1 RES1    0.0000
     14 C6         5.3313    7.6970   13.6520 C.3       1 RES1    0.0000
     15 H5         6.0724    7.2099   13.2586 H         1 RES1    0.0000
     16 H6         5.6663    8.5440   13.9864 H         1 RES1    0.0000
     17 C7         4.2335    5.6895   14.3505 C.ar      1 RES1    0.0000
     18 C8         4.3435    4.5498   15.1379 C.ar      1 RES1    0.0000
     19 H7         4.7341    4.6066   15.9807 H         1 RES1    0.0000
     20 C9         3.8817    3.3445   14.6835 C.ar      1 RES1    0.0000
     21 H8         3.9629    2.5881   15.2184 H         1 RES1    0.0000
     22 C10        3.2961    3.2407   13.4351 C.ar      1 RES1    0.0000
     23 H9         3.0107    2.4139   13.1184 H         1 RES1    0.0000
     24 C11        3.1394    4.3753   12.6660 C.ar      1 RES1    0.0000
     25 H10        2.7407    4.3038   11.8295 H         1 RES1    0.0000
     26 C12        3.5635    5.6236   13.1117 C.ar      1 RES1    0.0000
     27 C13        3.3815    6.8885   12.3672 C.ar      1 RES1    0.0000
@<TRIPOS>BOND
     1    1    3 2
     2    2    3 2
     3    3    6 1
     4    4    5 1
     5    6    7 ar
     6    7    8 1
     7    9    7 ar
     8   10    9 1
     9   11    9 ar
    10   12   11 1
    11   13   11 ar
    12   14    4 1
    13   15   14 1
    14   16   14 1
    15   17    4 1
    16   18   17 ar
    17   19   18 1
    18   20   18 ar
    19   21   20 1
    20   22   20 ar
    21   23   22 1
    22   24   22 ar
    23   25   24 1
    24   26   17 ar
    25   27    6 ar
    26   13   14 1
    27   13   27 ar
    28   24   26 ar
    29   26   27 1
@<TRIPOS>SUBSTRUCTURE
     1 RES1 1

@<TRIPOS>CRYSIN
   7.7355   13.8253   20.3291  90.0000  90.0000  90.0000  61 1

