# MOL2 file generated by ConQuest
# Please check atom types

@<TRIPOS>MOLECULE
CECFIB
    29    30     1
SMALL
NO_CHARGES
****
Generated from CSD

@<TRIPOS>ATOM
      1 O1         3.8041    0.5165    5.5432 O.2       1 RES1    0.0000
      2 C1         2.7103    0.8898    5.0925 C.2       1 RES1    0.0000
      3 N1         1.5785    0.8892    5.7992 N.am      1 RES1    0.0000
      4 H1         0.8591    1.0721    5.3952 H         1 RES1    0.0000
      5 H2         1.5646    0.5026    6.5919 H         1 RES1    0.0000
      6 C2         2.6348    1.3400    3.6466 C.3       1 RES1    0.0000
      7 H3         2.8320    0.5615    3.0518 H         1 RES1    0.0000
      8 C3         3.5957    2.4808    3.3084 C.3       1 RES1    0.0000
      9 H4         4.2374    2.6442    4.0443 H         1 RES1    0.0000
     10 H5         4.0956    2.2966    2.4742 H         1 RES1    0.0000
     11 C4         2.6335    3.6535    3.1360 C.3       1 RES1    0.0000
     12 H6         2.4764    4.1040    4.0028 H         1 RES1    0.0000
     13 H7         3.0013    4.3125    2.4963 H         1 RES1    0.0000
     14 N2         1.3862    3.0757    2.6213 N.3       1 RES1    0.0000
     15 O2         1.2949    1.8258    3.3619 O.3       1 RES1    0.0000
     16 C5         1.4798    2.6928    1.1978 C.3       1 RES1    0.0000
     17 H8         0.7211    2.1014    0.9663 H         1 RES1    0.0000
     18 H9         2.3184    2.1897    1.0472 H         1 RES1    0.0000
     19 C6         1.4574    3.9083    0.3051 C.ar      1 RES1    0.0000
     20 C7         2.4695    4.1093   -0.6302 C.ar      1 RES1    0.0000
     21 H10        3.2041    3.5078   -0.6640 H         1 RES1    0.0000
     22 C8         2.4171    5.1836   -1.5173 C.ar      1 RES1    0.0000
     23 H11        3.1089    5.3044   -2.1574 H         1 RES1    0.0000
     24 C9         1.3591    6.0760   -1.4681 C.ar      1 RES1    0.0000
     25 H12        1.3189    6.8043   -2.0765 H         1 RES1    0.0000
     26 C10        0.3556    5.8972   -0.5206 C.ar      1 RES1    0.0000
     27 H13       -0.3658    6.5129   -0.4752 H         1 RES1    0.0000
     28 C11        0.4020    4.8226    0.3586 C.ar      1 RES1    0.0000
     29 H14       -0.2883    4.7082    1.0009 H         1 RES1    0.0000
@<TRIPOS>BOND
     1    1    2 2
     2    2    3 1
     3    3    4 1
     4    5    3 1
     5    6    2 1
     6    7    6 1
     7    8    6 1
     8    9    8 1
     9   10    8 1
    10   11    8 1
    11   12   11 1
    12   13   11 1
    13   14   11 1
    14   15    6 1
    15   16   14 1
    16   17   16 1
    17   18   16 1
    18   19   16 1
    19   20   19 ar
    20   21   20 1
    21   22   20 ar
    22   23   22 1
    23   24   22 ar
    24   25   24 1
    25   26   24 ar
    26   27   26 1
    27   28   19 ar
    28   29   28 1
    29   14   15 1
    30   26   28 ar
@<TRIPOS>SUBSTRUCTURE
     1 RES1 1

@<TRIPOS>CRYSIN
   5.4128   26.7360    7.4182  90.0000 111.1830  90.0000 231 1

