# MOL2 file generated by ConQuest
# Please check atom types

@<TRIPOS>MOLECULE
CECPOR
    42    46     1
SMALL
NO_CHARGES
****
Generated from CSD

@<TRIPOS>ATOM
      1 O1         3.1944    4.6167    5.3161 O.3       1 RES1    0.0000
      2 O2         6.6828    4.3784    8.3505 O.2       1 RES1    0.0000
      3 N1         4.4090    4.7983    4.6091 N.2       1 RES1    0.0000
      4 N2         4.6237    5.3741    8.3756 N.am      1 RES1    0.0000
      5 C1        -0.0564    5.1883   10.1957 C.ar      1 RES1    0.0000
      6 H1        -0.8015    5.1231   10.7487 H         1 RES1    0.0000
      7 C2        -0.1951    5.0466    8.8341 C.ar      1 RES1    0.0000
      8 H2        -1.0335    4.8959    8.4601 H         1 RES1    0.0000
      9 C3         0.9226    5.1299    8.0296 C.ar      1 RES1    0.0000
     10 H3         0.8303    5.0345    7.1097 H         1 RES1    0.0000
     11 C4         2.1841    5.3531    8.5701 C.ar      1 RES1    0.0000
     12 C5         3.3760    5.4080    7.6457 C.3       1 RES1    0.0000
     13 H4         3.3356    6.2403    7.1307 H         1 RES1    0.0000
     14 C6         3.5082    4.2282    6.6686 C.3       1 RES1    0.0000
     15 H5         2.9531    3.4727    6.9541 H         1 RES1    0.0000
     16 C7         4.9783    3.8526    6.6678 C.3       1 RES1    0.0000
     17 H6         5.0988    2.8812    6.7185 H         1 RES1    0.0000
     18 C8         5.3936    4.3862    5.3203 C.2       1 RES1    0.0000
     19 C9         6.7512    4.3752    4.7593 C.ar      1 RES1    0.0000
     20 C10        7.0198    4.9828    3.5357 C.ar      1 RES1    0.0000
     21 H7         6.3404    5.4367    3.0921 H         1 RES1    0.0000
     22 C11        8.2706    4.9224    2.9739 C.ar      1 RES1    0.0000
     23 H8         8.4258    5.3435    2.1582 H         1 RES1    0.0000
     24 C12        9.3081    4.2463    3.5967 C.ar      1 RES1    0.0000
     25 C13       10.6655    4.1445    2.9507 C.3       1 RES1    0.0000
     26 H9        10.6711    3.4114    2.3306 H         1 RES1    0.0000
     27 H10       11.3314    3.9969    3.6264 H         1 RES1    0.0000
     28 H11       10.8590    4.9603    2.4842 H         1 RES1    0.0000
     29 C14        1.1884    5.4261   10.7390 C.ar      1 RES1    0.0000
     30 H12        1.2701    5.5261   11.6595 H         1 RES1    0.0000
     31 C15        2.3271    5.5214    9.9422 C.ar      1 RES1    0.0000
     32 C16        7.7928    3.7267    5.4021 C.ar      1 RES1    0.0000
     33 H13        7.6501    3.3334    6.2326 H         1 RES1    0.0000
     34 C17        9.0440    3.6598    4.8169 C.ar      1 RES1    0.0000
     35 H14        9.7262    3.2069    5.2587 H         1 RES1    0.0000
     36 C18        5.5679    4.5501    7.8886 C.2       1 RES1    0.0000
     37 C19        3.6748    5.7684   10.5735 C.3       1 RES1    0.0000
     38 H15        3.9613    4.9603   11.0285 H         1 RES1    0.0000
     39 H16        3.5854    6.4660   11.2409 H         1 RES1    0.0000
     40 C20        4.7427    6.1759    9.5773 C.3       1 RES1    0.0000
     41 H17        4.6425    7.1144    9.3562 H         1 RES1    0.0000
     42 H18        5.6215    6.0494    9.9683 H         1 RES1    0.0000
@<TRIPOS>BOND
     1    1    3 1
     2    2   36 2
     3    3   18 2
     4    4   12 1
     5    5    6 1
     6    7    5 ar
     7    8    7 1
     8    9    7 ar
     9   10    9 1
    10   11    9 ar
    11   12   11 1
    12   13   12 1
    13   14    1 1
    14   15   14 1
    15   16   14 1
    16   17   16 1
    17   18   16 1
    18   19   18 1
    19   20   19 ar
    20   21   20 1
    21   22   20 ar
    22   23   22 1
    23   24   22 ar
    24   25   24 1
    25   26   25 1
    26   27   25 1
    27   28   25 1
    28   29    5 ar
    29   30   29 1
    30   31   11 ar
    31   32   19 ar
    32   33   32 1
    33   34   24 ar
    34   35   34 1
    35   36    4 1
    36   37   31 1
    37   38   37 1
    38   39   37 1
    39   40    4 1
    40   41   40 1
    41   42   40 1
    42   12   14 1
    43   16   36 1
    44   29   31 ar
    45   32   34 ar
    46   37   40 1
@<TRIPOS>SUBSTRUCTURE
     1 RES1 1

@<TRIPOS>CRYSIN
  10.1412    7.5741   21.5512  90.0000 102.5700  90.0000  14 1

