# MOL2 file generated by ConQuest
# Please check atom types

@<TRIPOS>MOLECULE
CECPEH
    44    46     1
SMALL
NO_CHARGES
****
Generated from CSD

@<TRIPOS>ATOM
      1 C1         3.2696   -2.8307    3.9210 C.2       1 RES1    0.0000
      2 C2         5.0560   -2.0717    4.9040 C.2       1 RES1    0.0000
      3 C3         3.1289   -1.4741    4.1391 C.2       1 RES1    0.0000
      4 C4         5.1353   -4.5250    4.4456 C.3       1 RES1    0.0000
      5 H1         6.0499   -4.4375    4.7220 H         1 RES1    0.0000
      6 H2         5.1012   -4.9241    3.5733 H         1 RES1    0.0000
      7 H3         4.6641   -5.0817    5.0704 H         1 RES1    0.0000
      8 C5         6.3797   -2.0082    5.5787 C.3       1 RES1    0.0000
      9 H4         6.5951   -1.0942    5.7751 H         1 RES1    0.0000
     10 H5         7.0507   -2.3806    5.0023 H         1 RES1    0.0000
     11 H6         6.3463   -2.5115    6.3960 H         1 RES1    0.0000
     12 C6         2.0544   -0.5075    3.8625 C.ar      1 RES1    0.0000
     13 C7         1.2583   -0.5130    2.7183 C.ar      1 RES1    0.0000
     14 H7         1.3763   -1.1832    2.0840 H         1 RES1    0.0000
     15 C8         0.2962    0.4605    2.5092 C.ar      1 RES1    0.0000
     16 H8        -0.2161    0.4385    1.7329 H         1 RES1    0.0000
     17 C9         0.0838    1.4729    3.4443 C.ar      1 RES1    0.0000
     18 C10        0.9154    1.4985    4.5693 C.ar      1 RES1    0.0000
     19 C11        1.8836    0.5340    4.7676 C.ar      1 RES1    0.0000
     20 H9         2.4299    0.5816    5.5184 H         1 RES1    0.0000
     21 C12       -1.6772    2.4333    2.1762 C.ar      1 RES1    0.0000
     22 C13       -2.7916    1.6460    2.1652 C.ar      1 RES1    0.0000
     23 H10       -2.9520    1.0499    2.8607 H         1 RES1    0.0000
     24 C14       -3.6804    1.7439    1.1081 C.ar      1 RES1    0.0000
     25 H11       -4.4348    1.2005    1.0859 H         1 RES1    0.0000
     26 C15       -3.4514    2.6420    0.0878 C.ar      1 RES1    0.0000
     27 C16       -2.3309    3.4400    0.1340 C.ar      1 RES1    0.0000
     28 H12       -2.1764    4.0551   -0.5462 H         1 RES1    0.0000
     29 C17       -1.4390    3.3373    1.1709 C.ar      1 RES1    0.0000
     30 H13       -0.6812    3.8752    1.1933 H         1 RES1    0.0000
     31 C18       -5.4638    2.1046   -1.0636 C.3       1 RES1    0.0000
     32 H14       -5.2578    1.1736   -1.1723 H         1 RES1    0.0000
     33 H15       -5.9805    2.4083   -1.8128 H         1 RES1    0.0000
     34 H16       -5.9701    2.2273   -0.2554 H         1 RES1    0.0000
     35 N1         2.3331   -3.7641    3.4052 N.pl3     1 RES1    0.0000
     36 N2         4.5072   -3.1987    4.4028 N.3       1 RES1    0.0000
     37 N3         4.2615   -1.0223    4.7558 N.2       1 RES1    0.0000
     38 N4         0.8032    2.5450    5.5941 N.pl3     1 RES1    0.0000
     39 O1         1.2059   -3.3652    3.1320 O.2       1 RES1    0.0000
     40 O2         2.6763   -4.9241    3.2294 O.2       1 RES1    0.0000
     41 O3         1.7671    2.7409    6.3113 O.2       1 RES1    0.0000
     42 O4        -0.2437    3.1563    5.7032 O.2       1 RES1    0.0000
     43 O5        -0.8443    2.4456    3.3000 O.3       1 RES1    0.0000
     44 O6        -4.2786    2.8386   -0.9858 O.3       1 RES1    0.0000
@<TRIPOS>BOND
     1    1    3 2
     2    2    8 1
     3    3   12 1
     4    4    5 1
     5    6    4 1
     6    7    4 1
     7    8    9 1
     8   10    8 1
     9   11    8 1
    10   12   13 ar
    11   13   14 1
    12   15   13 ar
    13   16   15 1
    14   17   15 ar
    15   18   17 ar
    16   19   12 ar
    17   20   19 1
    18   21   22 ar
    19   22   23 1
    20   24   22 ar
    21   25   24 1
    22   26   24 ar
    23   27   26 ar
    24   28   27 1
    25   29   21 ar
    26   30   29 1
    27   31   32 1
    28   33   31 1
    29   34   31 1
    30   35    1 1
    31   36    1 1
    32   37    2 2
    33   38   18 1
    34   39   35 2
    35   40   35 2
    36   41   38 2
    37   42   38 2
    38   43   17 1
    39   44   26 1
    40    2   36 1
    41    3   37 1
    42    4   36 1
    43   18   19 ar
    44   21   43 1
    45   27   29 ar
    46   31   44 1
@<TRIPOS>SUBSTRUCTURE
     1 RES1 1

@<TRIPOS>CRYSIN
   7.3800    9.2849   13.6130  90.6720 105.6790  94.5990   2 1

