# MOL2 file generated by ConQuest
# Please check atom types

@<TRIPOS>MOLECULE
CEDGAV
    40    21     2
SMALL
NO_CHARGES
****
Generated from CSD

@<TRIPOS>ATOM
      1 O1         2.1986    7.8367   10.7057 O.2       1 RES1    0.0000
      2 O2         1.3378    7.7361    8.5669 O.3       1 RES1    0.0000
      3 N1         2.0594    7.1498    9.6871 N.pl3     1 RES1    0.0000
      4 N2         1.2966    6.8241    7.5306 N.2       1 RES1    0.0000
      5 C1         2.4300    5.9336    9.2938 C.2       1 RES1    0.0000
      6 C2         1.9586    5.7540    7.9695 C.2       1 RES1    0.0000
      7 C3         2.2020    4.5279    7.3095 C.2       1 RES1    0.0000
      8 H1         1.8909    4.3854    6.4231 H         1 RES1    0.0000
      9 C4         2.8939    3.5497    7.9692 C.2       1 RES1    0.0000
     10 C5         3.3615    3.7538    9.3438 C.2       1 RES1    0.0000
     11 C6         3.1347    4.9282    9.9962 C.2       1 RES1    0.0000
     12 H2         3.4369    5.0664   10.8860 H         1 RES1    0.0000
     13 C7         3.1676    2.2438    7.2851 C.3       1 RES1    0.0000
     14 H3         2.8004    2.2681    6.3773 H         1 RES1    0.0000
     15 H4         2.7451    1.5163    7.7890 H         1 RES1    0.0000
     16 H5         4.1347    2.0929    7.2428 H         1 RES1    0.0000
     17 C8         4.0848    2.6187   10.0369 C.3       1 RES1    0.0000
     18 H6         4.3317    2.8946   10.9435 H         1 RES1    0.0000
     19 H7         4.8936    2.3906    9.5330 H         1 RES1    0.0000
     20 H8         3.4965    1.8361   10.0827 H         1 RES1    0.0000
     21 C9         2.1048    5.8050    8.4020 Du        2 SUP2    0.0000
     22 C10        2.6028    5.8488    9.7280 Du        2 SUP2    0.0000
     23 C11        3.2968    4.7305   10.2424 Du        2 SUP2    0.0000
     24 C12        3.4000    3.6076    9.4672 Du        2 SUP2    0.0000
     25 C13        2.9327    3.6069    8.0779 Du        2 SUP2    0.0000
     26 C14        2.2949    4.6908    7.5517 Du        2 SUP2    0.0000
     27 C15        3.8831    2.3267   10.0803 Du        2 SUP2    0.0000
     28 C16        3.1027    2.3450    7.2581 Du        2 SUP2    0.0000
     29 H9         3.6833    4.7569   11.1091 Du        2 SUP2    0.0000
     30 H10        1.9902    4.6977    6.6521 Du        2 SUP2    0.0000
     31 H11        4.1768    2.4945   10.9999 Du        2 SUP2    0.0000
     32 H12        4.6334    1.9759    9.5565 Du        2 SUP2    0.0000
     33 H13        3.1539    1.6715   10.0850 Du        2 SUP2    0.0000
     34 H14        2.5814    2.4204    6.4313 Du        2 SUP2    0.0000
     35 H15        2.7835    1.5757    7.7760 Du        2 SUP2    0.0000
     36 H16        4.0485    2.2230    7.0397 Du        2 SUP2    0.0000
     37 N3         1.5071    6.9710    8.1613 Du        2 SUP2    0.0000
     38 N4         2.3966    7.0394   10.2929 Du        2 SUP2    0.0000
     39 O3         0.8795    7.4722    7.2229 Du        2 SUP2    0.0000
     40 O4         1.6758    7.7683    9.3674 Du        2 SUP2    0.0000
@<TRIPOS>BOND
     1    1    3 1
     2    2    3 1
     3    3    5 2
     4    4    2 1
     5    5    6 1
     6    6    4 2
     7    7    6 1
     8    8    7 1
     9    9    7 2
    10   10    9 1
    11   11    5 1
    12   12   11 1
    13   13    9 1
    14   14   13 1
    15   15   13 1
    16   16   13 1
    17   17   10 1
    18   18   17 1
    19   19   17 1
    20   20   17 1
    21   10   11 2
@<TRIPOS>SUBSTRUCTURE
     1 RES1 1
     2 SUP2 21

@<TRIPOS>CRYSIN
   3.9506    8.2640   12.0450  78.8420  83.1800  86.9900   2 1

