# MOL2 file generated by ConQuest
# Please check atom types

@<TRIPOS>MOLECULE
CEDGAV01
    80    42     3
SMALL
NO_CHARGES
****
Generated from CSD

@<TRIPOS>ATOM
      1 O1         6.3817    7.2080    0.0668 O.2       1 RES1    0.0000
      2 O2         5.1719    7.3275    2.0312 O.3       1 RES1    0.0000
      3 N1         5.7451    6.5819    0.9295 N.pl3     1 RES1    0.0000
      4 N2         4.4808    6.4618    2.8545 N.2       1 RES1    0.0000
      5 C1         5.3893    5.3067    1.1196 C.2       1 RES1    0.0000
      6 C2         4.6290    5.2509    2.2949 C.2       1 RES1    0.0000
      7 C3         4.1572    4.0011    2.7655 C.2       1 RES1    0.0000
      8 H1         3.6213    3.9470    3.5478 H         1 RES1    0.0000
      9 C4         4.4913    2.8686    2.0642 C.2       1 RES1    0.0000
     10 C5         5.3011    2.9576    0.8507 C.2       1 RES1    0.0000
     11 C6         5.7155    4.1568    0.3709 C.2       1 RES1    0.0000
     12 H2         6.2074    4.2197   -0.4393 H         1 RES1    0.0000
     13 C7         3.9365    1.5327    2.4734 C.3       1 RES1    0.0000
     14 H3         3.3747    1.6429    3.2696 H         1 RES1    0.0000
     15 H4         4.6749    0.9216    2.6774 H         1 RES1    0.0000
     16 H5         3.3987    1.1641    1.7420 H         1 RES1    0.0000
     17 C8         5.5667    1.7099    0.0545 C.3       1 RES1    0.0000
     18 H6         6.1646    1.9221   -0.6954 H         1 RES1    0.0000
     19 H7         4.7242    1.3538   -0.2909 H         1 RES1    0.0000
     20 H8         5.9957    1.0400    0.6294 H         1 RES1    0.0000
     21 O3         0.8844    3.4138    8.7672 O.2       2 RES2    0.0000
     22 O4         2.1054    3.3123    6.8084 O.3       2 RES2    0.0000
     23 N3         1.4875    4.0521    7.8894 N.pl3     2 RES2    0.0000
     24 N4         2.7273    4.1974    5.9512 N.2       2 RES2    0.0000
     25 C9         1.7563    5.3423    7.6589 C.2       2 RES2    0.0000
     26 C10        2.5072    5.4117    6.4790 C.2       2 RES2    0.0000
     27 C11        2.9154    6.6739    5.9818 C.2       2 RES2    0.0000
     28 H9         3.4486    6.7388    5.1971 H         2 RES2    0.0000
     29 C12        2.5222    7.8017    6.6575 C.2       2 RES2    0.0000
     30 C13        1.7296    7.6966    7.8814 C.2       2 RES2    0.0000
     31 C14        1.3860    6.4877    8.3914 C.2       2 RES2    0.0000
     32 H10        0.9133    6.4158    9.2120 H         2 RES2    0.0000
     33 C15        2.9951    9.1572    6.2124 C.3       2 RES2    0.0000
     34 H11        3.5670    9.0597    5.4220 H         2 RES2    0.0000
     35 H12        3.5050    9.5790    6.9345 H         2 RES2    0.0000
     36 H13        2.2221    9.7158    5.9887 H         2 RES2    0.0000
     37 C16        1.3774    8.9476    8.6406 C.3       2 RES2    0.0000
     38 H14        0.8025    8.7193    9.3986 H         2 RES2    0.0000
     39 H15        0.9098    9.5696    8.0460 H         2 RES2    0.0000
     40 H16        2.2009    9.3694    8.9698 H         2 RES2    0.0000
     41 C17        4.8803    5.3682    1.9170 Du        3 SUP3    0.0000
     42 C18        5.6156    5.2860    0.7279 Du        3 SUP3    0.0000
     43 C19        5.7713    4.0330    0.0858 Du        3 SUP3    0.0000
     44 C20        5.1581    2.9354    0.6352 Du        3 SUP3    0.0000
     45 C21        4.4219    3.0469    1.8927 Du        3 SUP3    0.0000
     46 C22        4.2907    4.2412    2.5244 Du        3 SUP3    0.0000
     47 C23        5.3813    1.5709    0.0417 Du        3 SUP3    0.0000
     48 C24        3.9387    1.7941    2.5731 Du        3 SUP3    0.0000
     49 C25        2.2823    5.2816    6.8429 Du        3 SUP3    0.0000
     50 C26        1.5438    5.3314    8.0321 Du        3 SUP3    0.0000
     51 C27        1.2688    6.5832    8.6360 Du        3 SUP3    0.0000
     52 C28        1.7997    7.7141    8.0669 Du        3 SUP3    0.0000
     53 C29        2.5725    7.6297    6.8267 Du        3 SUP3    0.0000
     54 C30        2.7753    6.4391    6.2078 Du        3 SUP3    0.0000
     55 C31        1.4546    9.0702    8.6163 Du        3 SUP3    0.0000
     56 C32        3.0027    8.9005    6.1452 Du        3 SUP3    0.0000
     57 H17        6.2886    3.9553   -0.7082 Du        3 SUP3    0.0000
     58 H18        3.8189    4.3146    3.3450 Du        3 SUP3    0.0000
     59 H19        5.8417    1.6596   -0.8171 Du        3 SUP3    0.0000
     60 H20        4.5148    1.1306   -0.0962 Du        3 SUP3    0.0000
     61 H21        5.9253    1.0338    0.6537 Du        3 SUP3    0.0000
     62 H22        3.5204    2.0274    3.4284 Du        3 SUP3    0.0000
     63 H23        4.6978    1.1963    2.7330 Du        3 SUP3    0.0000
     64 H24        3.2832    1.3445    2.0005 Du        3 SUP3    0.0000
     65 H25        0.7341    6.6391    9.4172 Du        3 SUP3    0.0000
     66 H26        3.2323    6.3882    5.3768 Du        3 SUP3    0.0000
     67 H27        1.0357    8.9689    9.4948 Du        3 SUP3    0.0000
     68 H28        0.8388    9.5224    8.0066 Du        3 SUP3    0.0000
     69 H29        2.2756    9.6039    8.7067 Du        3 SUP3    0.0000
     70 H30        3.3895    8.6869    5.2701 Du        3 SUP3    0.0000
     71 H31        3.6744    9.3554    6.6957 Du        3 SUP3    0.0000
     72 H32        2.2270    9.4869    6.0258 Du        3 SUP3    0.0000
     73 N5         4.8431    6.6553    2.2798 Du        3 SUP3    0.0000
     74 N6         6.0348    6.4919    0.3129 Du        3 SUP3    0.0000
     75 N7         2.4135    3.9947    6.5033 Du        3 SUP3    0.0000
     76 N8         1.2130    4.1058    8.4691 Du        3 SUP3    0.0000
     77 O5         4.3529    7.3006    3.2207 Du        3 SUP3    0.0000
     78 O6         5.5817    7.3808    1.2669 Du        3 SUP3    0.0000
     79 O7         2.9504    3.3703    5.5750 Du        3 SUP3    0.0000
     80 O8         1.7270    3.2359    7.5291 Du        3 SUP3    0.0000
@<TRIPOS>BOND
     1    1    3 1
     2    2    3 1
     3    3    5 2
     4    4    2 1
     5    5    6 1
     6    6    4 2
     7    7    6 1
     8    8    7 1
     9    9    7 2
    10   10    9 1
    11   11    5 1
    12   12   11 1
    13   13    9 1
    14   14   13 1
    15   15   13 1
    16   16   13 1
    17   17   10 1
    18   18   17 1
    19   19   17 1
    20   20   17 1
    21   21   23 1
    22   22   23 1
    23   23   25 2
    24   24   22 1
    25   25   26 1
    26   26   24 2
    27   27   26 1
    28   28   27 1
    29   29   27 2
    30   30   29 1
    31   31   25 1
    32   32   31 1
    33   33   29 1
    34   34   33 1
    35   35   33 1
    36   36   33 1
    37   37   30 1
    38   38   37 1
    39   39   37 1
    40   40   37 1
    41   10   11 2
    42   30   31 2
@<TRIPOS>SUBSTRUCTURE
     1 RES1 1
     2 RES2 21
     3 SUP3 41

@<TRIPOS>CRYSIN
   7.3643    9.0332   11.6675  89.2640  83.4190  87.0270   2 1

