# MOL2 file generated by ConQuest
# Please check atom types

@<TRIPOS>MOLECULE
CEDGAV03
   200   105     6
SMALL
NO_CHARGES
****
Generated from CSD

@<TRIPOS>ATOM
      1 C1        -0.9535    6.2025    1.7597 C.2       1 RES1    0.0000
      2 C2        -0.8671    4.8027    1.6535 C.2       1 RES1    0.0000
      3 C3         0.4031    4.1960    1.5163 C.2       1 RES1    0.0000
      4 H1         0.4822    3.2527    1.4330 H         1 RES1    0.0000
      5 C4         1.5119    4.9925    1.5065 C.2       1 RES1    0.0000
      6 C5         1.3956    6.4523    1.5702 C.2       1 RES1    0.0000
      7 C6         0.1741    7.0499    1.7205 C.2       1 RES1    0.0000
      8 H2         0.0890    7.9928    1.7957 H         1 RES1    0.0000
      9 C7         2.8751    4.3926    1.3235 C.3       1 RES1    0.0000
     10 H3         2.7978    3.4158    1.2908 H         1 RES1    0.0000
     11 H4         3.4420    4.6441    2.0898 H         1 RES1    0.0000
     12 H5         3.2733    4.7224    0.5000 H         1 RES1    0.0000
     13 C8         2.6450    7.2976    1.5686 C.3       1 RES1    0.0000
     14 H6         2.3979    8.2438    1.6356 H         1 RES1    0.0000
     15 H7         3.1464    7.1425    0.7483 H         1 RES1    0.0000
     16 H8         3.1995    7.0543    2.3463 H         1 RES1    0.0000
     17 N1        -2.2462    6.4913    1.9248 N.pl3     1 RES1    0.0000
     18 N2        -2.0661    4.2212    1.7075 N.2       1 RES1    0.0000
     19 O1        -2.8810    7.5515    2.0718 O.2       1 RES1    0.0000
     20 O2        -2.9666    5.2517    1.8806 O.3       1 RES1    0.0000
     21 C9         0.4845    4.6518    4.9132 C.2       2 RES2    0.0000
     22 C10        0.5807    3.2509    4.8332 C.2       2 RES2    0.0000
     23 C11        1.8587    2.6470    4.7809 C.2       2 RES2    0.0000
     24 H9         1.9459    1.7061    4.6845 H         2 RES2    0.0000
     25 C12        2.9642    3.4435    4.8707 C.2       2 RES2    0.0000
     26 C13        2.8402    4.9030    4.9377 C.2       2 RES2    0.0000
     27 C14        1.6106    5.5011    4.9541 C.2       2 RES2    0.0000
     28 H10        1.5182    6.4461    4.9916 H         2 RES2    0.0000
     29 C15        4.3364    2.8468    4.7956 C.3       2 RES2    0.0000
     30 H11        4.2648    1.8731    4.7155 H         2 RES2    0.0000
     31 H12        4.8356    3.0718    5.6093 H         2 RES2    0.0000
     32 H13        4.8066    3.2054    4.0146 H         2 RES2    0.0000
     33 C16        4.0834    5.7545    4.8969 C.3       2 RES2    0.0000
     34 H14        3.8373    6.6979    4.9949 H         2 RES2    0.0000
     35 H15        4.5411    5.6237    4.0391 H         2 RES2    0.0000
     36 H16        4.6815    5.4958    5.6289 H         2 RES2    0.0000
     37 N3        -0.8179    4.9388    4.9818 N.pl3     2 RES2    0.0000
     38 N4        -0.6183    2.6673    4.7988 N.2       2 RES2    0.0000
     39 O3        -1.4625    5.9982    5.0897 O.2       2 RES2    0.0000
     40 O4        -1.5309    3.6974    4.8985 O.3       2 RES2    0.0000
     41 C17        7.8133    2.0246    8.0602 C.2       3 RES3    0.0000
     42 C18        7.7391    3.4239    8.1762 C.2       3 RES3    0.0000
     43 C19        6.4734    4.0409    8.3183 C.2       3 RES3    0.0000
     44 H17        6.4022    4.9842    8.4033 H         3 RES3    0.0000
     45 C20        5.3579    3.2535    8.3298 C.2       3 RES3    0.0000
     46 C21        5.4589    1.7975    8.1958 C.2       3 RES3    0.0000
     47 C22        6.6764    1.1886    8.0683 C.2       3 RES3    0.0000
     48 H18        6.7543    0.2451    7.9866 H         3 RES3    0.0000
     49 C23        3.9977    3.8688    8.4588 C.3       3 RES3    0.0000
     50 H19        4.0855    4.8412    8.5389 H         3 RES3    0.0000
     51 H20        3.5537    3.5138    9.2578 H         3 RES3    0.0000
     52 H21        3.4647    3.6523    7.6664 H         3 RES3    0.0000
     53 C24        4.2048    0.9621    8.2170 C.3       3 RES3    0.0000
     54 H22        4.4407    0.0160    8.1206 H         3 RES3    0.0000
     55 H23        3.6201    1.2306    7.4785 H         3 RES3    0.0000
     56 H24        3.7372    1.0961    9.0683 H         3 RES3    0.0000
     57 N5         9.1075    1.7233    7.9298 N.pl3     3 RES3    0.0000
     58 N6         8.9425    3.9964    8.1291 N.2       3 RES3    0.0000
     59 O5         9.7361    0.6576    7.7961 O.2       3 RES3    0.0000
     60 O6         9.8364    2.9580    7.9695 O.3       3 RES3    0.0000
     61 C25        6.1224    1.3661   11.6237 C.2       4 RES4    0.0000
     62 C26        6.1987   -0.0321   11.4996 C.2       4 RES4    0.0000
     63 C27        7.4633   -0.6433   11.3264 C.2       4 RES4    0.0000
     64 H25        7.5336   -1.5824   11.1957 H         4 RES4    0.0000
     65 C28        8.5797    0.1407   11.3525 C.2       4 RES4    0.0000
     66 C29        8.4794    1.5930   11.5273 C.2       4 RES4    0.0000
     67 C30        7.2602    2.1995   11.6662 C.2       4 RES4    0.0000
     68 H26        7.1845    3.1385   11.7839 H         4 RES4    0.0000
     69 C31        9.9328   -0.4581   11.1140 C.3       4 RES4    0.0000
     70 H27        9.8459   -1.4275   11.0012 H         4 RES4    0.0000
     71 H28       10.5128   -0.2694   11.8819 H         4 RES4    0.0000
     72 H29       10.3254   -0.0682   10.3052 H         4 RES4    0.0000
     73 C32        9.7285    2.4356   11.4702 C.3       4 RES4    0.0000
     74 H30        9.4941    3.3766   11.6074 H         4 RES4    0.0000
     75 H31       10.1551    2.3286   10.5944 H         4 RES4    0.0000
     76 H32       10.3484    2.1468   12.1727 H         4 RES4    0.0000
     77 N7         4.8275    1.6647   11.7528 N.pl3     4 RES4    0.0000
     78 N8         4.9950   -0.6058   11.5290 N.2       4 RES4    0.0000
     79 O7         4.1963    2.7308   11.8672 O.2       4 RES4    0.0000
     80 O8         4.0998    0.4290   11.7087 O.3       4 RES4    0.0000
     81 C33       -1.4550   -0.1833   14.7772 C.2       5 RES5    0.0000
     82 C34       -1.3594   -1.5811   14.6628 C.2       5 RES5    0.0000
     83 C35       -0.0821   -2.1874   14.6220 C.2       5 RES5    0.0000
     84 H33        0.0052   -3.1304   14.5632 H         5 RES5    0.0000
     85 C36        1.0244   -1.3867   14.6661 C.2       5 RES5    0.0000
     86 C37        0.9007    0.0654   14.8148 C.2       5 RES5    0.0000
     87 C38       -0.3289    0.6654   14.8246 C.2       5 RES5    0.0000
     88 H34       -0.4204    1.6103   14.8622 H         5 RES5    0.0000
     89 C39        2.3926   -1.9749   14.4978 C.3       5 RES5    0.0000
     90 H35        2.3219   -2.9492   14.4243 H         5 RES5    0.0000
     91 H36        2.9448   -1.7452   15.2739 H         5 RES5    0.0000
     92 H37        2.8043   -1.6146   13.6841 H         5 RES5    0.0000
     93 C40        2.1446    0.9152   14.8638 C.3       5 RES5    0.0000
     94 H38        1.8930    1.8583   14.9504 H         5 RES5    0.0000
     95 H39        2.6598    0.7880   14.0387 H         5 RES5    0.0000
     96 H40        2.6907    0.6504   15.6334 H         5 RES5    0.0000
     97 N9        -2.7568    0.1032   14.8475 N.pl3     5 RES5    0.0000
     98 N10       -2.5578   -2.1670   14.6498 N.2       5 RES5    0.0000
     99 O9        -3.4036    1.1630   14.9390 O.2       5 RES5    0.0000
    100 O10       -3.4700   -1.1387   14.7658 O.3       5 RES5    0.0000
    101 C41       -0.9971    5.2268    1.6731 Du        6 SUP6    0.0000
    102 C42       -0.9486    6.6242    1.8202 Du        6 SUP6    0.0000
    103 C43        0.3040    7.2822    1.7810 Du        6 SUP6    0.0000
    104 C44        1.4342    6.5295    1.6405 Du        6 SUP6    0.0000
    105 C45        1.3569    5.0788    1.4477 Du        6 SUP6    0.0000
    106 C46        0.1523    4.4315    1.4836 Du        6 SUP6    0.0000
    107 C47        2.7789    7.1892    1.5686 Du        6 SUP6    0.0000
    108 C48        2.6287    4.2789    1.3235 Du        6 SUP6    0.0000
    109 C49       -1.4791   -1.1869   14.6383 Du        6 SUP6    0.0000
    110 C50       -1.4651    0.2146   14.7543 Du        6 SUP6    0.0000
    111 C51       -0.2251    0.8975   14.7576 Du        6 SUP6    0.0000
    112 C52        0.9213    0.1723   14.6024 Du        6 SUP6    0.0000
    113 C53        0.8847   -1.2891   14.4978 Du        6 SUP6    0.0000
    114 C54       -0.3085   -1.9590   14.4815 Du        6 SUP6    0.0000
    115 C55        2.2574    0.8520   14.6400 Du        6 SUP6    0.0000
    116 C56        2.1753   -2.0676   14.5256 Du        6 SUP6    0.0000
    117 C57        0.4728    3.6608    4.7939 Du        6 SUP6    0.0000
    118 C58        0.4971    5.0565    4.9590 Du        6 SUP6    0.0000
    119 C59        1.7420    5.7240    5.0309 Du        6 SUP6    0.0000
    120 C60        2.8880    4.9887    4.9296 Du        6 SUP6    0.0000
    121 C61        2.8391    3.5363    4.7269 Du        6 SUP6    0.0000
    122 C62        1.6413    2.8753    4.6975 Du        6 SUP6    0.0000
    123 C63        4.2230    5.6316    5.1567 Du        6 SUP6    0.0000
    124 C64        4.1260    2.7522    4.6730 Du        6 SUP6    0.0000
    125 C65        6.0810    0.3863   11.4522 Du        6 SUP6    0.0000
    126 C66        6.1361    1.7862   11.5715 Du        6 SUP6    0.0000
    127 C67        7.3843    2.4414   11.4489 Du        6 SUP6    0.0000
    128 C68        8.5080    1.6849   11.2790 Du        6 SUP6    0.0000
    129 C69        8.4334    0.2220   11.2202 Du        6 SUP6    0.0000
    130 C70        7.2306   -0.4220   11.3198 Du        6 SUP6    0.0000
    131 C71        9.8600    2.3321   11.2577 Du        6 SUP6    0.0000
    132 C72        9.7062   -0.5824   11.1597 Du        6 SUP6    0.0000
    133 C73        7.8582    3.0441    8.1337 Du        6 SUP6    0.0000
    134 C74        7.8058    1.6403    8.0716 Du        6 SUP6    0.0000
    135 C75        6.5582    0.9870    8.2023 Du        6 SUP6    0.0000
    136 C76        5.4302    1.7458    8.3330 Du        6 SUP6    0.0000
    137 C77        5.5040    3.2114    8.3330 Du        6 SUP6    0.0000
    138 C78        6.7096    3.8507    8.2840 Du        6 SUP6    0.0000
    139 C79        4.0806    1.0977    8.3494 Du        6 SUP6    0.0000
    140 C80        4.2405    4.0141    8.5128 Du        6 SUP6    0.0000
    141 H41        0.3564    8.2273    1.8594 Du        6 SUP6    0.0000
    142 H42        0.0919    3.4882    1.3856 Du        6 SUP6    0.0000
    143 H43        2.6749    8.1557    1.6993 Du        6 SUP6    0.0000
    144 H44        3.1818    7.0181    0.6944 Du        6 SUP6    0.0000
    145 H45        3.3569    6.8257    2.2744 Du        6 SUP6    0.0000
    146 H46        2.4093    3.3299    1.2156 Du        6 SUP6    0.0000
    147 H47        3.1707    4.4000    2.1306 Du        6 SUP6    0.0000
    148 H48        3.1338    4.5879    0.5425 Du        6 SUP6    0.0000
    149 H49       -0.1924    1.8398   14.8671 Du        6 SUP6    0.0000
    150 H50       -0.3468   -2.9009   14.3671 Du        6 SUP6    0.0000
    151 H51        2.1294    1.8202   14.7233 Du        6 SUP6    0.0000
    152 H52        2.7487    0.6553   13.8181 Du        6 SUP6    0.0000
    153 H53        2.7668    0.5255   15.4128 Du        6 SUP6    0.0000
    154 H54        1.9825   -3.0233   14.4341 Du        6 SUP6    0.0000
    155 H55        2.6416   -1.9026   15.3671 Du        6 SUP6    0.0000
    156 H56        2.7432   -1.7796   13.7740 Du        6 SUP6    0.0000
    157 H57        1.7802    6.6659    5.1452 Du        6 SUP6    0.0000
    158 H58        1.5985    1.9292    4.6158 Du        6 SUP6    0.0000
    159 H59        4.1135    6.6043    5.2041 Du        6 SUP6    0.0000
    160 H60        4.8239    5.4051    4.4165 Du        6 SUP6    0.0000
    161 H61        4.6046    5.3040    5.9981 Du        6 SUP6    0.0000
    162 H62        3.9226    1.7955    4.6060 Du        6 SUP6    0.0000
    163 H63        4.6368    2.9145    5.4998 Du        6 SUP6    0.0000
    164 H64        4.6524    3.0353    3.9034 Du        6 SUP6    0.0000
    165 H65        7.4384    3.3893   11.4832 Du        6 SUP6    0.0000
    166 H66        7.1717   -1.3699   11.3002 Du        6 SUP6    0.0000
    167 H67        9.7565    3.3070   11.2823 Du        6 SUP6    0.0000
    168 H68       10.3321    2.0751   10.4375 Du        6 SUP6    0.0000
    169 H69       10.3762    2.0390   12.0371 Du        6 SUP6    0.0000
    170 H70        9.4892   -1.5383   11.1564 Du        6 SUP6    0.0000
    171 H71       10.2652   -0.3735   11.9342 Du        6 SUP6    0.0000
    172 H72       10.1934   -0.3596   10.3346 Du        6 SUP6    0.0000
    173 H73        6.5058    0.0374    8.2007 Du        6 SUP6    0.0000
    174 H74        6.7731    4.7984    8.3347 Du        6 SUP6    0.0000
    175 H75        4.1845    0.1227    8.3543 Du        6 SUP6    0.0000
    176 H76        3.5724    1.3708    7.5602 Du        6 SUP6    0.0000
    177 H77        3.5987    1.3750    9.1614 Du        6 SUP6    0.0000
    178 H78        4.4536    4.9693    8.4801 Du        6 SUP6    0.0000
    179 H79        3.8361    3.8003    9.3820 Du        6 SUP6    0.0000
    180 H80        3.6091    3.7931    7.7987 Du        6 SUP6    0.0000
    181 N11       -2.2844    4.8821    1.7565 Du        6 SUP6    0.0000
    182 N12       -2.1665    7.1606    1.9248 Du        6 SUP6    0.0000
    183 N13       -2.7624   -1.5534   14.6318 Du        6 SUP6    0.0000
    184 N14       -2.6955    0.7267   14.7968 Du        6 SUP6    0.0000
    185 N15       -0.8129    3.3024    4.7841 Du        6 SUP6    0.0000
    186 N16       -0.7296    5.5791    4.9867 Du        6 SUP6    0.0000
    187 N17        4.7951    0.0464   11.5698 Du        6 SUP6    0.0000
    188 N18        4.9263    2.3246   11.7267 Du        6 SUP6    0.0000
    189 N19        9.1495    3.3776    8.0863 Du        6 SUP6    0.0000
    190 N20        9.0174    1.0994    7.9294 Du        6 SUP6    0.0000
    191 O11       -2.8894    3.7951    1.7303 Du        6 SUP6    0.0000
    192 O12       -3.0389    6.0918    1.9133 Du        6 SUP6    0.0000
    193 O13       -3.3458   -2.6514   14.5681 Du        6 SUP6    0.0000
    194 O14       -3.5467   -0.3563   14.7266 Du        6 SUP6    0.0000
    195 O15       -1.4033    2.2073    4.7318 Du        6 SUP6    0.0000
    196 O16       -1.5885    4.5034    4.8936 Du        6 SUP6    0.0000
    197 O17        4.1819   -1.0355   11.5306 Du        6 SUP6    0.0000
    198 O18        4.0469    1.2612   11.7136 Du        6 SUP6    0.0000
    199 O19        9.7633    4.4589    8.1468 Du        6 SUP6    0.0000
    200 O20        9.8996    2.1594    7.9801 Du        6 SUP6    0.0000
@<TRIPOS>BOND
     1    1    2 1
     2    2    3 1
     3    3    4 1
     4    5    3 2
     5    6    5 1
     6    7    1 1
     7    8    7 1
     8    9    5 1
     9   10    9 1
    10   11    9 1
    11   12    9 1
    12   13    6 1
    13   14   13 1
    14   15   13 1
    15   16   13 1
    16   17    1 2
    17   18    2 2
    18   19   17 1
    19   20   17 1
    20   21   22 1
    21   22   23 1
    22   23   24 1
    23   25   23 2
    24   26   25 1
    25   27   21 1
    26   28   27 1
    27   29   25 1
    28   30   29 1
    29   31   29 1
    30   32   29 1
    31   33   26 1
    32   34   33 1
    33   35   33 1
    34   36   33 1
    35   37   21 2
    36   38   22 2
    37   39   37 1
    38   40   37 1
    39   41   42 1
    40   42   43 1
    41   43   44 1
    42   45   43 2
    43   46   45 1
    44   47   41 1
    45   48   47 1
    46   49   45 1
    47   50   49 1
    48   51   49 1
    49   52   49 1
    50   53   46 1
    51   54   53 1
    52   55   53 1
    53   56   53 1
    54   57   41 2
    55   58   42 2
    56   59   57 1
    57   60   57 1
    58   61   62 1
    59   62   63 1
    60   63   64 1
    61   65   63 2
    62   66   65 1
    63   67   61 1
    64   68   67 1
    65   69   65 1
    66   70   69 1
    67   71   69 1
    68   72   69 1
    69   73   66 1
    70   74   73 1
    71   75   73 1
    72   76   73 1
    73   77   61 2
    74   78   62 2
    75   79   77 1
    76   80   77 1
    77   81   82 1
    78   82   83 1
    79   83   84 1
    80   85   83 2
    81   86   85 1
    82   87   81 1
    83   88   87 1
    84   89   85 1
    85   90   89 1
    86   91   89 1
    87   92   89 1
    88   93   86 1
    89   94   93 1
    90   95   93 1
    91   96   93 1
    92   97   81 2
    93   98   82 2
    94   99   97 1
    95  100   97 1
    96    6    7 2
    97   18   20 1
    98   26   27 2
    99   38   40 1
   100   46   47 2
   101   58   60 1
   102   66   67 2
   103   78   80 1
   104   86   87 2
   105   98  100 1
@<TRIPOS>SUBSTRUCTURE
     1 RES1 1
     2 RES2 21
     3 RES3 41
     4 RES4 61
     5 RES5 81
     6 SUP6 101

@<TRIPOS>CRYSIN
   9.0136   13.0640   16.5670  95.0550  97.9690  90.7420   2 1

