# MOL2 file generated by ConQuest
# Please check atom types

@<TRIPOS>MOLECULE
CEDGAV02
   120    63     4
SMALL
NO_CHARGES
****
Generated from CSD

@<TRIPOS>ATOM
      1 O1         3.5943    4.5254    1.0999 O.2       1 RES1    0.0000
      2 O2         3.5041    3.6542    3.2340 O.3       1 RES1    0.0000
      3 N1         4.2313    4.1719    2.1020 N.pl3     1 RES1    0.0000
      4 N2         4.3998    3.3257    4.2321 N.2       1 RES1    0.0000
      5 C1         5.5246    4.1465    2.4418 C.2       1 RES1    0.0000
      6 C2         5.6052    3.6253    3.7404 C.2       1 RES1    0.0000
      7 C3         6.8731    3.4782    4.3548 C.2       1 RES1    0.0000
      8 H1         6.9485    3.1402    5.2403 H         1 RES1    0.0000
      9 C4         7.9906    3.8365    3.6425 C.2       1 RES1    0.0000
     10 C5         7.8752    4.3823    2.2903 C.2       1 RES1    0.0000
     11 C6         6.6610    4.5377    1.6973 C.2       1 RES1    0.0000
     12 H2         6.5805    4.8936    0.8200 H         1 RES1    0.0000
     13 C7         9.3497    3.7023    4.2589 C.3       1 RES1    0.0000
     14 H3         9.2637    3.3368    5.1643 H         1 RES1    0.0000
     15 H4         9.7774    4.5838    4.3022 H         1 RES1    0.0000
     16 H5         9.8983    3.1007    3.7138 H         1 RES1    0.0000
     17 C8         9.1265    4.7490    1.5323 C.3       1 RES1    0.0000
     18 H6         8.8842    5.0865    0.6457 H         1 RES1    0.0000
     19 H7         9.6946    3.9561    1.4364 H         1 RES1    0.0000
     20 H8         9.6147    5.4419    2.0236 H         1 RES1    0.0000
     21 O3         9.1625    7.2623    4.7414 O.2       2 RES2    0.0000
     22 O4         9.2504    8.1270    2.6047 O.3       2 RES2    0.0000
     23 N3         8.5249    7.6113    3.7382 N.pl3     2 RES2    0.0000
     24 N4         8.3560    8.4237    1.5948 N.2       2 RES2    0.0000
     25 C9         7.2314    7.6326    3.3980 C.2       2 RES2    0.0000
     26 C10        7.1509    8.1316    2.0915 C.2       2 RES2    0.0000
     27 C11        5.8837    8.2583    1.4703 C.2       2 RES2    0.0000
     28 H9         5.8099    8.5578    0.5720 H         2 RES2    0.0000
     29 C12        4.7638    7.9379    2.1991 C.2       2 RES2    0.0000
     30 C13        4.8768    7.4561    3.5746 C.2       2 RES2    0.0000
     31 C14        6.0933    7.2822    4.1607 C.2       2 RES2    0.0000
     32 H10        6.1739    6.9393    5.0426 H         2 RES2    0.0000
     33 C15        3.4085    8.0134    1.5639 C.3       2 RES2    0.0000
     34 H11        3.4932    8.3653    0.6527 H         2 RES2    0.0000
     35 H12        2.8329    8.6056    2.0903 H         2 RES2    0.0000
     36 H13        3.0125    7.1168    1.5312 H         2 RES2    0.0000
     37 C16        3.6310    7.0345    4.3151 C.3       2 RES2    0.0000
     38 H14        3.8732    6.7257    5.2122 H         2 RES2    0.0000
     39 H15        3.1910    6.3075    3.8261 H         2 RES2    0.0000
     40 H16        3.0198    7.7975    4.3853 H         2 RES2    0.0000
     41 O5         7.7431   10.6700    4.6763 O.2       3 RES3    0.0000
     42 O6         7.8113   11.5228    2.5340 O.3       3 RES3    0.0000
     43 N5         7.0943   11.0555    3.6934 N.pl3     3 RES3    0.0000
     44 N6         6.9025   11.8854    1.5591 N.2       3 RES3    0.0000
     45 C17        5.7941   11.1468    3.3945 C.2       3 RES3    0.0000
     46 C18        5.6995   11.6593    2.0938 C.2       3 RES3    0.0000
     47 C19        4.4216   11.8838    1.5230 C.2       3 RES3    0.0000
     48 H17        4.3359   12.1984    0.6316 H         3 RES3    0.0000
     49 C20        3.3105   11.6356    2.2915 C.2       3 RES3    0.0000
     50 C21        3.4409   11.1132    3.6518 C.2       3 RES3    0.0000
     51 C22        4.6628   10.8551    4.1911 C.2       3 RES3    0.0000
     52 H18        4.7526   10.4933    5.0649 H         3 RES3    0.0000
     53 C23        1.9409   11.7829    1.6996 C.3       3 RES3    0.0000
     54 H19        2.0150   12.1478    0.7931 H         3 RES3    0.0000
     55 H20        1.4084   12.3885    2.2540 H         3 RES3    0.0000
     56 H21        1.5057   10.9055    1.6633 H         3 RES3    0.0000
     57 C24        2.1970   10.7374    4.4192 C.3       3 RES3    0.0000
     58 H22        2.4482   10.4043    5.3058 H         3 RES3    0.0000
     59 H23        1.7110   10.0389    3.9326 H         3 RES3    0.0000
     60 H24        1.6229   11.5259    4.5174 H         3 RES3    0.0000
     61 C25        5.4778    3.8015    3.3688 Du        4 SUP4    0.0000
     62 C26        5.5332    4.3331    2.0739 Du        4 SUP4    0.0000
     63 C27        6.7865    4.6989    1.5230 Du        4 SUP4    0.0000
     64 C28        7.9183    4.4625    2.2634 Du        4 SUP4    0.0000
     65 C29        7.8291    3.9150    3.6168 Du        4 SUP4    0.0000
     66 C30        6.6299    3.5547    4.1501 Du        4 SUP4    0.0000
     67 C31        9.2596    4.8710    1.7323 Du        4 SUP4    0.0000
     68 C32        9.0981    3.6184    4.3771 Du        4 SUP4    0.0000
     69 C33        7.2796    7.9438    2.4915 Du        4 SUP4    0.0000
     70 C34        7.2230    7.4150    3.7875 Du        4 SUP4    0.0000
     71 C35        5.9699    7.0427    4.3338 Du        4 SUP4    0.0000
     72 C36        4.8444    7.2185    3.5676 Du        4 SUP4    0.0000
     73 C37        4.9303    7.8038    2.2306 Du        4 SUP4    0.0000
     74 C38        6.1291    8.1701    1.7008 Du        4 SUP4    0.0000
     75 C39        3.4918    6.9302    4.1478 Du        4 SUP4    0.0000
     76 C40        3.6625    8.0815    1.4621 Du        4 SUP4    0.0000
     77 C41        5.8166   11.4685    2.4646 Du        4 SUP4    0.0000
     78 C42        5.7906   10.9510    3.7665 Du        4 SUP4    0.0000
     79 C43        4.5462   10.6457    4.3701 Du        4 SUP4    0.0000
     80 C44        3.3969   10.8964    3.6624 Du        4 SUP4    0.0000
     81 C45        3.4540   11.4467    2.3078 Du        4 SUP4    0.0000
     82 C46        4.6455   11.7482    1.7230 Du        4 SUP4    0.0000
     83 C47        2.0582   10.7233    4.3198 Du        4 SUP4    0.0000
     84 C48        2.1697   11.8188    1.6095 Du        4 SUP4    0.0000
     85 H25        6.8413    5.0970    0.6621 Du        4 SUP4    0.0000
     86 H26        6.5700    3.1544    5.0087 Du        4 SUP4    0.0000
     87 H27        9.1533    5.2580    0.8387 Du        4 SUP4    0.0000
     88 H28        9.8435    4.0856    1.6809 Du        4 SUP4    0.0000
     89 H29        9.6600    5.5357    2.3312 Du        4 SUP4    0.0000
     90 H30        8.8745    3.2125    5.2403 Du        4 SUP4    0.0000
     91 H31        9.5928    4.4520    4.5256 Du        4 SUP4    0.0000
     92 H32        9.6523    2.9986    3.8577 Du        4 SUP4    0.0000
     93 H33        5.9105    6.6809    5.2099 Du        4 SUP4    0.0000
     94 H34        6.1905    8.5612    0.8363 Du        4 SUP4    0.0000
     95 H35        3.5965    6.5518    5.0461 Du        4 SUP4    0.0000
     96 H36        3.0210    6.2894    3.5758 Du        4 SUP4    0.0000
     97 H37        2.9760    7.7621    4.2028 Du        4 SUP4    0.0000
     98 H38        3.8870    8.4630    0.5884 Du        4 SUP4    0.0000
     99 H39        3.1094    8.7177    1.9640 Du        4 SUP4    0.0000
    100 H40        3.1663    7.2456    1.3382 Du        4 SUP4    0.0000
    101 H41        4.5066   10.2751    5.2438 Du        4 SUP4    0.0000
    102 H42        4.6887   12.1301    0.8551 Du        4 SUP4    0.0000
    103 H43        2.1815   10.3493    5.2158 Du        4 SUP4    0.0000
    104 H44        1.5043   10.1264    3.7829 Du        4 SUP4    0.0000
    105 H45        1.6191   11.6012    4.3923 Du        4 SUP4    0.0000
    106 H46        2.3724   12.1702    0.7170 Du        4 SUP4    0.0000
    107 H47        1.7000   12.5021    2.1312 Du        4 SUP4    0.0000
    108 H48        1.6012   11.0245    1.5253 Du        4 SUP4    0.0000
    109 N7         4.1889    3.5949    3.6612 Du        4 SUP4    0.0000
    110 N8         4.3140    4.4883    1.5475 Du        4 SUP4    0.0000
    111 N9         8.5672    8.1765    2.2110 Du        4 SUP4    0.0000
    112 N10        8.4378    7.3045    4.3334 Du        4 SUP4    0.0000
    113 N11        7.1006   11.6292    2.1250 Du        4 SUP4    0.0000
    114 N12        7.0211   10.7535    4.2490 Du        4 SUP4    0.0000
    115 O7         3.5712    3.1468    4.6379 Du        4 SUP4    0.0000
    116 O8         3.4383    4.0221    2.5079 Du        4 SUP4    0.0000
    117 O9         9.1855    8.6311    1.2384 Du        4 SUP4    0.0000
    118 O10        9.3154    7.7657    3.3724 Du        4 SUP4    0.0000
    119 O11        7.6982   12.0451    1.1226 Du        4 SUP4    0.0000
    120 O12        7.8773   11.1691    3.2484 Du        4 SUP4    0.0000
@<TRIPOS>BOND
     1    1    3 1
     2    2    3 1
     3    3    5 2
     4    4    2 1
     5    5    6 1
     6    6    4 2
     7    7    6 1
     8    8    7 1
     9    9    7 2
    10   10    9 1
    11   11    5 1
    12   12   11 1
    13   13    9 1
    14   14   13 1
    15   15   13 1
    16   16   13 1
    17   17   10 1
    18   18   17 1
    19   19   17 1
    20   20   17 1
    21   21   23 1
    22   22   23 1
    23   23   25 2
    24   24   22 1
    25   25   26 1
    26   26   24 2
    27   27   26 1
    28   28   27 1
    29   29   27 2
    30   30   29 1
    31   31   25 1
    32   32   31 1
    33   33   29 1
    34   34   33 1
    35   35   33 1
    36   36   33 1
    37   37   30 1
    38   38   37 1
    39   39   37 1
    40   40   37 1
    41   41   43 1
    42   42   43 1
    43   43   45 2
    44   44   42 1
    45   45   46 1
    46   46   44 2
    47   47   46 1
    48   48   47 1
    49   49   47 2
    50   50   49 1
    51   51   45 1
    52   52   51 1
    53   53   49 1
    54   54   53 1
    55   55   53 1
    56   56   53 1
    57   57   50 1
    58   58   57 1
    59   59   57 1
    60   60   57 1
    61   10   11 2
    62   30   31 2
    63   50   51 2
@<TRIPOS>SUBSTRUCTURE
     1 RES1 1
     2 RES2 21
     3 RES3 41
     4 SUP4 61

@<TRIPOS>CRYSIN
   9.0070   11.1331   12.9526  65.1730  80.6290  79.8620   2 1

