# MOL2 file generated by ConQuest
# Please check atom types

@<TRIPOS>MOLECULE
CEDKAZ
    59    63     1
SMALL
NO_CHARGES
****
Generated from CSD

@<TRIPOS>ATOM
      1 C1        10.4399   10.4819    5.2193 C.ar      1 RES1    0.0000
      2 H1        10.5269   10.8991    4.3692 H         1 RES1    0.0000
      3 C2         9.6170   11.0563    6.1659 C.ar      1 RES1    0.0000
      4 C3         9.4566   10.4252    7.4181 C.ar      1 RES1    0.0000
      5 C4        10.1412    9.2533    7.6765 C.ar      1 RES1    0.0000
      6 H2        10.0290    8.8161    8.5128 H         1 RES1    0.0000
      7 C5        10.9934    8.7102    6.7196 C.ar      1 RES1    0.0000
      8 C6        12.6151    7.0288    6.2189 C.3       1 RES1    0.0000
      9 H3        12.7409    6.0654    6.4113 H         1 RES1    0.0000
     10 H4        13.4758    7.4869    6.3875 H         1 RES1    0.0000
     11 C7        12.2472    7.1953    4.7669 C.3       1 RES1    0.0000
     12 H5        12.9694    6.8086    4.1911 H         1 RES1    0.0000
     13 C8        10.4440    6.6241    3.3343 C.ar      1 RES1    0.0000
     14 C9         8.9493    5.7698    1.6828 C.ar      1 RES1    0.0000
     15 C10        9.1946    6.8328    0.8228 C.ar      1 RES1    0.0000
     16 H6         8.7826    6.8862   -0.0317 H         1 RES1    0.0000
     17 C11       10.0625    7.8066    1.2668 C.ar      1 RES1    0.0000
     18 H7        10.2355    8.5540    0.7084 H         1 RES1    0.0000
     19 C12       11.5791    8.8035    3.0157 C.2       1 RES1    0.0000
     20 C13       12.0716    8.6716    4.4396 C.3       1 RES1    0.0000
     21 H8        12.9653    9.1159    4.5037 H         1 RES1    0.0000
     22 C14       11.1501    9.3038    5.4698 C.ar      1 RES1    0.0000
     23 C15       10.7057    7.7347    2.5202 C.ar      1 RES1    0.0000
     24 C16        9.5405    5.6566    2.9270 C.ar      1 RES1    0.0000
     25 C17        9.0520    4.3976    3.5931 C.3       1 RES1    0.0000
     26 H9         8.6096    4.5947    4.4562 H         1 RES1    0.0000
     27 H10        9.7931    3.7592    3.7439 H         1 RES1    0.0000
     28 C18        8.0435    3.8514    2.5574 C.3       1 RES1    0.0000
     29 H11        7.1231    3.8986    2.9444 H         1 RES1    0.0000
     30 C19        8.2951    2.4614    2.0714 C.2       1 RES1    0.0000
     31 C20        7.2961    1.5997    2.0583 C.2       1 RES1    0.0000
     32 H12        6.4344    1.8660    2.3548 H         1 RES1    0.0000
     33 H13        7.4397    0.7118    1.7532 H         1 RES1    0.0000
     34 C21        9.6831    2.1511    1.5874 C.3       1 RES1    0.0000
     35 H14       10.2806    2.0431    2.3548 H         1 RES1    0.0000
     36 H15       10.0049    2.8849    1.0250 H         1 RES1    0.0000
     37 H16        9.6684    1.3208    1.0646 H         1 RES1    0.0000
     38 C22        7.5833   12.2084    5.7539 C.3       1 RES1    0.0000
     39 H17        7.3538   11.6402    4.9905 H         1 RES1    0.0000
     40 H18        7.2301   13.1110    5.6079 H         1 RES1    0.0000
     41 H19        7.1902   11.8320    6.5696 H         1 RES1    0.0000
     42 C23        8.2584   10.2858    9.4653 C.3       1 RES1    0.0000
     43 H20        7.8465    9.4409    9.1895 H         1 RES1    0.0000
     44 H21        7.6200   10.8026   10.0008 H         1 RES1    0.0000
     45 H22        9.0583   10.1003   10.0008 H         1 RES1    0.0000
     46 C24       13.5649   11.2943    1.8680 C.3       1 RES1    0.0000
     47 H23       13.9674   12.1308    2.2123 H         1 RES1    0.0000
     48 H24       13.0585   11.5134    1.0448 H         1 RES1    0.0000
     49 C25       14.6530   10.3089    1.5415 C.3       1 RES1    0.0000
     50 H25       15.1509   10.0908    2.3548 H         1 RES1    0.0000
     51 H26       15.2631   10.7020    0.8825 H         1 RES1    0.0000
     52 H27       14.2557    9.4933    1.1714 H         1 RES1    0.0000
     53 N1        11.8897    9.7511    2.2131 N.2       1 RES1    0.0000
     54 O1        11.6233    7.5545    7.1015 O.3       1 RES1    0.0000
     55 O2        11.0249    6.4550    4.5686 O.3       1 RES1    0.0000
     56 O3         8.1166    4.7392    1.3812 O.3       1 RES1    0.0000
     57 O4         9.0079   12.2689    5.8944 O.3       1 RES1    0.0000
     58 O5         8.6260   11.0392    8.3026 O.3       1 RES1    0.0000
     59 O6        12.6667   10.7451    2.8578 O.3       1 RES1    0.0000
@<TRIPOS>BOND
     1    1    2 1
     2    3    1 ar
     3    4    3 ar
     4    5    4 ar
     5    6    5 1
     6    7    5 ar
     7    8    9 1
     8   10    8 1
     9   11    8 1
    10   12   11 1
    11   13   23 ar
    12   14   15 ar
    13   15   16 1
    14   17   15 ar
    15   18   17 1
    16   19   20 1
    17   20   11 1
    18   21   20 1
    19   22    1 ar
    20   23   17 ar
    21   24   13 ar
    22   25   24 1
    23   26   25 1
    24   27   25 1
    25   28   25 1
    26   29   28 1
    27   30   28 1
    28   31   30 2
    29   32   31 1
    30   33   31 1
    31   34   30 1
    32   35   34 1
    33   36   34 1
    34   37   34 1
    35   38   39 1
    36   40   38 1
    37   41   38 1
    38   42   43 1
    39   44   42 1
    40   45   42 1
    41   46   47 1
    42   48   46 1
    43   49   46 1
    44   50   49 1
    45   51   49 1
    46   52   49 1
    47   53   19 2
    48   54    7 1
    49   55   11 1
    50   56   14 1
    51   57    3 1
    52   58    4 1
    53   59   46 1
    54    7   22 ar
    55    8   54 1
    56   13   55 1
    57   14   24 ar
    58   19   23 1
    59   20   22 1
    60   28   56 1
    61   38   57 1
    62   42   58 1
    63   53   59 1
@<TRIPOS>SUBSTRUCTURE
     1 RES1 1

@<TRIPOS>CRYSIN
  10.4829   10.4829   39.5758  90.0000  90.0000  90.0000  96 1

