# MOL2 file generated by ConQuest
# Please check atom types

@<TRIPOS>MOLECULE
CEDRUB
    40    42     1
SMALL
NO_CHARGES
****
Generated from CSD

@<TRIPOS>ATOM
      1 N1         5.6742    0.6170    8.8012 N.am      1 RES1    0.0000
      2 H1         5.0811    0.1409    8.3980 H         1 RES1    0.0000
      3 O1         7.1952    0.7071    7.0864 O.2       1 RES1    0.0000
      4 C1         6.9535    1.0465    8.2498 C.2       1 RES1    0.0000
      5 N2         9.7207    3.7347    4.1500 N.pl3     1 RES1    0.0000
      6 O2        10.1999    2.6392    3.9297 O.2       1 RES1    0.0000
      7 O3         9.7119    3.7784   15.1300 O.2       1 RES1    0.0000
      8 C2         5.5879    1.1005   10.0549 C.2       1 RES1    0.0000
      9 H2         4.8760    0.9832   10.6411 H         1 RES1    0.0000
     10 O4         9.7109    4.5959    3.3151 O.2       1 RES1    0.0000
     11 C3         8.8422    3.3559    7.7499 C.ar      1 RES1    0.0000
     12 N3         9.5808    3.1685   14.0877 N.pl3     1 RES1    0.0000
     13 C4         9.3219    3.0730    6.4808 C.ar      1 RES1    0.0000
     14 H3         9.7236    2.2531    6.3030 H         1 RES1    0.0000
     15 C5         9.2007    4.0098    5.4913 C.ar      1 RES1    0.0000
     16 C6         8.9226    2.3320    8.8992 C.3       1 RES1    0.0000
     17 H4         9.1511    2.8506    9.6980 H         1 RES1    0.0000
     18 O5        10.4914    2.5487   13.5594 O.2       1 RES1    0.0000
     19 C7         6.8954    2.4451   11.5881 C.ar      1 RES1    0.0000
     20 C8         6.6899    1.7675   10.3010 C.2       1 RES1    0.0000
     21 C9         7.5717    1.7275    9.1800 C.2       1 RES1    0.0000
     22 C10        8.1308    2.4635   12.2079 C.ar      1 RES1    0.0000
     23 H5         8.8631    2.0365   11.8239 H         1 RES1    0.0000
     24 C11        8.2533    3.1360   13.4203 C.ar      1 RES1    0.0000
     25 C12        8.2650    4.5761    7.9857 C.ar      1 RES1    0.0000
     26 H6         7.9170    4.7602    8.8283 H         1 RES1    0.0000
     27 C13        5.9673    3.7182   13.4254 C.ar      1 RES1    0.0000
     28 H7         5.2448    4.1536   13.8158 H         1 RES1    0.0000
     29 C14        7.1876    3.7370   14.0503 C.ar      1 RES1    0.0000
     30 H8         7.2919    4.1455   14.8788 H         1 RES1    0.0000
     31 C15        8.6627    5.2695    5.7155 C.ar      1 RES1    0.0000
     32 H9         8.6239    5.9032    5.0352 H         1 RES1    0.0000
     33 C16        5.7951    3.0514   12.2053 C.ar      1 RES1    0.0000
     34 H10        4.9543    3.0111   11.8084 H         1 RES1    0.0000
     35 C17        9.9911    1.2901    8.7755 C.3       1 RES1    0.0000
     36 H11        9.6731    0.5703    8.2240 H         1 RES1    0.0000
     37 H12       10.2111    0.9525    9.6465 H         1 RES1    0.0000
     38 H13       10.7720    1.6785    8.3748 H         1 RES1    0.0000
     39 C18        8.1872    5.5515    6.9833 C.ar      1 RES1    0.0000
     40 H14        7.8179    6.3847    7.1701 H         1 RES1    0.0000
@<TRIPOS>BOND
     1    1    2 1
     2    3    4 2
     3    4    1 1
     4    5    6 2
     5    7   12 2
     6    8    1 1
     7    9    8 1
     8   10    5 2
     9   11   13 ar
    10   12   18 2
    11   13   14 1
    12   15    5 1
    13   16   11 1
    14   17   16 1
    15   19   20 1
    16   20    8 2
    17   21    4 1
    18   22   19 ar
    19   23   22 1
    20   24   12 1
    21   25   11 ar
    22   26   25 1
    23   27   28 1
    24   29   24 ar
    25   30   29 1
    26   31   15 ar
    27   32   31 1
    28   33   19 ar
    29   34   33 1
    30   35   16 1
    31   36   35 1
    32   37   35 1
    33   38   35 1
    34   39   25 ar
    35   40   39 1
    36   13   15 ar
    37   16   21 1
    38   20   21 1
    39   22   24 ar
    40   27   29 ar
    41   27   33 ar
    42   31   39 ar
@<TRIPOS>SUBSTRUCTURE
     1 RES1 1

@<TRIPOS>CRYSIN
   7.7506    8.4774   13.2368  81.4010  77.5370  69.0080   2 1

