# MOL2 file generated by ConQuest
# Please check atom types

@<TRIPOS>MOLECULE
CEDZUG
    20    24     1
SMALL
NO_CHARGES
****
Generated from CSD

@<TRIPOS>ATOM
      1 O1         0.4226    0.4699    8.7157 O.2       1 RES1    0.0000
      2 O2        -1.5221   -0.2947    9.1647 O.2       1 RES1    0.0000
      3 N1        -0.6755    0.0851    8.3842 N.pl3     1 RES1    0.0000
      4 C1        -0.9871    0.0619    6.9522 C.3       1 RES1    0.0000
      5 C2        -2.4100    0.0519    6.3572 C.3       1 RES1    0.0000
      6 C3        -0.5496   -1.1057    6.0076 C.3       1 RES1    0.0000
      7 C4        -0.4976    1.1063    5.9183 C.3       1 RES1    0.0000
      8 H1        -3.1845    0.0801    6.8662 H         1 RES1    0.0000
      9 H2        -0.0778   -1.8860    6.3029 H         1 RES1    0.0000
     10 H3         0.0118    1.8948    6.1298 H         1 RES1    0.0000
     11 C3B       -1.9333    1.1057    5.3041 C.3       1 RES1    0.0000
     12 C4B       -1.9853   -1.1063    5.3934 C.3       1 RES1    0.0000
     13 C2B       -0.0729   -0.0519    4.9545 C.3       1 RES1    0.0000
     14 C1B       -1.4958   -0.0619    4.3595 C.3       1 RES1    0.0000
     15 H2B       -2.4051    1.8860    5.0088 H         1 RES1    0.0000
     16 H3B       -2.4947   -1.8948    5.1819 H         1 RES1    0.0000
     17 H1B        0.7016   -0.0801    4.4455 H         1 RES1    0.0000
     18 N1B       -1.8074   -0.0851    2.9275 N.pl3     1 RES1    0.0000
     19 O1B       -2.9055   -0.4699    2.5960 O.2       1 RES1    0.0000
     20 O2B       -0.9608    0.2947    2.1470 O.2       1 RES1    0.0000
@<TRIPOS>BOND
     1    1    3 2
     2    2    3 2
     3    3    4 1
     4    4    5 1
     5    5    8 1
     6    6    4 1
     7    7    4 1
     8    9    6 1
     9   10    7 1
    10   11    5 1
    11   12    5 1
    12   13    6 1
    13   14   11 1
    14   15   11 1
    15   16   12 1
    16   17   13 1
    17   18   14 1
    18   19   18 2
    19   20   18 2
    20    6   12 1
    21    7   11 1
    22    7   13 1
    23   12   14 1
    24   13   14 1
@<TRIPOS>SUBSTRUCTURE
     1 RES1 1

@<TRIPOS>CRYSIN
   5.4816    6.2575   11.5810  90.0000 102.3800  90.0000  14 1

