# MOL2 file generated by ConQuest
# Please check atom types

@<TRIPOS>MOLECULE
CEFKIH
    51    54     1
SMALL
NO_CHARGES
****
Generated from CSD

@<TRIPOS>ATOM
      1 O1         6.6446   -1.4419    9.3991 O.3       1 RES1    0.0000
      2 N1         6.7914   -1.1540    7.9244 N.3       1 RES1    0.0000
      3 C1         4.4312   -0.5219    8.7832 C.ar      1 RES1    0.0000
      4 C2         3.6752    0.3181    8.0025 C.ar      1 RES1    0.0000
      5 C3         2.2895    0.2235    8.0047 C.ar      1 RES1    0.0000
      6 C4         1.6740   -0.6789    8.8158 C.ar      1 RES1    0.0000
      7 C5         2.4221   -1.4970    9.6204 C.ar      1 RES1    0.0000
      8 C6         3.8043   -1.4419    9.5943 C.ar      1 RES1    0.0000
      9 C7         6.4324    1.0001    9.0782 C.ar      1 RES1    0.0000
     10 C8         5.8523    1.7216   10.1061 C.ar      1 RES1    0.0000
     11 C9         6.2688    2.9878   10.4293 C.ar      1 RES1    0.0000
     12 C10        7.2946    3.5461    9.7158 C.ar      1 RES1    0.0000
     13 C11        7.8809    2.8495    8.7052 C.ar      1 RES1    0.0000
     14 C12        7.4458    1.5636    8.3820 C.ar      1 RES1    0.0000
     15 C13        5.9752   -1.7133    5.7319 C.ar      1 RES1    0.0000
     16 C14        7.0116   -1.0895    5.0184 C.ar      1 RES1    0.0000
     17 C15        6.7295   -0.5666    3.7540 C.ar      1 RES1    0.0000
     18 C16        5.4906   -0.6456    3.1620 C.ar      1 RES1    0.0000
     19 C17        4.4967   -1.3161    3.8668 C.ar      1 RES1    0.0000
     20 C18        4.7124   -1.8422    5.1246 C.ar      1 RES1    0.0000
     21 C19        6.1698   -2.2362    7.1394 C.3       1 RES1    0.0000
     22 C20        7.0603   -3.4806    7.2304 C.3       1 RES1    0.0000
     23 C21        5.9363   -0.3774    8.7832 C.3       1 RES1    0.0000
     24 C22        8.4327   -0.9887    5.4998 C.3       1 RES1    0.0000
     25 C23        5.2165   -0.0645    1.8065 C.3       1 RES1    0.0000
     26 C24        3.5575   -2.5928    5.7774 C.3       1 RES1    0.0000
     27 H1         4.1651    0.9668    7.4170 H         1 RES1    0.0000
     28 H2         1.8393    0.8941    7.4386 H         1 RES1    0.0000
     29 H3         0.6544   -0.7173    8.7615 H         1 RES1    0.0000
     30 H4         2.1312   -2.2040   10.2146 H         1 RES1    0.0000
     31 H5         4.4834   -2.0792   10.1929 H         1 RES1    0.0000
     32 H6         5.2970    1.1851   10.6266 H         1 RES1    0.0000
     33 H7         6.0663    3.3579   11.3640 H         1 RES1    0.0000
     34 H8         7.6757    4.5638   10.0411 H         1 RES1    0.0000
     35 H9         8.4981    3.1916    8.1543 H         1 RES1    0.0000
     36 H10        7.8968    1.0604    7.6772 H         1 RES1    0.0000
     37 H11        7.3662   -0.1663    3.3181 H         1 RES1    0.0000
     38 H12        3.5284   -1.3099    3.4699 H         1 RES1    0.0000
     39 H13        5.2351   -2.4119    7.4820 H         1 RES1    0.0000
     40 H14        7.0921   -3.7322    8.1109 H         1 RES1    0.0000
     41 H15        7.9675   -3.1812    6.9832 H         1 RES1    0.0000
     42 H16        6.7207   -4.1272    6.6145 H         1 RES1    0.0000
     43 H17        8.5954   -0.9564    6.5712 H         1 RES1    0.0000
     44 H18        8.6308   -0.0208    5.0748 H         1 RES1    0.0000
     45 H19        9.0906   -1.7153    5.0531 H         1 RES1    0.0000
     46 H20        6.0044    0.6238    1.5398 H         1 RES1    0.0000
     47 H21        4.2623    0.4262    1.7133 H         1 RES1    0.0000
     48 H22        5.2616   -0.9252    1.1494 H         1 RES1    0.0000
     49 H23        2.7325   -2.6614    5.0748 H         1 RES1    0.0000
     50 H24        3.2365   -2.0792    6.6796 H         1 RES1    0.0000
     51 H25        3.8909   -3.5866    6.0290 H         1 RES1    0.0000
@<TRIPOS>BOND
     1    1    2 1
     2    2   21 1
     3    3    4 ar
     4    4    5 ar
     5    5    6 ar
     6    6    7 ar
     7    7    8 ar
     8    8    3 ar
     9    9   10 ar
    10   10   11 ar
    11   11   12 ar
    12   12   13 ar
    13   13   14 ar
    14   14    9 ar
    15   15   16 ar
    16   16   17 ar
    17   17   18 ar
    18   18   19 ar
    19   19   20 ar
    20   20   15 ar
    21   21   15 1
    22   22   21 1
    23   23    1 1
    24   24   16 1
    25   25   18 1
    26   26   20 1
    27   27    4 1
    28   28    5 1
    29   29    6 1
    30   30    7 1
    31   31    8 1
    32   32   10 1
    33   33   11 1
    34   34   12 1
    35   35   13 1
    36   36   14 1
    37   37   17 1
    38   38   19 1
    39   39   21 1
    40   40   22 1
    41   41   22 1
    42   42   22 1
    43   43   24 1
    44   44   24 1
    45   45   24 1
    46   46   25 1
    47   47   25 1
    48   48   25 1
    49   49   26 1
    50   50   26 1
    51   51   26 1
    52    2   23 1
    53    3   23 1
    54    9   23 1
@<TRIPOS>SUBSTRUCTURE
     1 RES1 1

@<TRIPOS>CRYSIN
   8.8430   10.3960   21.6870  90.0000  90.0000  90.0000  19 1

