# MOL2 file generated by ConQuest
# Please check atom types

@<TRIPOS>MOLECULE
CEGJUV
    52    54     1
SMALL
NO_CHARGES
****
Generated from CSD

@<TRIPOS>ATOM
      1 O1        -1.2156    8.5148    8.0224 O.2       1 RES1    0.0000
      2 O2         0.0363    8.7573    9.7786 O.2       1 RES1    0.0000
      3 O3         4.2405    6.5257   10.0870 O.2       1 RES1    0.0000
      4 O4         5.0605    5.4885    8.3715 O.2       1 RES1    0.0000
      5 O5         0.3818    4.6054    4.9513 O.2       1 RES1    0.0000
      6 N1        -0.1870    8.2987    8.6612 N.pl3     1 RES1    0.0000
      7 N2         4.1791    6.1300    8.9310 N.pl3     1 RES1    0.0000
      8 N3         2.0976    5.6183    3.8396 N.am      1 RES1    0.0000
      9 C1         0.8504    7.4564    8.0481 C.ar      1 RES1    0.0000
     10 C2         2.0214    7.2549    8.7576 C.ar      1 RES1    0.0000
     11 H1         2.1642    7.6498    9.6098 H         1 RES1    0.0000
     12 C3         2.9679    6.4514    8.1635 C.ar      1 RES1    0.0000
     13 C4         2.8097    5.8994    6.8960 C.ar      1 RES1    0.0000
     14 H2         3.4967    5.3695    6.5068 H         1 RES1    0.0000
     15 C5         1.6213    6.1420    6.2112 C.ar      1 RES1    0.0000
     16 C6         0.6151    6.8970    6.8007 C.ar      1 RES1    0.0000
     17 H3        -0.2155    7.0280    6.3586 H         1 RES1    0.0000
     18 C7         1.3182    5.4025    4.9184 C.2       1 RES1    0.0000
     19 C8         2.0210    4.6825    2.6858 C.3       1 RES1    0.0000
     20 H4         2.7081    4.9830    2.0251 H         1 RES1    0.0000
     21 C9         2.4053    3.2635    3.1058 C.3       1 RES1    0.0000
     22 H5         1.7676    2.9380    3.7902 H         1 RES1    0.0000
     23 H6         3.3093    3.2728    3.5083 H         1 RES1    0.0000
     24 C10        2.3917    2.3155    1.9041 C.3       1 RES1    0.0000
     25 H7         3.0930    2.5874    1.2610 H         1 RES1    0.0000
     26 H8         2.5935    1.3945    2.2067 H         1 RES1    0.0000
     27 C11        1.0333    2.3372    1.2142 C.3       1 RES1    0.0000
     28 H9         1.0535    1.7397    0.4257 H         1 RES1    0.0000
     29 H10        0.3412    2.0010    1.8363 H         1 RES1    0.0000
     30 C12        0.6776    3.7498    0.7726 C.3       1 RES1    0.0000
     31 H11       -0.2152    3.7446    0.3443 H         1 RES1    0.0000
     32 H12        1.3368    4.0601    0.1017 H         1 RES1    0.0000
     33 C13        0.6660    4.7213    1.9626 C.3       1 RES1    0.0000
     34 H13        0.4861    5.6405    1.6416 H         1 RES1    0.0000
     35 H14       -0.0552    4.4685    2.5917 H         1 RES1    0.0000
     36 C14        3.0444    6.7560    3.7460 C.3       1 RES1    0.0000
     37 H15        2.9212    7.3132    4.5674 H         1 RES1    0.0000
     38 C15        2.7338    7.6536    2.5347 C.3       1 RES1    0.0000
     39 H16        2.8276    7.1288    1.7011 H         1 RES1    0.0000
     40 H17        1.7996    7.9764    2.5917 H         1 RES1    0.0000
     41 C16        3.6907    8.8542    2.4967 C.3       1 RES1    0.0000
     42 H18        3.5206    9.3813    1.6765 H         1 RES1    0.0000
     43 H19        3.5143    9.4380    3.2759 H         1 RES1    0.0000
     44 C17        5.1521    8.4134    2.5183 C.3       1 RES1    0.0000
     45 H20        5.7364    9.2114    2.5626 H         1 RES1    0.0000
     46 H21        5.3619    7.9250    1.6837 H         1 RES1    0.0000
     47 C18        5.4295    7.5111    3.7207 C.3       1 RES1    0.0000
     48 H22        5.2995    8.0270    4.5558 H         1 RES1    0.0000
     49 H23        6.3707    7.2064    3.6928 H         1 RES1    0.0000
     50 C19        4.5009    6.2924    3.7267 C.3       1 RES1    0.0000
     51 H24        4.6660    5.7425    2.9200 H         1 RES1    0.0000
     52 H25        4.6848    5.7361    4.5238 H         1 RES1    0.0000
@<TRIPOS>BOND
     1    1    6 2
     2    2    6 2
     3    3    7 2
     4    4    7 2
     5    5   18 2
     6    6    9 1
     7    7   12 1
     8    8   18 1
     9    9   10 ar
    10   10   11 1
    11   12   10 ar
    12   13   12 ar
    13   14   13 1
    14   15   13 ar
    15   16    9 ar
    16   17   16 1
    17   18   15 1
    18   19    8 1
    19   20   19 1
    20   21   19 1
    21   22   21 1
    22   23   21 1
    23   24   21 1
    24   25   24 1
    25   26   24 1
    26   27   24 1
    27   28   27 1
    28   29   27 1
    29   30   27 1
    30   31   30 1
    31   32   30 1
    32   33   19 1
    33   34   33 1
    34   35   33 1
    35   36    8 1
    36   37   36 1
    37   38   36 1
    38   39   38 1
    39   40   38 1
    40   41   38 1
    41   42   41 1
    42   43   41 1
    43   44   41 1
    44   45   44 1
    45   46   44 1
    46   47   44 1
    47   48   47 1
    48   49   47 1
    49   50   36 1
    50   51   50 1
    51   52   50 1
    52   15   16 ar
    53   30   33 1
    54   47   50 1
@<TRIPOS>SUBSTRUCTURE
     1 RES1 1

@<TRIPOS>CRYSIN
   6.8187    9.7877   14.7423  92.5120  98.8980  99.7040   2 1

