# MOL2 file generated by ConQuest
# Please check atom types

@<TRIPOS>MOLECULE
CEGKIK
    31    33     1
SMALL
USER_CHARGES
****
Generated from CSD

@<TRIPOS>ATOM
      1 O1         1.2485    5.4339    3.5084 O.3       1 RES1    0.0000
      2 O2         1.3741    7.1756    4.9816 O.2       1 RES1   -1.0000
      3 N1         1.9905    6.5306    4.1204 N.pl3     1 RES1    1.0000
      4 C1         3.1973    6.6071    3.6078 C.2       1 RES1    0.0000
      5 C2         4.3302    5.2095    1.7425 C.ar      1 RES1    0.0000
      6 C3         4.1067    4.1649    0.8695 C.ar      1 RES1    0.0000
      7 C4         2.8777    3.5042    0.9049 C.ar      1 RES1    0.0000
      8 C5         1.8764    3.8415    1.7674 C.ar      1 RES1    0.0000
      9 C6         2.1183    4.9047    2.6022 C.ar      1 RES1    0.0000
     10 C7         3.3242    5.5890    2.6207 C.ar      1 RES1    0.0000
     11 C8         4.1549    7.6453    4.0610 C.3       1 RES1    0.0000
     12 C9         4.2226    8.8214    3.1178 C.ar      1 RES1    0.0000
     13 C10        3.1193    9.6389    2.9338 C.ar      1 RES1    0.0000
     14 C11        3.1851   10.7257    2.0850 C.ar      1 RES1    0.0000
     15 C12        4.3414   11.0035    1.4231 C.ar      1 RES1    0.0000
     16 C13        5.4426   10.2085    1.6004 C.ar      1 RES1    0.0000
     17 C14        5.3790    9.1180    2.4476 C.ar      1 RES1    0.0000
     18 C15        5.1516    3.7392   -0.1121 C.3       1 RES1    0.0000
     19 H1         5.1464    5.6555    1.7430 H         1 RES1    0.0000
     20 H2         2.7345    2.8020    0.3119 H         1 RES1    0.0000
     21 H3         1.0717    3.3754    1.7897 H         1 RES1    0.0000
     22 H4         5.0373    7.2501    4.1399 H         1 RES1    0.0000
     23 H5         3.8908    7.9581    4.9405 H         1 RES1    0.0000
     24 H6         2.3278    9.4539    3.3860 H         1 RES1    0.0000
     25 H7         2.4391   11.2684    1.9649 H         1 RES1    0.0000
     26 H8         4.3846   11.7341    0.8490 H         1 RES1    0.0000
     27 H9         6.2329   10.4021    1.1509 H         1 RES1    0.0000
     28 H10        6.1296    8.5809    2.5637 H         1 RES1    0.0000
     29 H11        4.8193    3.0062   -0.6355 H         1 RES1    0.0000
     30 H12        5.9407    3.4640    0.3603 H         1 RES1    0.0000
     31 H13        5.3649    4.4739   -0.6922 H         1 RES1    0.0000
@<TRIPOS>BOND
     1    1    3 1
     2    2    3 1
     3    3    4 2
     4    4   10 1
     5    5    6 ar
     6    6    7 ar
     7    7    8 ar
     8    8    9 ar
     9    9    1 1
    10   10    5 ar
    11   11    4 1
    12   12   11 1
    13   13   12 ar
    14   14   13 ar
    15   15   14 ar
    16   16   15 ar
    17   17   12 ar
    18   18    6 1
    19   19    5 1
    20   20    7 1
    21   21    8 1
    22   22   11 1
    23   23   11 1
    24   24   13 1
    25   25   14 1
    26   26   15 1
    27   27   16 1
    28   28   17 1
    29   29   18 1
    30   30   18 1
    31   31   18 1
    32    9   10 ar
    33   16   17 ar
@<TRIPOS>SUBSTRUCTURE
     1 RES1 1

@<TRIPOS>CRYSIN
   6.4527   11.2213   16.9371  90.0000 100.0020  90.0000 231 1

