# MOL2 file generated by ConQuest
# Please check atom types

@<TRIPOS>MOLECULE
CEGWIU
    21    22     1
SMALL
NO_CHARGES
****
Generated from CSD

@<TRIPOS>ATOM
      1 C1         0.4202    1.9921    9.5252 C.2       1 RES1    0.0000
      2 C2        -0.8635    2.2241   10.2099 C.ar      1 RES1    0.0000
      3 C3        -1.4167    3.4963   10.2766 C.ar      1 RES1    0.0000
      4 C4        -2.6161    3.7255   10.9266 C.ar      1 RES1    0.0000
      5 C5        -3.2970    2.6872   11.4852 C.ar      1 RES1    0.0000
      6 C6        -2.7852    1.4090   11.4333 C.ar      1 RES1    0.0000
      7 C7        -1.5741    1.1905   10.8055 C.ar      1 RES1    0.0000
      8 C8         0.7480    2.5780    8.3809 C.2       1 RES1    0.0000
      9 C9         2.0030    2.5270    7.6246 C.ar      1 RES1    0.0000
     10 C10        3.2550    2.3688    8.2450 C.ar      1 RES1    0.0000
     11 C11        4.4114    2.3548    7.5184 C.ar      1 RES1    0.0000
     12 C12        4.3398    2.4781    6.1417 C.ar      1 RES1    0.0000
     13 C13        3.1420    2.6423    5.4893 C.ar      1 RES1    0.0000
     14 C14        1.9889    2.6792    6.2307 C.ar      1 RES1    0.0000
     15 N1         5.5802    2.4694    5.3607 N.pl3     1 RES1    0.0000
     16 O1         6.6465    2.4225    5.9490 O.2       1 RES1    0.0000
     17 O2         5.5007    2.5183    4.1398 O.2       1 RES1    0.0000
     18 C15        1.3458    1.0289   10.2247 C.2       1 RES1    0.0000
     19 O3         1.7903    1.2300   11.3245 O.2       1 RES1    0.0000
     20 O4         1.5833   -0.0603    9.4956 O.3       1 RES1    0.0000
     21 C16        2.5414   -1.0001   10.0418 C.3       1 RES1    0.0000
@<TRIPOS>BOND
     1    1    2 1
     2    2    3 ar
     3    3    4 ar
     4    4    5 ar
     5    5    6 ar
     6    6    7 ar
     7    7    2 ar
     8    8    1 2
     9    9    8 1
    10   10    9 ar
    11   11   10 ar
    12   12   11 ar
    13   13   12 ar
    14   14    9 ar
    15   15   12 1
    16   16   15 2
    17   17   15 2
    18   18    1 1
    19   19   18 2
    20   20   18 1
    21   21   20 1
    22   13   14 ar
@<TRIPOS>SUBSTRUCTURE
     1 RES1 1

@<TRIPOS>CRYSIN
   8.2960    6.7030   24.8630  90.0000  96.2500  90.0000 231 1

