# MOL2 file generated by ConQuest
# Please check atom types

@<TRIPOS>MOLECULE
CEGWUG
    21    22     1
SMALL
NO_CHARGES
****
Generated from CSD

@<TRIPOS>ATOM
      1 C1        -0.8780    0.5415    1.9894 C.2       1 RES1    0.0000
      2 C2        -0.7995   -0.5614    3.0180 C.ar      1 RES1    0.0000
      3 C3        -1.8475   -0.7707    3.8784 C.ar      1 RES1    0.0000
      4 C4        -1.7806   -1.7706    4.8361 C.ar      1 RES1    0.0000
      5 C5        -0.6547   -2.5546    4.9395 C.ar      1 RES1    0.0000
      6 C6         0.3882   -2.3570    4.0776 C.ar      1 RES1    0.0000
      7 C7         0.3363   -1.3653    3.1213 C.ar      1 RES1    0.0000
      8 C8        -1.7422    0.5614    0.9740 C.2       1 RES1    0.0000
      9 C9        -2.6934   -0.4285    0.4900 C.ar      1 RES1    0.0000
     10 C10       -2.6086   -1.7989    0.7408 C.ar      1 RES1    0.0000
     11 C11       -3.5419   -2.6908    0.2479 C.ar      1 RES1    0.0000
     12 C12       -4.5555   -2.1809   -0.5269 C.ar      1 RES1    0.0000
     13 C13       -4.6659   -0.8704   -0.8471 C.ar      1 RES1    0.0000
     14 C14       -3.7354    0.0116   -0.3394 C.ar      1 RES1    0.0000
     15 N1        -5.5658   -3.1360   -1.0552 N.pl3     1 RES1    0.0000
     16 O1        -6.3399   -2.7290   -1.8979 O.2       1 RES1    0.0000
     17 O2        -5.5856   -4.2738   -0.6169 O.2       1 RES1    0.0000
     18 C15        0.0243    1.7142    2.1222 C.2       1 RES1    0.0000
     19 O3         0.0056    2.6642    1.4197 O.2       1 RES1    0.0000
     20 O4         0.9248    1.5746    3.0814 O.3       1 RES1    0.0000
     21 C16        1.8130    2.7124    3.2851 C.3       1 RES1    0.0000
@<TRIPOS>BOND
     1    1    2 1
     2    2    3 ar
     3    3    4 ar
     4    4    5 ar
     5    5    6 ar
     6    6    7 ar
     7    7    2 ar
     8    8    1 2
     9    9    8 1
    10   10    9 ar
    11   11   10 ar
    12   12   11 ar
    13   13   12 ar
    14   14    9 ar
    15   15   12 1
    16   16   15 2
    17   17   15 2
    18   18    1 1
    19   19   18 2
    20   20   18 1
    21   21   20 1
    22   13   14 ar
@<TRIPOS>SUBSTRUCTURE
     1 RES1 1

@<TRIPOS>CRYSIN
   5.8190   16.6100   14.8430  90.0000  96.1400  90.0000   9 1

