# MOL2 file generated by ConQuest
# Please check atom types

@<TRIPOS>MOLECULE
CEGWAO
    41    43     1
SMALL
NO_CHARGES
****
Generated from CSD

@<TRIPOS>ATOM
      1 O1         6.6186   18.1532   10.6481 O.2       1 RES1    0.0000
      2 O2         8.4251   17.0366   10.5187 O.2       1 RES1    0.0000
      3 N1         6.1621   20.6690    6.4346 N.2       1 RES1    0.0000
      4 N2         7.6111   17.8067   10.0510 N.pl3     1 RES1    0.0000
      5 C1         3.1270   23.1665    1.9040 C.ar      1 RES1    0.0000
      6 H1         3.7419   22.9026    1.2581 H         1 RES1    0.0000
      7 C2         2.1657   24.1007    1.5861 C.ar      1 RES1    0.0000
      8 H2         2.1523   24.4775    0.7354 H         1 RES1    0.0000
      9 C3         1.2250   24.4819    2.5173 C.ar      1 RES1    0.0000
     10 H3         0.5661   25.0984    2.2920 H         1 RES1    0.0000
     11 C4         1.2665   23.9414    3.7894 C.ar      1 RES1    0.0000
     12 H4         0.6373   24.1991    4.4240 H         1 RES1    0.0000
     13 C5         2.2392   23.0211    4.1186 C.ar      1 RES1    0.0000
     14 H5         2.2618   22.6675    4.9781 H         1 RES1    0.0000
     15 C6         3.1889   22.6116    3.1853 C.ar      1 RES1    0.0000
     16 C7         5.8372   20.7600    1.7993 C.ar      1 RES1    0.0000
     17 H6         6.4529   21.4007    2.0716 H         1 RES1    0.0000
     18 C8         6.1427   19.9043    0.7446 C.ar      1 RES1    0.0000
     19 H7         6.9585   19.9856    0.3060 H         1 RES1    0.0000
     20 C9         5.2501   18.9434    0.3490 C.ar      1 RES1    0.0000
     21 H8         5.4613   18.3741   -0.3551 H         1 RES1    0.0000
     22 C10        4.0468   18.8204    0.9910 C.ar      1 RES1    0.0000
     23 H9         3.4442   18.1619    0.7304 H         1 RES1    0.0000
     24 C11        3.7277   19.6809    2.0322 C.ar      1 RES1    0.0000
     25 H10        2.9053   19.5998    2.4595 H         1 RES1    0.0000
     26 C12        4.6174   20.6569    2.4431 C.ar      1 RES1    0.0000
     27 C13        4.2318   21.6114    3.5294 C.2       1 RES1    0.0000
     28 C14        4.7846   21.5831    4.7515 C.2       1 RES1    0.0000
     29 H11        4.5304   22.2521    5.3458 H         1 RES1    0.0000
     30 C15        5.7386   20.6098    5.2273 C.2       1 RES1    0.0000
     31 H12        6.0452   19.9422    4.6582 H         1 RES1    0.0000
     32 C16        7.1032   19.7276    6.9003 C.ar      1 RES1    0.0000
     33 C17        6.9216   19.2303    8.1910 C.ar      1 RES1    0.0000
     34 H13        6.1820   19.4834    8.6943 H         1 RES1    0.0000
     35 C18        7.8512   18.3623    8.7067 C.ar      1 RES1    0.0000
     36 C19        8.9890   17.9891    8.0264 C.ar      1 RES1    0.0000
     37 H14        9.6124   17.4155    8.4097 H         1 RES1    0.0000
     38 C20        9.1713   18.4949    6.7554 C.ar      1 RES1    0.0000
     39 H15        9.9321   18.2646    6.2727 H         1 RES1    0.0000
     40 C21        8.2346   19.3421    6.1930 C.ar      1 RES1    0.0000
     41 H16        8.3642   19.6592    5.3282 H         1 RES1    0.0000
@<TRIPOS>BOND
     1    1    4 2
     2    2    4 2
     3    3   30 2
     4    4   35 1
     5    5    6 1
     6    7    5 ar
     7    8    7 1
     8    9    7 ar
     9   10    9 1
    10   11    9 ar
    11   12   11 1
    12   13   11 ar
    13   14   13 1
    14   15    5 ar
    15   16   17 1
    16   18   16 ar
    17   19   18 1
    18   20   18 ar
    19   21   20 1
    20   22   20 ar
    21   23   22 1
    22   24   22 ar
    23   25   24 1
    24   26   16 ar
    25   27   15 1
    26   28   27 2
    27   29   28 1
    28   30   28 1
    29   31   30 1
    30   32    3 1
    31   33   32 ar
    32   34   33 1
    33   35   33 ar
    34   36   35 ar
    35   37   36 1
    36   38   36 ar
    37   39   38 1
    38   40   32 ar
    39   41   40 1
    40   13   15 ar
    41   24   26 ar
    42   26   27 1
    43   38   40 ar
@<TRIPOS>SUBSTRUCTURE
     1 RES1 1

@<TRIPOS>CRYSIN
   5.8625   22.8250   12.6370  90.0000  94.7720  90.0000 231 1

