# MOL2 file generated by ConQuest
# Please check atom types

@<TRIPOS>MOLECULE
CEGWIV
    68    52     2
SMALL
NO_CHARGES
****
Generated from CSD

@<TRIPOS>ATOM
      1 O1         6.0497    2.1856    1.2851 O.3       1 RES1    0.0000
      2 C1         6.6276    1.5682    3.4902 C.3       1 RES1    0.0000
      3 H1         6.6948    2.2809    4.1957 H         1 RES1    0.0000
      4 C2         7.1402    2.2255    2.1849 C.3       1 RES1    0.0000
      5 H2         7.7915    1.6111    1.7094 H         1 RES1    0.0000
      6 C3         7.6852    3.6220    2.3916 C.ar      1 RES1    0.0000
      7 C4         8.7632    3.8300    3.2167 C.ar      1 RES1    0.0000
      8 H3         9.2517    3.0134    3.5508 H         1 RES1    0.0000
      9 C5         9.3385    5.0798    3.3682 C.ar      1 RES1    0.0000
     10 H4        10.1308    5.2336    3.9782 H         1 RES1    0.0000
     11 C6         8.7776    6.1600    2.6860 C.ar      1 RES1    0.0000
     12 H5         9.2304    7.0485    2.8205 H         1 RES1    0.0000
     13 C7         7.6858    5.9728    1.8834 C.ar      1 RES1    0.0000
     14 H6         7.4451    6.8637    1.4763 H         1 RES1    0.0000
     15 C8         7.1387    4.7175    1.7311 C.ar      1 RES1    0.0000
     16 H7         6.3386    4.5814    1.1189 H         1 RES1    0.0000
     17 C9         7.5060    0.3962    3.9183 C.2       1 RES1    0.0000
     18 O2         8.2724   -0.1505    3.1219 O.2       1 RES1    0.0000
     19 C10        4.9671   -0.2338    2.7552 C.3       1 RES1    0.0000
     20 H8         4.9689   -0.7779    3.5586 H         1 RES1    0.0000
     21 H9         5.6910   -0.5381    2.1864 H         1 RES1    0.0000
     22 C11        3.6571   -0.4205    2.0334 C.3       1 RES1    0.0000
     23 H10        3.5780   -1.3410    1.7389 H         1 RES1    0.0000
     24 H11        2.9237   -0.2353    2.6410 H         1 RES1    0.0000
     25 N1         7.4066   -0.0626    5.1786 N.am      1 RES1    0.0000
     26 C12        6.2377    0.3312    6.0924 C.3       1 RES1    0.0000
     27 H12        5.8370    1.1639    5.7971 H         1 RES1    0.0000
     28 H13        5.5561   -0.3589    6.0931 H         1 RES1    0.0000
     29 C13        6.8360    0.4850    7.4568 C.3       1 RES1    0.0000
     30 H14        6.1353    0.7086    8.0892 H         1 RES1    0.0000
     31 H15        7.4721    1.2175    7.4451 H         1 RES1    0.0000
     32 C14        7.5468   -0.7961    7.9191 C.3       1 RES1    0.0000
     33 H16        8.0315   -0.6186    8.7403 H         1 RES1    0.0000
     34 H17        6.8874   -1.4840    8.1017 H         1 RES1    0.0000
     35 C15        8.5049   -1.2845    6.8639 C.3       1 RES1    0.0000
     36 H18        9.2519   -0.6690    6.8111 H         1 RES1    0.0000
     37 H19        8.8522   -2.1493    7.1335 H         1 RES1    0.0000
     38 C16        7.8853   -1.4134    5.5050 C.3       1 RES1    0.0000
     39 H20        8.5407   -1.7123    4.8554 H         1 RES1    0.0000
     40 H21        7.1493   -2.0448    5.5205 H         1 RES1    0.0000
     41 C17        5.1950    1.1722    3.1219 C.3       1 RES1    0.0000
     42 H22        4.6108    1.3927    3.9160 H         1 RES1    0.0000
     43 C18        3.5704    0.4776    0.8687 C.3       1 RES1    0.0000
     44 H23        2.7106    0.3683    0.4320 H         1 RES1    0.0000
     45 H24        4.2659    0.2560    0.2300 H         1 RES1    0.0000
     46 N2         4.8599    2.2343    2.1787 N.3       1 RES1    0.0000
     47 C19        3.7318    1.8965    1.3209 C.3       1 RES1    0.0000
     48 H25        3.7863    2.4534    0.5299 H         1 RES1    0.0000
     49 H26        2.9203    2.1490    1.7910 H         1 RES1    0.0000
     50 C20        6.9336    0.7751    6.3332 Du        2 SUP2    0.0000
     51 H27        6.3531    1.4897    6.0286 Du        2 SUP2    0.0000
     52 H28        7.6841    1.1608    6.8119 Du        2 SUP2    0.0000
     53 C21        6.1820   -0.1980    7.2035 Du        2 SUP2    0.0000
     54 H29        5.4469   -0.5811    6.6984 Du        2 SUP2    0.0000
     55 H30        5.8097    0.2730    7.9649 Du        2 SUP2    0.0000
     56 C22        7.1018   -1.3215    7.6976 Du        2 SUP2    0.0000
     57 H31        7.7752   -0.9547    8.2920 Du        2 SUP2    0.0000
     58 H32        6.5839   -1.9742    8.1926 Du        2 SUP2    0.0000
     59 C23        7.7742   -1.9917    6.5135 Du        2 SUP2    0.0000
     60 H33        8.3904   -2.6700    6.8328 Du        2 SUP2    0.0000
     61 H34        7.1046   -2.4289    5.9649 Du        2 SUP2    0.0000
     62 C24        8.5244   -0.9793    5.6829 Du        2 SUP2    0.0000
     63 H35        8.9880   -1.4047    4.9455 Du        2 SUP2    0.0000
     64 H36        9.1650   -0.4884    6.2213 Du        2 SUP2    0.0000
     65 N3         4.9054    1.4500    1.7187 Du        2 SUP2    0.0000
     66 C25        3.6250    1.9255    1.2043 Du        2 SUP2    0.0000
     67 H37        3.6812    2.5281    0.4413 Du        2 SUP2    0.0000
     68 H38        2.9918    2.2289    1.8694 Du        2 SUP2    0.0000
@<TRIPOS>BOND
     1    1    4 1
     2    2    3 1
     3    4    2 1
     4    5    4 1
     5    6    4 1
     6    7    6 ar
     7    8    7 1
     8    9    7 ar
     9   10    9 1
    10   11    9 ar
    11   12   11 1
    12   13   11 ar
    13   14   13 1
    14   15    6 ar
    15   16   15 1
    16   17    2 1
    17   18   17 2
    18   19   20 1
    19   21   19 1
    20   22   19 1
    21   23   22 1
    22   24   22 1
    23   25   17 1
    24   26   25 1
    25   27   26 1
    26   28   26 1
    27   29   26 1
    28   30   29 1
    29   31   29 1
    30   32   29 1
    31   33   32 1
    32   34   32 1
    33   35   32 1
    34   36   35 1
    35   37   35 1
    36   38   25 1
    37   39   38 1
    38   40   38 1
    39   41    2 1
    40   42   41 1
    41   43   22 1
    42   44   43 1
    43   45   43 1
    44   46    1 1
    45   47   43 1
    46   48   47 1
    47   49   47 1
    48   13   15 ar
    49   19   41 1
    50   35   38 1
    51   41   46 1
    52   46   47 1
@<TRIPOS>SUBSTRUCTURE
     1 RES1 1
     2 SUP2 50

@<TRIPOS>CRYSIN
  11.1650   10.0060    9.2630 117.4300 112.1900  78.2800   2 1

