# MOL2 file generated by ConQuest
# Please check atom types

@<TRIPOS>MOLECULE
CEGWOA
    42    44     2
SMALL
NO_CHARGES
****
Generated from CSD

@<TRIPOS>ATOM
      1 C1         3.6567    5.3277    7.1765 C.2       1 RES1    0.0000
      2 C2         5.1133    5.3800    6.9587 C.ar      1 RES1    0.0000
      3 C3         5.9058    6.4091    7.4832 C.ar      1 RES1    0.0000
      4 C4         7.2526    6.4708    7.2615 C.ar      1 RES1    0.0000
      5 C5         7.8545    5.5103    6.4957 C.ar      1 RES1    0.0000
      6 C6         7.1303    4.4654    5.9848 C.ar      1 RES1    0.0000
      7 C7         5.7786    4.4119    6.2134 C.ar      1 RES1    0.0000
      8 C8         2.8638    4.3659    6.6578 C.2       1 RES1    0.0000
      9 C9         1.4027    4.2542    6.7184 C.ar      1 RES1    0.0000
     10 C10        0.8205    3.0020    6.8473 C.ar      1 RES1    0.0000
     11 C11       -0.5482    2.8629    6.9372 C.ar      1 RES1    0.0000
     12 C12       -1.3659    3.9599    6.8796 C.ar      1 RES1    0.0000
     13 C13       -0.8131    5.2078    6.7116 C.ar      1 RES1    0.0000
     14 C14        0.5578    5.3562    6.6295 C.ar      1 RES1    0.0000
     15 N1         9.2863    5.6045    6.1890 N.pl3     1 RES1    0.0000
     16 O1         9.8930    6.5873    6.5572 O.2       1 RES1    0.0000
     17 O2         9.8023    4.7159    5.5511 O.2       1 RES1    0.0000
     18 C15        3.0408    6.4181    8.0009 C.2       1 RES1    0.0000
     19 O3         3.0772    7.5931    7.7421 O.2       1 RES1    0.0000
     20 O4         2.4485    5.9133    9.0754 O.3       1 RES1    0.0000
     21 C16        1.6509    6.8239    9.8744 C.3       1 RES1    0.0000
     22 C17        4.3399    1.4926    2.2203 C.2       2 RES2    0.0000
     23 C18        5.7410    1.4484    1.7524 C.ar      2 RES2    0.0000
     24 C19        6.7348    0.8158    2.4996 C.ar      2 RES2    0.0000
     25 C20        8.0322    0.7343    2.0620 C.ar      2 RES2    0.0000
     26 C21        8.3638    1.2930    0.8488 C.ar      2 RES2    0.0000
     27 C22        7.4183    1.9443    0.0860 C.ar      2 RES2    0.0000
     28 C23        6.1277    2.0190    0.5382 C.ar      2 RES2    0.0000
     29 C24        3.3066    1.7935    1.4076 C.2       2 RES2    0.0000
     30 C25        1.8890    1.9542    1.7201 C.ar      2 RES2    0.0000
     31 C26        0.9602    1.6845    0.7179 C.ar      2 RES2    0.0000
     32 C27       -0.3871    1.8440    0.9289 C.ar      2 RES2    0.0000
     33 C28       -0.8496    2.3003    2.1431 C.ar      2 RES2    0.0000
     34 C29        0.0597    2.5976    3.1424 C.ar      2 RES2    0.0000
     35 C30        1.4085    2.4277    2.9411 C.ar      2 RES2    0.0000
     36 N2         9.7440    1.1944    0.3604 N.pl3     2 RES2    0.0000
     37 O5        10.5496    0.5785    1.0374 O.2       2 RES2    0.0000
     38 O6        10.0153    1.7139   -0.7092 O.2       2 RES2    0.0000
     39 C31        4.1119    1.1593    3.6610 C.2       2 RES2    0.0000
     40 O7         4.5842    1.7658    4.5861 O.2       2 RES2    0.0000
     41 O8         3.3405    0.0924    3.7997 O.3       2 RES2    0.0000
     42 C32        2.9844   -0.2792    5.1526 C.3       2 RES2    0.0000
@<TRIPOS>BOND
     1    1    2 1
     2    2    3 ar
     3    3    4 ar
     4    4    5 ar
     5    5    6 ar
     6    6    7 ar
     7    7    2 ar
     8    8    1 2
     9    9    8 1
    10   10    9 ar
    11   11   10 ar
    12   12   11 ar
    13   13   12 ar
    14   14    9 ar
    15   15    5 1
    16   16   15 2
    17   17   15 2
    18   18    1 1
    19   19   18 2
    20   20   18 1
    21   21   20 1
    22   22   23 1
    23   23   24 ar
    24   24   25 ar
    25   25   26 ar
    26   26   27 ar
    27   27   28 ar
    28   28   23 ar
    29   29   22 2
    30   30   29 1
    31   31   30 ar
    32   32   31 ar
    33   33   32 ar
    34   34   33 ar
    35   35   30 ar
    36   36   26 1
    37   37   36 2
    38   38   36 2
    39   39   22 1
    40   40   39 2
    41   41   39 1
    42   42   41 1
    43   13   14 ar
    44   34   35 ar
@<TRIPOS>SUBSTRUCTURE
     1 RES1 1
     2 RES2 22

@<TRIPOS>CRYSIN
  14.2330   10.0480    9.9070  80.7500  92.9800  92.4800   2 1

