# MOL2 file generated by ConQuest
# Please check atom types

@<TRIPOS>MOLECULE
CEGXAN
    22    23     1
SMALL
NO_CHARGES
****
Generated from CSD

@<TRIPOS>ATOM
      1 C1         7.4803    3.4093    7.7915 C.2       1 RES1    0.0000
      2 C2         6.4829    4.5104    7.7620 C.ar      1 RES1    0.0000
      3 C3         6.1456    5.1445    6.5699 C.ar      1 RES1    0.0000
      4 C4         5.2043    6.1610    6.5631 C.ar      1 RES1    0.0000
      5 C5         4.5923    6.5566    7.7395 C.ar      1 RES1    0.0000
      6 C6         4.9252    5.9403    8.9100 C.ar      1 RES1    0.0000
      7 C7         5.8712    4.9328    8.9296 C.ar      1 RES1    0.0000
      8 C8         7.4556    2.3026    7.0330 C.2       1 RES1    0.0000
      9 C9         6.3300    2.0351    6.1019 C.ar      1 RES1    0.0000
     10 C10        6.5480    1.7542    4.7499 C.ar      1 RES1    0.0000
     11 C11        5.4979    1.5358    3.8854 C.ar      1 RES1    0.0000
     12 C12        4.2231    1.6038    4.3809 C.ar      1 RES1    0.0000
     13 C13        3.9537    1.8200    5.7036 C.ar      1 RES1    0.0000
     14 C14        5.0131    2.0395    6.5660 C.ar      1 RES1    0.0000
     15 N1         3.0740    1.4098    3.4527 N.pl3     1 RES1    0.0000
     16 O1         3.2986    1.1123    2.3087 O.2       1 RES1    0.0000
     17 O2         1.9485    1.5748    3.8913 O.2       1 RES1    0.0000
     18 C15        8.6162    3.6611    8.7324 C.2       1 RES1    0.0000
     19 O3         9.4188    4.5527    8.5617 O.2       1 RES1    0.0000
     20 O4         8.6290    2.8576    9.7833 O.3       1 RES1    0.0000
     21 C16        9.7316    3.0314   10.7026 C.3       1 RES1    0.0000
     22 C17        8.5486    1.2594    7.0556 C.3       1 RES1    0.0000
@<TRIPOS>BOND
     1    1    2 1
     2    2    3 ar
     3    3    4 ar
     4    4    5 ar
     5    5    6 ar
     6    6    7 ar
     7    7    2 ar
     8    8    1 2
     9    9    8 1
    10   10    9 ar
    11   11   10 ar
    12   12   11 ar
    13   13   12 ar
    14   14    9 ar
    15   15   12 1
    16   16   15 2
    17   17   15 2
    18   18    1 1
    19   19   18 2
    20   20   18 1
    21   21   20 1
    22   22    8 1
    23   13   14 ar
@<TRIPOS>SUBSTRUCTURE
     1 RES1 1

@<TRIPOS>CRYSIN
  13.7510   11.1450   10.9560  90.0000 116.4200  90.0000  14 2

