# MOL2 file generated by ConQuest
# Please check atom types

@<TRIPOS>MOLECULE
CEHFUS
    47    49     1
SMALL
NO_CHARGES
****
Generated from CSD

@<TRIPOS>ATOM
      1 C1         3.2657    1.6116   -1.2727 C.ar      1 RES1    0.0000
      2 C2         2.6656    1.2233   -2.4624 C.ar      1 RES1    0.0000
      3 H1         2.5843    0.3228   -2.6813 H         1 RES1    0.0000
      4 C3         2.1895    2.2071   -3.3220 C.ar      1 RES1    0.0000
      5 H2         1.7873    1.9748   -4.1277 H         1 RES1    0.0000
      6 C4         2.3189    3.5078   -2.9689 C.ar      1 RES1    0.0000
      7 H3         2.0092    4.1712   -3.5434 H         1 RES1    0.0000
      8 C5         2.8885    3.8556   -1.8004 C.ar      1 RES1    0.0000
      9 H4         2.9458    4.7584   -1.5880 H         1 RES1    0.0000
     10 C6         3.3887    2.9408   -0.9074 C.ar      1 RES1    0.0000
     11 C7         3.9416    3.4470    0.3877 C.3       1 RES1    0.0000
     12 H5         4.8042    3.0349    0.5484 H         1 RES1    0.0000
     13 H6         4.0766    4.4047    0.3244 H         1 RES1    0.0000
     14 C8         3.0373    3.1552    1.5356 C.2       1 RES1    0.0000
     15 C9         1.6125    4.5321    3.8120 C.2       1 RES1    0.0000
     16 C10        0.6574    4.3487    4.9351 C.ar      1 RES1    0.0000
     17 C11       -0.0213    5.4624    5.4047 C.ar      1 RES1    0.0000
     18 H7         0.1600    6.3021    5.0489 H         1 RES1    0.0000
     19 C12       -0.9681    5.3230    6.4055 C.ar      1 RES1    0.0000
     20 H8        -1.4109    6.0722    6.7337 H         1 RES1    0.0000
     21 C13       -1.2538    4.0843    6.9127 C.ar      1 RES1    0.0000
     22 H9        -1.8927    3.9938    7.5814 H         1 RES1    0.0000
     23 C14       -0.6093    2.9885    6.4444 C.ar      1 RES1    0.0000
     24 H10       -0.8155    2.1487    6.7856 H         1 RES1    0.0000
     25 C15        0.3476    3.1147    5.4681 C.ar      1 RES1    0.0000
     26 H11        0.7933    2.3584    5.1618 H         1 RES1    0.0000
     27 C16        3.3914    3.1147    4.8824 C.ar      1 RES1    0.0000
     28 C17        3.8445    1.8236    4.8186 C.ar      1 RES1    0.0000
     29 H12        3.6651    1.3043    4.0685 H         1 RES1    0.0000
     30 C18        4.5638    1.2983    5.8623 C.ar      1 RES1    0.0000
     31 H13        4.8828    0.4264    5.7999 H         1 RES1    0.0000
     32 C19        4.8264    2.0332    7.0032 C.ar      1 RES1    0.0000
     33 C20        4.3660    3.3256    7.0425 C.ar      1 RES1    0.0000
     34 H14        4.5287    3.8425    7.7983 H         1 RES1    0.0000
     35 C21        3.6688    3.8770    5.9866 C.ar      1 RES1    0.0000
     36 H15        3.3868    4.7620    6.0239 H         1 RES1    0.0000
     37 C22        5.5948    1.4448    8.1593 C.3       1 RES1    0.0000
     38 H16        4.9993    0.9350    8.7142 H         1 RES1    0.0000
     39 H17        5.9868    2.1535    8.6765 H         1 RES1    0.0000
     40 H18        6.2891    0.8731    7.8234 H         1 RES1    0.0000
     41 N1         3.7576    0.5372   -0.3954 N.pl3     1 RES1    0.0000
     42 N2         2.6638    3.6495    3.7758 N.am      1 RES1    0.0000
     43 O1         2.0619    2.4863    1.5450 O.2       1 RES1    0.0000
     44 O2         3.5040    3.8226    2.6334 O.3       1 RES1    0.0000
     45 O3         1.4378    5.3474    2.9302 O.2       1 RES1    0.0000
     46 O4         3.3360   -0.5622   -0.5954 O.2       1 RES1    0.0000
     47 O5         4.5407    0.7802    0.4626 O.2       1 RES1    0.0000
@<TRIPOS>BOND
     1    1    2 ar
     2    2    3 1
     3    4    2 ar
     4    5    4 1
     5    6    4 ar
     6    7    6 1
     7    8    6 ar
     8    9    8 1
     9   10    1 ar
    10   11   10 1
    11   12   11 1
    12   13   11 1
    13   14   11 1
    14   15   16 1
    15   16   17 ar
    16   17   18 1
    17   19   17 ar
    18   20   19 1
    19   21   19 ar
    20   22   21 1
    21   23   21 ar
    22   24   23 1
    23   25   16 ar
    24   26   25 1
    25   27   28 ar
    26   28   29 1
    27   30   28 ar
    28   31   30 1
    29   32   30 ar
    30   33   32 ar
    31   34   33 1
    32   35   27 ar
    33   36   35 1
    34   37   32 1
    35   38   37 1
    36   39   37 1
    37   40   37 1
    38   41    1 1
    39   42   15 1
    40   43   14 2
    41   44   14 1
    42   45   15 2
    43   46   41 2
    44   47   41 2
    45    8   10 ar
    46   23   25 ar
    47   27   42 1
    48   33   35 ar
    49   42   44 1
@<TRIPOS>SUBSTRUCTURE
     1 RES1 1

@<TRIPOS>CRYSIN
   9.2460   11.9110   17.9230  90.0000  90.0000  90.0000  19 1

