# MOL2 file generated by ConQuest
# Please check atom types

@<TRIPOS>MOLECULE
CEHHAA
   166   152     3
SMALL
NO_CHARGES
****
Generated from CSD

@<TRIPOS>ATOM
      1 O1         7.6971    0.9917    3.2284 O.3       1 RES1    0.0000
      2 H1         7.5020    0.8669    2.3879 H         1 RES1    0.0000
      3 C1         9.7338    0.7736    4.1699 C.2       1 RES1    0.0000
      4 N1         9.1009    0.9022    3.0697 N.2       1 RES1    0.0000
      5 C2        11.2243    0.6364    4.1176 C.3       1 RES1    0.0000
      6 H2        11.4288   -0.2563    4.5191 H         1 RES1    0.0000
      7 C3        11.8108    0.6002    2.7027 C.3       1 RES1    0.0000
      8 H3        11.3690   -0.1143    2.1785 H         1 RES1    0.0000
      9 H4        11.6399    1.4642    2.2513 H         1 RES1    0.0000
     10 C4        13.3077    0.3401    2.7548 C.3       1 RES1    0.0000
     11 H5        13.4748   -0.5564    3.1384 H         1 RES1    0.0000
     12 H6        13.6792    0.3553    1.8360 H         1 RES1    0.0000
     13 C5        14.0005    1.3861    3.5959 C.3       1 RES1    0.0000
     14 H7        13.9040    2.2711    3.1621 H         1 RES1    0.0000
     15 H8        14.9668    1.1765    3.6466 H         1 RES1    0.0000
     16 C6        13.4226    1.4538    5.0143 C.3       1 RES1    0.0000
     17 H9        13.8694    2.1873    5.5063 H         1 RES1    0.0000
     18 H10       13.6296    0.6068    5.4844 H         1 RES1    0.0000
     19 C7        11.8953    1.6862    5.0553 C.3       1 RES1    0.0000
     20 C8        11.3615    1.4261    6.4857 C.3       1 RES1    0.0000
     21 H11       11.5729    0.4697    6.6884 H         1 RES1    0.0000
     22 C9        12.0252    2.2530    7.5992 C.3       1 RES1    0.0000
     23 H12       13.0049    2.1216    7.5573 H         1 RES1    0.0000
     24 H13       11.8422    3.2124    7.4389 H         1 RES1    0.0000
     25 C10       11.5339    1.8786    8.9968 C.3       1 RES1    0.0000
     26 H14       11.9527    2.4836    9.6592 H         1 RES1    0.0000
     27 H15       11.8239    0.9555    9.2039 H         1 RES1    0.0000
     28 C11       10.0101    1.9682    9.1321 C.3       1 RES1    0.0000
     29 C12        9.3527    1.2318   10.3308 C.3       1 RES1    0.0000
     30 H16        9.7716    0.3249   10.3769 H         1 RES1    0.0000
     31 C13        7.8861    1.0251    9.8600 C.3       1 RES1    0.0000
     32 H17        7.5450    0.1496   10.1711 H         1 RES1    0.0000
     33 H18        7.3037    1.7386   10.2221 H         1 RES1    0.0000
     34 C14        7.9059    1.0765    8.3139 C.3       1 RES1    0.0000
     35 H19        7.4871    0.2687    7.9252 H         1 RES1    0.0000
     36 H20        7.4338    1.8796    7.9780 H         1 RES1    0.0000
     37 C15        9.3937    1.1375    7.9826 C.3       1 RES1    0.0000
     38 H21        9.7369    0.2067    8.1073 H         1 RES1    0.0000
     39 C16        9.8306    1.5538    6.5835 C.3       1 RES1    0.0000
     40 H22        9.5754    2.5093    6.4371 H         1 RES1    0.0000
     41 C17        9.1179    0.6821    5.5351 C.3       1 RES1    0.0000
     42 H23        9.1392   -0.2620    5.8342 H         1 RES1    0.0000
     43 H24        8.1693    0.9593    5.4790 H         1 RES1    0.0000
     44 C18       11.5642    3.1133    4.5828 C.3       1 RES1    0.0000
     45 H25       11.9099    3.7611    5.2331 H         1 RES1    0.0000
     46 H26       10.5932    3.2143    4.5045 H         1 RES1    0.0000
     47 H27       11.9816    3.2733    3.7103 H         1 RES1    0.0000
     48 C19        9.5509    3.4334    9.0962 C.3       1 RES1    0.0000
     49 H28        9.8033    3.8335    8.2385 H         1 RES1    0.0000
     50 H29        9.9798    3.9278    9.8250 H         1 RES1    0.0000
     51 H30        8.5772    3.4734    9.2021 H         1 RES1    0.0000
     52 C20        9.4271    1.8282   11.7508 C.3       1 RES1    0.0000
     53 H31        8.9354    2.6989   11.7539 H         1 RES1    0.0000
     54 C21       10.8799    2.0882   12.1778 C.3       1 RES1    0.0000
     55 H32       10.9035    2.3178   13.1310 H         1 RES1    0.0000
     56 H33       11.2468    2.8304   11.6537 H         1 RES1    0.0000
     57 H34       11.4147    1.2823   12.0217 H         1 RES1    0.0000
     58 C22        8.7312    0.8764   12.7293 C.3       1 RES1    0.0000
     59 H35        9.3640    0.1439   12.9397 H         1 RES1    0.0000
     60 H36        7.9609    0.4697   12.2585 H         1 RES1    0.0000
     61 C23        8.2035    1.4652   14.0982 C.3       1 RES1    0.0000
     62 H37        8.9458    2.0111   14.4624 H         1 RES1    0.0000
     63 H38        7.4835    2.1016   13.8595 H         1 RES1    0.0000
     64 C24        7.6631    0.6450   15.2876 C.3       1 RES1    0.0000
     65 H39        7.2253   -0.1667   14.9269 H         1 RES1    0.0000
     66 H40        6.9637    1.1813   15.7375 H         1 RES1    0.0000
     67 C25        8.7257    0.1839   16.3950 C.3       1 RES1    0.0000
     68 H41        9.5780   -0.1953   16.0344 H         1 RES1    0.0000
     69 C26        8.9194    1.2442   14.1674 Du        3 SUP3    0.0000
     70 H42        8.5202    2.1321   14.3441 Du        3 SUP3    0.0000
     71 H43        9.8859    1.2899   14.3805 Du        3 SUP3    0.0000
     72 C27        8.2514    0.1982   15.0293 Du        3 SUP3    0.0000
     73 H44        7.4570   -0.1181   14.5317 Du        3 SUP3    0.0000
     74 H45        8.8754   -0.5687   15.0854 Du        3 SUP3    0.0000
     75 C28        7.7983    0.4944   16.4333 Du        3 SUP3    0.0000
     76 H46        6.8821    0.8955   16.4460 Du        3 SUP3    0.0000
     77 C29        8.8741    1.4538   17.1688 C.3       1 RES1    0.0000
     78 H47        9.5436    1.3442   17.8704 Du        3 SUP3    0.0000
     79 H48        9.1749    2.1616   16.5845 Du        3 SUP3    0.0000
     80 H49        8.0460    1.6976   17.5680 Du        3 SUP3    0.0000
     81 H50        8.9351    2.2997   16.7138 Du        3 SUP3    0.0000
     82 H51        8.6203    1.5928   18.0781 Du        3 SUP3    0.0000
     83 H52        9.7621    1.0422   17.1528 Du        3 SUP3    0.0000
     84 C30        7.8501   -0.8231   17.2444 C.3       1 RES1    0.0000
     85 H53        8.3679   -1.2232   17.9542 Du        3 SUP3    0.0000
     86 H54        7.0948   -0.3687   17.6318 Du        3 SUP3    0.0000
     87 H55        7.5247   -1.5290   16.6682 Du        3 SUP3    0.0000
     88 H56        7.2440   -1.4719   16.8741 Du        3 SUP3    0.0000
     89 H57        8.7456   -1.1870   17.2256 Du        3 SUP3    0.0000
     90 H58        7.6042   -0.6364   18.1491 Du        3 SUP3    0.0000
     91 O2         4.7268    5.4616   -0.2789 O.3       2 RES2    0.0000
     92 H59        4.4570    5.6016   -1.0911 H         2 RES2    0.0000
     93 C31        6.7014    4.7061    0.5175 C.2       2 RES2    0.0000
     94 N2         6.0983    5.1615   -0.5140 N.2       2 RES2    0.0000
     95 C32        8.1541    4.3708    0.4051 C.3       2 RES2    0.0000
     96 H60        8.2527    3.4458    0.7705 H         2 RES2    0.0000
     97 C33        8.6947    4.3203   -1.0257 C.3       2 RES2    0.0000
     98 H61        8.1389    3.7068   -1.5683 H         2 RES2    0.0000
     99 H62        8.6441    5.2215   -1.4317 H         2 RES2    0.0000
    100 C34       10.1392    3.8402   -1.0300 C.3       2 RES2    0.0000
    101 H63       10.4910    3.8592   -1.9563 H         2 RES2    0.0000
    102 H64       10.1776    2.9047   -0.7067 H         2 RES2    0.0000
    103 C35       11.0077    4.7223   -0.1381 C.3       2 RES2    0.0000
    104 H65       11.0580    5.6312   -0.5264 H         2 RES2    0.0000
    105 H66       11.9250    4.3527   -0.1056 H         2 RES2    0.0000
    106 C36       10.4480    4.8109    1.2841 C.3       2 RES2    0.0000
    107 H67       11.0137    5.4292    1.8124 H         2 RES2    0.0000
    108 H68       10.5041    3.9173    1.7067 H         2 RES2    0.0000
    109 C37        8.9837    5.2996    1.3479 C.3       2 RES2    0.0000
    110 C38        8.4270    5.1272    2.7945 C.3       2 RES2    0.0000
    111 H69        8.5730    4.1688    3.0418 H         2 RES2    0.0000
    112 C39        9.1749    5.9656    3.8418 C.3       2 RES2    0.0000
    113 H70        9.1125    6.9211    3.5901 H         2 RES2    0.0000
    114 H71       10.1323    5.7131    3.8287 H         2 RES2    0.0000
    115 C40        8.6343    5.7941    5.2761 C.3       2 RES2    0.0000
    116 H72        8.8229    4.8729    5.5864 H         2 RES2    0.0000
    117 H73        9.1068    6.4209    5.8797 H         2 RES2    0.0000
    118 C41        7.1284    6.0551    5.3591 C.3       2 RES2    0.0000
    119 C42        6.4054    5.6045    6.6615 C.3       2 RES2    0.0000
    120 H74        6.7627    4.7033    6.9088 H         2 RES2    0.0000
    121 C43        4.9321    5.4149    6.1948 C.3       2 RES2    0.0000
    122 H75        4.5304    4.6261    6.6374 H         2 RES2    0.0000
    123 H76        4.3937    6.2132    6.4225 H         2 RES2    0.0000
    124 C44        4.9682    5.2082    4.6593 C.3       2 RES2    0.0000
    125 H77        4.4988    4.3756    4.4025 H         2 RES2    0.0000
    126 H78        4.5487    5.9722    4.1894 H         2 RES2    0.0000
    127 C45        6.4516    5.1177    4.3340 C.3       2 RES2    0.0000
    128 H79        6.7390    4.1879    4.5610 H         2 RES2    0.0000
    129 C46        6.9048    5.3787    2.8954 C.3       2 RES2    0.0000
    130 H80        6.7339    6.3419    2.6867 H         2 RES2    0.0000
    131 C47        6.1161    4.5251    1.8912 C.3       2 RES2    0.0000
    132 H81        6.1623    3.5715    2.1530 H         2 RES2    0.0000
    133 H82        5.1657    4.8014    1.8907 H         2 RES2    0.0000
    134 C48        8.8879    6.7582    0.8869 C.3       2 RES2    0.0000
    135 H83        9.4843    7.3126    1.4317 H         2 RES2    0.0000
    136 H84        7.9650    7.0735    0.9891 H         2 RES2    0.0000
    137 H85        9.1530    6.8210   -0.0546 H         2 RES2    0.0000
    138 C49        6.7995    7.5279    5.0808 C.3       2 RES2    0.0000
    139 H86        7.1561    8.0843    5.8032 H         2 RES2    0.0000
    140 H87        5.8274    7.6413    5.0309 H         2 RES2    0.0000
    141 H88        7.2050    7.7975    4.2294 H         2 RES2    0.0000
    142 C50        6.4992    6.5038    7.9137 C.3       2 RES2    0.0000
    143 H89        6.0549    7.3736    7.6975 H         2 RES2    0.0000
    144 C51        7.9484    6.8068    8.3124 C.3       2 RES2    0.0000
    145 H90        7.9599    7.2697    9.1765 H         2 RES2    0.0000
    146 H91        8.3626    7.3764    7.6319 H         2 RES2    0.0000
    147 H92        8.4498    5.9675    8.3842 H         2 RES2    0.0000
    148 C52        5.7483    5.8789    9.1046 C.3       2 RES2    0.0000
    149 H93        4.9036    5.4768    8.7795 H         2 RES2    0.0000
    150 H94        6.3010    5.1539    9.4917 H         2 RES2    0.0000
    151 C53        5.4275    6.9058   10.1991 C.3       2 RES2    0.0000
    152 H95        6.2550    7.4098   10.4006 H         2 RES2    0.0000
    153 H96        4.7707    7.5498    9.8341 H         2 RES2    0.0000
    154 C54        4.8721    6.3561   11.5195 C.3       2 RES2    0.0000
    155 H97        4.2414    7.0230   11.8924 H         2 RES2    0.0000
    156 H98        4.3524    5.5369   11.3204 H         2 RES2    0.0000
    157 C55        5.9048    6.0189   12.5960 C.3       2 RES2    0.0000
    158 H99        6.5406    6.7887   12.6610 H         2 RES2    0.0000
    159 C56        5.2257    5.8570   13.9535 C.3       2 RES2    0.0000
    160 H100       4.6990    6.6591   14.1528 H         2 RES2    0.0000
    161 H101       5.9070    5.7322   14.6464 H         2 RES2    0.0000
    162 H102       4.6351    5.0758   13.9324 H         2 RES2    0.0000
    163 C57        6.7143    4.7738   12.2537 C.3       2 RES2    0.0000
    164 H103       7.3012    4.5490   13.0053 H         2 RES2    0.0000
    165 H104       7.2567    4.9462   11.4552 H         2 RES2    0.0000
    166 H105       6.1049    4.0259   12.0800 H         2 RES2    0.0000
@<TRIPOS>BOND
     1    1    2 1
     2    3    4 2
     3    4    1 1
     4    5    3 1
     5    6    5 1
     6    7    5 1
     7    8    7 1
     8    9    7 1
     9   10    7 1
    10   11   10 1
    11   12   10 1
    12   13   10 1
    13   14   13 1
    14   15   13 1
    15   16   13 1
    16   17   16 1
    17   18   16 1
    18   19    5 1
    19   20   19 1
    20   21   20 1
    21   22   20 1
    22   23   22 1
    23   24   22 1
    24   25   22 1
    25   26   25 1
    26   27   25 1
    27   28   25 1
    28   29   28 1
    29   30   29 1
    30   31   29 1
    31   32   31 1
    32   33   31 1
    33   34   31 1
    34   35   34 1
    35   36   34 1
    36   37   28 1
    37   38   37 1
    38   39   20 1
    39   40   39 1
    40   41    3 1
    41   42   41 1
    42   43   41 1
    43   44   19 1
    44   45   44 1
    45   46   44 1
    46   47   44 1
    47   48   28 1
    48   49   48 1
    49   50   48 1
    50   51   48 1
    51   52   29 1
    52   53   52 1
    53   54   52 1
    54   55   54 1
    55   56   54 1
    56   57   54 1
    57   58   52 1
    58   59   58 1
    59   60   58 1
    60   61   58 1
    61   62   61 1
    62   63   61 1
    63   64   61 1
    64   65   64 1
    65   66   64 1
    66   67   64 1
    67   68   67 1
    68   77   67 1
    69   84   67 1
    70   91   92 1
    71   93   94 2
    72   94   91 1
    73   95   93 1
    74   96   95 1
    75   97   95 1
    76   98   97 1
    77   99   97 1
    78  100   97 1
    79  101  100 1
    80  102  100 1
    81  103  100 1
    82  104  103 1
    83  105  103 1
    84  106  103 1
    85  107  106 1
    86  108  106 1
    87  109   95 1
    88  110  109 1
    89  111  110 1
    90  112  110 1
    91  113  112 1
    92  114  112 1
    93  115  112 1
    94  116  115 1
    95  117  115 1
    96  118  115 1
    97  119  118 1
    98  120  119 1
    99  121  119 1
   100  122  121 1
   101  123  121 1
   102  124  121 1
   103  125  124 1
   104  126  124 1
   105  127  118 1
   106  128  127 1
   107  129  110 1
   108  130  129 1
   109  131   93 1
   110  132  131 1
   111  133  131 1
   112  134  109 1
   113  135  134 1
   114  136  134 1
   115  137  134 1
   116  138  118 1
   117  139  138 1
   118  140  138 1
   119  141  138 1
   120  142  119 1
   121  143  142 1
   122  144  142 1
   123  145  144 1
   124  146  144 1
   125  147  144 1
   126  148  142 1
   127  149  148 1
   128  150  148 1
   129  151  148 1
   130  152  151 1
   131  153  151 1
   132  154  151 1
   133  155  154 1
   134  156  154 1
   135  157  154 1
   136  158  157 1
   137  159  157 1
   138  160  159 1
   139  161  159 1
   140  162  159 1
   141  163  157 1
   142  164  163 1
   143  165  163 1
   144  166  163 1
   145   16   19 1
   146   34   37 1
   147   37   39 1
   148   39   41 1
   149  106  109 1
   150  124  127 1
   151  127  129 1
   152  129  131 1
@<TRIPOS>SUBSTRUCTURE
     1 RES1 1
     2 RES2 91
     3 SUP3 69

@<TRIPOS>CRYSIN
  13.7535    9.5266   18.6810  90.0000 102.8290  90.0000   4 1

