# MOL2 file generated by ConQuest
# Please check atom types

@<TRIPOS>MOLECULE
CEJFIH
    38    40     1
SMALL
NO_CHARGES
****
Generated from CSD

@<TRIPOS>ATOM
      1 C1         7.7193    7.9922    2.3466 C.ar      1 RES1    0.0000
      2 C2         8.4115    8.1925    1.1366 C.ar      1 RES1    0.0000
      3 C3         7.9448    9.1010    0.2087 C.ar      1 RES1    0.0000
      4 H1         8.4273    9.2348   -0.5981 H         1 RES1    0.0000
      5 C4         6.7856    9.8193    0.4352 C.ar      1 RES1    0.0000
      6 C5         6.0715    9.6431    1.6365 C.ar      1 RES1    0.0000
      7 C6         6.5570    8.7283    2.5663 C.ar      1 RES1    0.0000
      8 H2         6.0801    8.6018    3.3781 H         1 RES1    0.0000
      9 O1         8.1966    7.1195    3.2609 O.3       1 RES1    0.0000
     10 C7         7.4765    6.9799    4.4708 C.ar      1 RES1    0.0000
     11 C8         6.4063    6.1102    4.5171 C.ar      1 RES1    0.0000
     12 H3         6.1544    5.6063    3.7527 H         1 RES1    0.0000
     13 C9         5.7077    5.9918    5.7095 C.ar      1 RES1    0.0000
     14 H4         4.9607    5.4074    5.7609 H         1 RES1    0.0000
     15 C10        6.0905    6.7185    6.8242 C.ar      1 RES1    0.0000
     16 H5         5.5996    6.6404    7.6340 H         1 RES1    0.0000
     17 C11        7.1881    7.5578    6.7583 C.ar      1 RES1    0.0000
     18 H6         7.4607    8.0412    7.5295 H         1 RES1    0.0000
     19 C12        7.8946    7.6986    5.5693 C.ar      1 RES1    0.0000
     20 H7         8.6468    8.2755    5.5149 H         1 RES1    0.0000
     21 N1         9.6358    7.4727    0.7975 N.pl3     1 RES1    0.0000
     22 O2         9.9657    6.5184    1.4766 O.2       1 RES1    0.0000
     23 O3        10.2855    7.8677   -0.1712 O.2       1 RES1    0.0000
     24 N2         6.3664   10.7417   -0.6174 N.pl3     1 RES1    0.0000
     25 O4         7.2014   11.0490   -1.4670 O.2       1 RES1    0.0000
     26 O5         5.2136   11.1507   -0.6245 O.2       1 RES1    0.0000
     27 O6         4.9494   10.3594    1.8489 O.3       1 RES1    0.0000
     28 C13        4.3222   10.2344    3.1089 C.ar      1 RES1    0.0000
     29 C14        3.1265    9.5595    3.1642 C.ar      1 RES1    0.0000
     30 H8         2.7484    9.1789    2.3796 H         1 RES1    0.0000
     31 C15        2.4823    9.4452    4.3876 C.ar      1 RES1    0.0000
     32 H9         1.6537    8.9849    4.4457 H         1 RES1    0.0000
     33 C16        3.0449   10.0001    5.5225 C.ar      1 RES1    0.0000
     34 H10        2.6055    9.9089    6.3590 H         1 RES1    0.0000
     35 C17        4.2447   10.6873    5.4466 C.ar      1 RES1    0.0000
     36 H11        4.6206   11.0745    6.2288 H         1 RES1    0.0000
     37 C18        4.8985   10.8115    4.2249 C.ar      1 RES1    0.0000
     38 H12        5.7219   11.2809    4.1595 H         1 RES1    0.0000
@<TRIPOS>BOND
     1    1    2 ar
     2    2    3 ar
     3    3    4 1
     4    5    3 ar
     5    6    5 ar
     6    7    1 ar
     7    8    7 1
     8    9    1 1
     9   10    9 1
    10   11   10 ar
    11   12   11 1
    12   13   11 ar
    13   14   13 1
    14   15   13 ar
    15   16   15 1
    16   17   15 ar
    17   18   17 1
    18   19   10 ar
    19   20   19 1
    20   21    2 1
    21   22   21 2
    22   23   21 2
    23   24    5 1
    24   25   24 2
    25   26   24 2
    26   27    6 1
    27   28   27 1
    28   29   28 ar
    29   30   29 1
    30   31   29 ar
    31   32   31 1
    32   33   31 ar
    33   34   33 1
    34   35   33 ar
    35   36   35 1
    36   37   28 ar
    37   38   37 1
    38    6    7 ar
    39   17   19 ar
    40   35   37 ar
@<TRIPOS>SUBSTRUCTURE
     1 RES1 1

@<TRIPOS>CRYSIN
  12.2150    8.2204   16.2520  90.0000  98.3810  90.0000 231 1

