# MOL2 file generated by ConQuest
# Please check atom types

@<TRIPOS>MOLECULE
CEJHUU
    62    64     1
SMALL
NO_CHARGES
****
Generated from CSD

@<TRIPOS>ATOM
      1 O1         5.0120    7.7693    0.5102 O.2       1 RES1    0.0000
      2 O2         3.4148   -1.1904    4.1769 O.2       1 RES1    0.0000
      3 O3         5.2622    2.6513    2.1408 O.3       1 RES1    0.0000
      4 O4         2.8332    2.6383    0.9946 O.2       1 RES1    0.0000
      5 N1         5.2056    6.6390    1.0804 N.3       1 RES1    0.0000
      6 N2         3.2326   -0.0321    3.6573 N.3       1 RES1    0.0000
      7 C1         4.3666    6.3327    2.2771 C.3       1 RES1    0.0000
      8 C2         2.9109    6.5849    1.8645 C.3       1 RES1    0.0000
      9 C3         4.7445    7.2998    3.4034 C.3       1 RES1    0.0000
     10 C4         6.4425    5.8725    0.7559 C.3       1 RES1    0.0000
     11 C5         6.9714    6.3662   -0.5949 C.3       1 RES1    0.0000
     12 C6         7.5138    6.1149    1.8187 C.3       1 RES1    0.0000
     13 C7         6.0443    4.3851    0.7171 C.3       1 RES1    0.0000
     14 C8         5.3132    3.9559   -0.5596 C.3       1 RES1    0.0000
     15 C9         5.2307    4.0302    1.9233 C.2       1 RES1    0.0000
     16 C10        4.5330    4.8778    2.6686 C.2       1 RES1    0.0000
     17 C11        3.7490    4.4021    3.8642 C.3       1 RES1    0.0000
     18 C12        4.1018    2.9597    4.2204 C.3       1 RES1    0.0000
     19 C13        4.1797    2.1369    2.9284 C.3       1 RES1    0.0000
     20 C14        4.4797    0.6334    3.1447 C.3       1 RES1    0.0000
     21 C15        4.8937   -0.0291    1.8316 C.3       1 RES1    0.0000
     22 C16        5.5687    0.4284    4.1934 C.3       1 RES1    0.0000
     23 C17        1.8287    0.2316    3.1753 C.3       1 RES1    0.0000
     24 C18        0.8986   -0.1641    4.3286 C.3       1 RES1    0.0000
     25 C19        1.5686   -0.6459    1.9409 C.3       1 RES1    0.0000
     26 C20        1.6592    1.7319    2.8720 C.3       1 RES1    0.0000
     27 C21        0.3768    2.0771    2.1126 C.3       1 RES1    0.0000
     28 C22        2.8735    2.2378    2.1372 C.2       1 RES1    0.0000
     29 H1         2.8291    7.4932    1.5048 H         1 RES1    0.0000
     30 H2         2.3632    6.4743    2.6098 H         1 RES1    0.0000
     31 H3         2.6663    5.9648    1.1521 H         1 RES1    0.0000
     32 H4         4.7024    8.1937    3.0566 H         1 RES1    0.0000
     33 H5         4.0830    7.2384    4.1616 H         1 RES1    0.0000
     34 H6         5.6488    7.0899    3.7384 H         1 RES1    0.0000
     35 H7         7.2618    7.3234   -0.4938 H         1 RES1    0.0000
     36 H8         7.7302    5.7950   -0.7994 H         1 RES1    0.0000
     37 H9         6.2742    6.3894   -1.3284 H         1 RES1    0.0000
     38 H10        8.3607    5.6889    1.5283 H         1 RES1    0.0000
     39 H11        7.6755    7.1111    1.9162 H         1 RES1    0.0000
     40 H12        7.2460    5.7950    2.7156 H         1 RES1    0.0000
     41 H13        4.9713    2.9718   -0.4467 H         1 RES1    0.0000
     42 H14        4.4669    4.5426   -0.7289 H         1 RES1    0.0000
     43 H15        5.9264    3.9695   -1.4225 H         1 RES1    0.0000
     44 H16        2.7579    4.4577    3.6561 H         1 RES1    0.0000
     45 H17        3.9195    4.9884    4.6319 H         1 RES1    0.0000
     46 H18        5.0038    2.9081    4.6201 H         1 RES1    0.0000
     47 H19        3.4681    2.5685    4.8787 H         1 RES1    0.0000
     48 H20        4.8637   -0.9977    1.9280 H         1 RES1    0.0000
     49 H21        4.2622    0.2547    1.0580 H         1 RES1    0.0000
     50 H22        5.7717    0.2335    1.6223 H         1 RES1    0.0000
     51 H23        5.2590    0.6793    5.1139 H         1 RES1    0.0000
     52 H24        6.3675    0.9977    3.9383 H         1 RES1    0.0000
     53 H25        5.8452   -0.5095    4.1851 H         1 RES1    0.0000
     54 H26       -0.0137    0.0212    4.0441 H         1 RES1    0.0000
     55 H27        1.1091    0.4245    5.1374 H         1 RES1    0.0000
     56 H28        1.9469   -1.5284    2.1866 H         1 RES1    0.0000
     57 H29        0.5944   -0.6793    1.7869 H         1 RES1    0.0000
     58 H30        2.0163   -0.2972    1.0933 H         1 RES1    0.0000
     59 H31        1.6261    2.2076    3.7149 H         1 RES1    0.0000
     60 H32        0.4040    1.6769    1.1638 H         1 RES1    0.0000
     61 H33       -0.4046    1.8043    2.5275 H         1 RES1    0.0000
     62 H34        0.3392    3.0355    1.9985 H         1 RES1    0.0000
@<TRIPOS>BOND
     1    1    5 1
     2    2    6 1
     3    3   15 1
     4    4   28 2
     5    5    7 1
     6    6   20 1
     7    7    8 1
     8    8   29 1
     9    9    7 1
    10   10    5 1
    11   11   10 1
    12   12   10 1
    13   13   10 1
    14   14   13 1
    15   15   13 1
    16   16    7 1
    17   17   16 1
    18   18   17 1
    19   19    3 1
    20   20   19 1
    21   21   20 1
    22   22   20 1
    23   23    6 1
    24   24   23 1
    25   25   23 1
    26   26   23 1
    27   27   26 1
    28   28   19 1
    29   30    8 1
    30   31    8 1
    31   32    9 1
    32   33    9 1
    33   34    9 1
    34   35   11 1
    35   36   11 1
    36   37   11 1
    37   38   12 1
    38   39   12 1
    39   40   12 1
    40   41   14 1
    41   42   14 1
    42   43   14 1
    43   44   17 1
    44   45   17 1
    45   46   18 1
    46   47   18 1
    47   48   21 1
    48   49   21 1
    49   50   21 1
    50   51   22 1
    51   52   22 1
    52   53   22 1
    53   54   24 1
    54   55   24 1
    55   56   25 1
    56   57   25 1
    57   58   25 1
    58   59   26 1
    59   60   27 1
    60   61   27 1
    61   62   27 1
    62   15   16 2
    63   18   19 1
    64   26   28 1
@<TRIPOS>SUBSTRUCTURE
     1 RES1 1

@<TRIPOS>CRYSIN
   8.6460   21.8230   11.7560  90.0000  90.0000 103.4200  14 3

