# MOL2 file generated by ConQuest
# Please check atom types

@<TRIPOS>MOLECULE
CEJXUN
    40    42     1
SMALL
NO_CHARGES
****
Generated from CSD

@<TRIPOS>ATOM
      1 N1         0.4208   -1.0720    4.9310 N.am      1 RES1    0.0000
      2 O1        -1.0819   -2.7538    4.9231 O.2       1 RES1    0.0000
      3 O2        -0.5134   -0.3294    5.6902 O.3       1 RES1    0.0000
      4 O3         0.4334   -1.2073    7.5242 O.2       1 RES1    0.0000
      5 C1         1.3280   -0.1944    4.1860 C.3       1 RES1    0.0000
      6 H1         1.7403    0.4445    4.8032 H         1 RES1    0.0000
      7 C2        -0.0694   -2.2609    4.4678 C.2       1 RES1    0.0000
      8 C3         0.7855   -2.9399    3.4287 C.3       1 RES1    0.0000
      9 H2         0.1967   -3.3836    2.7991 H         1 RES1    0.0000
     10 H3         1.3047   -3.6298    3.8713 H         1 RES1    0.0000
     11 C4         1.7461   -2.0628    2.6364 C.3       1 RES1    0.0000
     12 H4         2.4422   -2.6345    2.2504 H         1 RES1    0.0000
     13 C5         2.4059   -1.0782    3.5852 C.3       1 RES1    0.0000
     14 H5         2.8723   -1.5564    4.2876 H         1 RES1    0.0000
     15 H6         3.0502   -0.5352    3.1048 H         1 RES1    0.0000
     16 C6         0.5749    0.5575    3.1197 C.2       1 RES1    0.0000
     17 C7         0.0250   -0.3232    2.0269 C.3       1 RES1    0.0000
     18 H7        -0.2828    0.2320    1.2935 H         1 RES1    0.0000
     19 H8        -0.7379   -0.8164    2.3679 H         1 RES1    0.0000
     20 C8         1.0681   -1.3061    1.5089 C.3       1 RES1    0.0000
     21 H9         0.6410   -1.9399    0.9114 H         1 RES1    0.0000
     22 H10        1.7381   -0.8216    1.0015 H         1 RES1    0.0000
     23 C9         0.4049    1.8669    3.1345 C.2       1 RES1    0.0000
     24 H11       -0.0667    2.2289    2.4193 H         1 RES1    0.0000
     25 C10        0.8784    2.8231    4.1578 C.ar      1 RES1    0.0000
     26 C11        2.1782    3.2694    4.1817 C.ar      1 RES1    0.0000
     27 H12        2.7887    2.9300    3.5667 H         1 RES1    0.0000
     28 C12        2.5953    4.2105    5.0997 C.ar      1 RES1    0.0000
     29 H13        3.4764    4.5071    5.0883 H         1 RES1    0.0000
     30 C13        1.7358    4.7056    6.0145 C.ar      1 RES1    0.0000
     31 H14        2.0181    5.3443    6.6293 H         1 RES1    0.0000
     32 C14        0.4475    4.2583    6.0270 C.ar      1 RES1    0.0000
     33 H15       -0.1481    4.5823    6.6647 H         1 RES1    0.0000
     34 C15        0.0203    3.3280    5.1043 C.ar      1 RES1    0.0000
     35 H16       -0.8638    3.0376    5.1225 H         1 RES1    0.0000
     36 C16       -0.3923   -0.5187    7.0347 C.2       1 RES1    0.0000
     37 C17       -1.4380    0.2539    7.7347 C.3       1 RES1    0.0000
     38 H17       -1.2360    0.2890    8.6721 H         1 RES1    0.0000
     39 H18       -2.2898   -0.1711    7.6068 H         1 RES1    0.0000
     40 H19       -1.4694    1.1456    7.3798 H         1 RES1    0.0000
@<TRIPOS>BOND
     1    1    3 1
     2    2    7 2
     3    3   36 1
     4    4   36 2
     5    5    1 1
     6    6    5 1
     7    7    1 1
     8    8    7 1
     9    9    8 1
    10   10    8 1
    11   11    8 1
    12   12   11 1
    13   13    5 1
    14   14   13 1
    15   15   13 1
    16   16    5 1
    17   17   16 1
    18   18   17 1
    19   19   17 1
    20   20   11 1
    21   21   20 1
    22   22   20 1
    23   23   16 2
    24   24   23 1
    25   25   23 1
    26   26   25 ar
    27   27   26 1
    28   28   26 ar
    29   29   28 1
    30   30   28 ar
    31   31   30 1
    32   32   30 ar
    33   33   32 1
    34   34   25 ar
    35   35   34 1
    36   36   37 1
    37   37   38 1
    38   39   37 1
    39   40   37 1
    40   11   13 1
    41   17   20 1
    42   32   34 ar
@<TRIPOS>SUBSTRUCTURE
     1 RES1 1

@<TRIPOS>CRYSIN
  10.1903   12.9589   12.3832  90.0000 112.9120  90.0000  14 1

