# MOL2 file generated by ConQuest
# Please check atom types

@<TRIPOS>MOLECULE
CEJYIA
    72    75     1
SMALL
USER_CHARGES
****
Generated from CSD

@<TRIPOS>ATOM
      1 C1         9.1412    1.1958   19.7492 C.3       1 RES1    0.0000
      2 N1         9.7968   -0.0643   19.3460 N.pl3     1 RES1    0.0000
      3 O1        10.2991   -0.8528   20.2095 O.2       1 RES1    0.0000
      4 N2         9.2189    0.7540   17.4558 N.pl3     1 RES1    1.0000
      5 O2         9.0281    0.8835   16.1881 O.2       1 RES1   -1.0000
      6 C2         7.9881    0.7875   20.6553 C.3       1 RES1    0.0000
      7 H1         8.1856    0.1305   21.2050 H         1 RES1    0.0000
      8 H2         7.1217    0.5406   19.5271 H         1 RES1    0.0000
      9 H3         7.5242    1.4446   20.7566 H         1 RES1    0.0000
     10 N3        11.1541   -3.5108   17.0606 N.2       1 RES1    0.0000
     11 C3        10.1160    1.9908   20.5772 C.3       1 RES1    0.0000
     12 H4        10.2272    1.3048   21.4364 H         1 RES1    0.0000
     13 H5         9.7767    2.8519   20.8000 H         1 RES1    0.0000
     14 H6        10.6777    2.4698   19.9032 H         1 RES1    0.0000
     15 N4        10.9307   -2.8957   15.8806 N.3       1 RES1    0.0000
     16 C4         8.7310    1.8034   18.3997 C.3       1 RES1    0.0000
     17 C5         9.4815    3.0784   18.0517 C.3       1 RES1    0.0000
     18 H7         9.0578    3.4950   17.0970 H         1 RES1    0.0000
     19 H8        10.5147    2.8892   18.1963 H         1 RES1    0.0000
     20 H9         9.2879    3.7653   18.6592 H         1 RES1    0.0000
     21 C6         7.2664    1.9870   18.1631 C.3       1 RES1    0.0000
     22 H10        7.1274    2.3524   17.2851 H         1 RES1    0.0000
     23 H11        6.9089    2.5882   18.8212 H         1 RES1    0.0000
     24 H12        6.8226    1.1389   18.2311 H         1 RES1    0.0000
     25 C7         9.7844   -0.2787   18.0352 C.2       1 RES1    0.0000
     26 C8        10.2866   -1.4455   17.3745 C.2       1 RES1    0.0000
     27 C9        10.7668   -2.6310   17.9557 C.2       1 RES1    0.0000
     28 H13       10.8080   -2.7764   18.8733 H         1 RES1    0.0000
     29 C10       10.4151   -1.6804   16.0244 C.2       1 RES1    0.0000
     30 H14       10.1831   -1.0960   15.3382 H         1 RES1    0.0000
     31 C11       11.2087   -3.5901   14.6233 C.3       1 RES1    0.0000
     32 H15       12.1634   -3.7746   14.6670 H         1 RES1    0.0000
     33 H16       10.9940   -2.9078   13.8772 H         1 RES1    0.0000
     34 C12       10.3259   -4.8194   14.4584 C.3       1 RES1    0.0000
     35 H17       10.5914   -5.5361   15.2369 H         1 RES1    0.0000
     36 H18       10.6010   -5.1540   13.5503 H         1 RES1    0.0000
     37 C1D       10.0288  -10.5158    9.1798 C.3       1 RES1    0.0000
     38 N1D        9.3732   -9.2557    9.5830 N.pl3     1 RES1    0.0000
     39 O1D        8.8709   -8.4672    8.7195 O.2       1 RES1    0.0000
     40 N2D        9.9511  -10.0740   11.4732 N.pl3     1 RES1    1.0000
     41 O2D       10.1419  -10.2035   12.7409 O.2       1 RES1   -1.0000
     42 C2D       11.1819  -10.1075    8.2737 C.3       1 RES1    0.0000
     43 H1D       10.9844   -9.4505    7.7240 H         1 RES1    0.0000
     44 H2D       12.0483   -9.8606    9.4019 H         1 RES1    0.0000
     45 H3D       11.6458  -10.7646    8.1724 H         1 RES1    0.0000
     46 N3D        8.0159   -5.8092   11.8684 N.2       1 RES1    0.0000
     47 C3D        9.0540  -11.3108    8.3518 C.3       1 RES1    0.0000
     48 H4D        8.9428  -10.6248    7.4926 H         1 RES1    0.0000
     49 H5D        9.3933  -12.1719    8.1290 H         1 RES1    0.0000
     50 H6D        8.4923  -11.7898    9.0258 H         1 RES1    0.0000
     51 N4D        8.2393   -6.4243   13.0484 N.3       1 RES1    0.0000
     52 C4D       10.4390  -11.1234   10.5293 C.3       1 RES1    0.0000
     53 C5D        9.6885  -12.3984   10.8773 C.3       1 RES1    0.0000
     54 H7D       10.1122  -12.8150   11.8320 H         1 RES1    0.0000
     55 H8D        8.6553  -12.2092   10.7327 H         1 RES1    0.0000
     56 H9D        9.8821  -13.0853   10.2698 H         1 RES1    0.0000
     57 C6D       11.9036  -11.3070   10.7659 C.3       1 RES1    0.0000
     58 H10D      12.0426  -11.6724   11.6439 H         1 RES1    0.0000
     59 H11D      12.2611  -11.9082   10.1078 H         1 RES1    0.0000
     60 H12D      12.3474  -10.4589   10.6979 H         1 RES1    0.0000
     61 C7D        9.3856   -9.0413   10.8938 C.2       1 RES1    0.0000
     62 C8D        8.8834   -7.8745   11.5545 C.2       1 RES1    0.0000
     63 C9D        8.4032   -6.6890   10.9733 C.2       1 RES1    0.0000
     64 H13D       8.3620   -6.5436   10.0557 H         1 RES1    0.0000
     65 C10D       8.7549   -7.6396   12.9046 C.2       1 RES1    0.0000
     66 H14D       8.9869   -8.2240   13.5908 H         1 RES1    0.0000
     67 C11D       7.9613   -5.7299   14.3057 C.3       1 RES1    0.0000
     68 H15D       7.0066   -5.5454   14.2620 H         1 RES1    0.0000
     69 H16D       8.1760   -6.4122   15.0518 H         1 RES1    0.0000
     70 C12D       8.8441   -4.5006   14.4706 C.3       1 RES1    0.0000
     71 H17D       8.5786   -3.7839   13.6921 H         1 RES1    0.0000
     72 H18D       8.5690   -4.1660   15.3787 H         1 RES1    0.0000
@<TRIPOS>BOND
     1    1    2 1
     2    2    3 1
     3    4    5 1
     4    6    1 1
     5    7    6 1
     6    8    6 1
     7    9    6 1
     8   10   15 1
     9   11    1 1
    10   12   11 1
    11   13   11 1
    12   14   11 1
    13   15   29 1
    14   16    1 1
    15   17   16 1
    16   18   17 1
    17   19   17 1
    18   20   17 1
    19   21   16 1
    20   22   21 1
    21   23   21 1
    22   24   21 1
    23   25    2 1
    24   26   25 1
    25   27   10 2
    26   28   27 1
    27   29   26 2
    28   30   29 1
    29   31   15 1
    30   32   31 1
    31   33   31 1
    32   34   31 1
    33   35   34 1
    34   36   34 1
    35   37   38 1
    36   38   39 1
    37   40   41 1
    38   42   37 1
    39   43   42 1
    40   44   42 1
    41   45   42 1
    42   46   51 1
    43   47   37 1
    44   48   47 1
    45   49   47 1
    46   50   47 1
    47   51   65 1
    48   52   37 1
    49   53   52 1
    50   54   53 1
    51   55   53 1
    52   56   53 1
    53   57   52 1
    54   58   57 1
    55   59   57 1
    56   60   57 1
    57   61   38 2
    58   62   61 1
    59   63   46 2
    60   64   63 1
    61   65   62 2
    62   66   65 1
    63   67   51 1
    64   68   67 1
    65   69   67 1
    66   70   34 1
    67   71   70 1
    68   72   70 1
    69    4   16 1
    70    4   25 2
    71   26   27 1
    72   40   52 1
    73   40   61 1
    74   62   63 1
    75   67   70 1
@<TRIPOS>SUBSTRUCTURE
     1 RES1 1

@<TRIPOS>CRYSIN
   9.5850    9.3200   28.9290  90.0000  90.0000  90.0000  61 1

