# MOL2 file generated by ConQuest
# Please check atom types

@<TRIPOS>MOLECULE
CEKCUS
    46    46     1
SMALL
NO_CHARGES
****
Generated from CSD

@<TRIPOS>ATOM
      1 O1        -0.8620   -3.0118    5.5080 O.3       1 RES1    0.0000
      2 O2        -3.2018    3.2308   12.8072 O.2       1 RES1    0.0000
      3 O3        -1.0559   -4.6670    4.0598 O.2       1 RES1    0.0000
      4 O4         0.0501   -4.1711    8.2887 O.2       1 RES1    0.0000
      5 N1        -1.0103   -3.0097   10.6709 N.am      1 RES1    0.0000
      6 H1        -0.1591   -2.9337   10.7593 H         1 RES1    0.0000
      7 O5        -2.9527   -3.5245   11.7070 O.2       1 RES1    0.0000
      8 O6        -4.8607    3.1893   11.4193 O.2       1 RES1    0.0000
      9 N2        -2.0915   -4.2199    7.5101 N.am      1 RES1    0.0000
     10 H2        -2.8976   -3.9931    7.7065 H         1 RES1    0.0000
     11 C1        -1.8255   -0.2805    9.6435 C.ar      1 RES1    0.0000
     12 C2        -0.2308   -2.2372    4.4573 C.3       1 RES1    0.0000
     13 H3         0.4962   -2.7396    4.0821 H         1 RES1    0.0000
     14 H4         0.1049   -1.4153    4.8227 H         1 RES1    0.0000
     15 H5        -0.8738   -2.0436    3.7711 H         1 RES1    0.0000
     16 C3        -1.2166   -4.2090    5.1726 C.2       1 RES1    0.0000
     17 C4        -1.9141   -5.0149    6.2962 C.3       1 RES1    0.0000
     18 C5        -1.1323   -3.8051    8.3489 C.2       1 RES1    0.0000
     19 C6        -1.5878   -2.7769    9.3646 C.3       1 RES1    0.0000
     20 H6        -2.5645   -2.8131    9.4375 H         1 RES1    0.0000
     21 C7        -1.1736   -1.3771    8.8534 C.3       1 RES1    0.0000
     22 H7        -0.2095   -1.2863    8.9146 H         1 RES1    0.0000
     23 H8        -1.4226   -1.2903    7.9193 H         1 RES1    0.0000
     24 C8        -1.1983    0.3040   10.7428 C.ar      1 RES1    0.0000
     25 H9        -0.3526    0.0158   11.0023 H         1 RES1    0.0000
     26 C9        -1.8413    1.3251   11.4582 C.ar      1 RES1    0.0000
     27 H10       -1.4304    1.7236   12.1910 H         1 RES1    0.0000
     28 C10       -3.0923    1.7241   11.0499 C.ar      1 RES1    0.0000
     29 N3        -3.7782    2.7930   11.8187 N.pl3     1 RES1    0.0000
     30 C11       -1.1587   -6.3100    6.5577 C.3       1 RES1    0.0000
     31 H11       -0.2407   -6.1108    6.7569 H         1 RES1    0.0000
     32 H12       -1.2022   -6.8690    5.7782 H         1 RES1    0.0000
     33 H13       -1.5564   -6.7676    7.3022 H         1 RES1    0.0000
     34 C12       -1.7312   -3.3352   11.7468 C.2       1 RES1    0.0000
     35 C13       -0.9569   -3.4594   13.0307 C.3       1 RES1    0.0000
     36 H14       -1.4590   -3.0622   13.7461 H         1 RES1    0.0000
     37 H15       -0.1147   -3.0079   12.9413 H         1 RES1    0.0000
     38 H16       -0.8033   -4.3874   13.2232 H         1 RES1    0.0000
     39 C14       -3.7336    1.1642    9.9876 C.ar      1 RES1    0.0000
     40 H17       -4.5802    1.4562    9.7378 H         1 RES1    0.0000
     41 C15       -3.1079    0.1646    9.2946 C.ar      1 RES1    0.0000
     42 H18       -3.5439   -0.2298    8.5734 H         1 RES1    0.0000
     43 C16       -3.3224   -5.3449    5.7704 C.3       1 RES1    0.0000
     44 H19       -3.8248   -5.7891    6.4575 H         1 RES1    0.0000
     45 H20       -3.2516   -5.9188    5.0035 H         1 RES1    0.0000
     46 H21       -3.7696   -4.5319    5.5216 H         1 RES1    0.0000
@<TRIPOS>BOND
     1    1   12 1
     2    2   29 2
     3    3   16 2
     4    4   18 2
     5    5    6 1
     6    7   34 2
     7    8   29 2
     8    9   10 1
     9   11   21 1
    10   12   13 1
    11   14   12 1
    12   15   12 1
    13   16    1 1
    14   17    9 1
    15   18    9 1
    16   19    5 1
    17   20   19 1
    18   21   19 1
    19   22   21 1
    20   23   21 1
    21   24   11 ar
    22   25   24 1
    23   26   24 ar
    24   27   26 1
    25   28   26 ar
    26   29   28 1
    27   30   17 1
    28   31   30 1
    29   32   30 1
    30   33   30 1
    31   34    5 1
    32   35   34 1
    33   36   35 1
    34   37   35 1
    35   38   35 1
    36   39   28 ar
    37   40   39 1
    38   41   11 ar
    39   42   41 1
    40   43   17 1
    41   44   43 1
    42   45   43 1
    43   46   43 1
    44   16   17 1
    45   18   19 1
    46   39   41 ar
@<TRIPOS>SUBSTRUCTURE
     1 RES1 1

@<TRIPOS>CRYSIN
   9.1882   10.6127   10.8720  97.9650 110.1380 111.7850   2 1

