# MOL2 file generated by ConQuest
# Please check atom types

@<TRIPOS>MOLECULE
CEKHOS
    94    98     2
SMALL
NO_CHARGES
****
Generated from CSD

@<TRIPOS>ATOM
      1 O1        15.5685    8.4562   11.1972 O.2       1 RES1    0.0000
      2 O2        16.5312    6.7265   10.3457 O.2       1 RES1    0.0000
      3 O3        11.8763    9.7097   12.1810 O.2       1 RES1    0.0000
      4 O4        14.0379    5.1735   14.9832 O.2       1 RES1    0.0000
      5 N1        15.5431    7.3094   10.7783 N.pl3     1 RES1    0.0000
      6 N2        10.0605    8.7055   11.2995 N.am      1 RES1    0.0000
      7 H1         9.6047    9.4571   11.2576 H         1 RES1    0.0000
      8 H2         9.6956    7.9537   11.0241 H         1 RES1    0.0000
      9 N3        10.5403    5.2759   11.5598 N.1       1 RES1    0.0000
     10 C1        14.2290    6.5166   10.8942 C.3       1 RES1    0.0000
     11 C2        14.0524    6.1669   12.4014 C.3       1 RES1    0.0000
     12 H3        13.5981    5.2769   12.4400 H         1 RES1    0.0000
     13 C3        11.2967    8.7060   11.7776 C.2       1 RES1    0.0000
     14 C4        15.3474    6.0340   13.1906 C.3       1 RES1    0.0000
     15 H4        15.9862    5.4848   12.6707 H         1 RES1    0.0000
     16 H5        15.7466    6.9324   13.3075 H         1 RES1    0.0000
     17 C5        13.0572    7.4596   10.5270 C.3       1 RES1    0.0000
     18 H6        13.4257    8.3891   10.5084 H         1 RES1    0.0000
     19 C6        16.3667    5.0543   15.3433 C.ar      1 RES1    0.0000
     20 C7        14.2910    5.3034    9.9866 C.3       1 RES1    0.0000
     21 H7        13.5012    4.7329   10.1623 H         1 RES1    0.0000
     22 H8        15.0983    4.7768   10.2129 H         1 RES1    0.0000
     23 C8        17.6565    5.2993   14.8801 C.ar      1 RES1    0.0000
     24 H9        17.7836    5.7264   14.0410 H         1 RES1    0.0000
     25 C9        12.4657    7.1884    9.1500 C.3       1 RES1    0.0000
     26 H10       11.8912    6.3826    9.1791 H         1 RES1    0.0000
     27 H11       11.9129    7.9566    8.8597 H         1 RES1    0.0000
     28 C10       12.0824    7.3821   11.7354 C.3       1 RES1    0.0000
     29 C11       11.1979    6.2094   11.6336 C.1       1 RES1    0.0000
     30 C12       14.3290    5.6484    8.4905 C.3       1 RES1    0.0000
     31 H12       13.8965    4.9198    7.9785 H         1 RES1    0.0000
     32 H13       15.2720    5.7087    8.1953 H         1 RES1    0.0000
     33 C13       15.1503    5.4033   14.5504 C.2       1 RES1    0.0000
     34 C14       16.1941    4.4434   16.5857 C.ar      1 RES1    0.0000
     35 H14       15.3185    4.2868   16.9193 H         1 RES1    0.0000
     36 C15       18.7584    4.9234   15.6367 C.ar      1 RES1    0.0000
     37 H15       19.6363    5.1019   15.3207 H         1 RES1    0.0000
     38 C16       18.5740    4.2877   16.8531 C.ar      1 RES1    0.0000
     39 H16       19.3264    4.0038   17.3589 H         1 RES1    0.0000
     40 C17       13.6173    6.9752    8.1781 C.3       1 RES1    0.0000
     41 H17       14.2602    7.7242    8.2537 H         1 RES1    0.0000
     42 H18       13.2716    6.9576    7.2505 H         1 RES1    0.0000
     43 C18       17.2948    4.0656   17.3326 C.ar      1 RES1    0.0000
     44 H19       17.1725    3.6518   18.1790 H         1 RES1    0.0000
     45 C19       13.0474    7.1990   12.9192 C.3       1 RES1    0.0000
     46 H20       13.4972    8.0509   13.1471 H         1 RES1    0.0000
     47 H21       12.5704    6.8616   13.7185 H         1 RES1    0.0000
     48 O5         8.9707   11.4008   11.2608 O.2       2 RES2    0.0000
     49 O6         5.0613   12.4703   12.7917 O.2       2 RES2    0.0000
     50 O7         4.2135   14.2992   13.5239 O.2       2 RES2    0.0000
     51 O8         6.5072   15.8589    8.8435 O.2       2 RES2    0.0000
     52 N4         5.1596   13.6435   13.1139 N.pl3     2 RES2    0.0000
     53 N5        10.7819   12.3867   12.1654 N.am      2 RES2    0.0000
     54 H22       11.2770   11.6643   12.0781 H         2 RES2    0.0000
     55 H23       11.1254   13.1153   12.5197 H         2 RES2    0.0000
     56 N6        10.1542   15.7242   12.4638 N.1       2 RES2    0.0000
     57 C20        9.5176   12.3771   11.7629 C.2       2 RES2    0.0000
     58 C21        6.5108   14.3602   12.9088 C.3       2 RES2    0.0000
     59 C22        9.4956   14.8065   12.2887 C.1       2 RES2    0.0000
     60 C23        6.6111   14.8076   11.4108 C.3       2 RES2    0.0000
     61 H24        6.9520   15.7477   11.4135 H         2 RES2    0.0000
     62 C24        8.6606   13.6353   12.0008 C.3       2 RES2    0.0000
     63 C25        7.6299   13.3207   13.1213 C.3       2 RES2    0.0000
     64 H25        7.2254   12.4416   12.8692 H         2 RES2    0.0000
     65 C26        4.2505   15.3859    8.3645 C.ar      2 RES2    0.0000
     66 C27        6.5754   15.5555   13.8453 C.3       2 RES2    0.0000
     67 H26        5.7169   16.0462   13.7976 H         2 RES2    0.0000
     68 H27        7.2895   16.1670   13.5350 H         2 RES2    0.0000
     69 C28        5.3081   14.8175   10.6290 C.3       2 RES2    0.0000
     70 H28        4.9730   13.8893   10.5495 H         2 RES2    0.0000
     71 H29        4.6344   15.3401   11.1320 H         2 RES2    0.0000
     72 C29        7.7203   13.9387   10.8145 C.3       2 RES2    0.0000
     73 H30        8.2020   14.4250   10.0993 H         2 RES2    0.0000
     74 H31        7.3478   13.1021   10.4381 H         2 RES2    0.0000
     75 C30        5.4564   15.4091    9.2416 C.2       2 RES2    0.0000
     76 C31        6.8465   15.1772   15.2942 C.3       2 RES2    0.0000
     77 H32        6.1126   14.6068   15.6352 H         2 RES2    0.0000
     78 H33        6.8894   15.9939   15.8521 H         2 RES2    0.0000
     79 C32        4.4398   15.3442    6.9832 C.ar      2 RES2    0.0000
     80 H34        5.3188   15.3253    6.6235 H         2 RES2    0.0000
     81 C33        2.0618   15.3856    6.6601 C.ar      2 RES2    0.0000
     82 H35        1.3127   15.3890    6.0763 H         2 RES2    0.0000
     83 C34        8.1121   13.1456   14.5605 C.3       2 RES2    0.0000
     84 H36        7.5108   12.5059   15.0179 H         2 RES2    0.0000
     85 H37        9.0167   12.7437   14.5423 H         2 RES2    0.0000
     86 C35        8.1687   14.4237   15.3783 C.3       2 RES2    0.0000
     87 H38        8.8994   14.9999   15.0406 H         2 RES2    0.0000
     88 H39        8.3635   14.2028   16.3234 H         2 RES2    0.0000
     89 C36        2.9622   15.4211    8.8837 C.ar      2 RES2    0.0000
     90 H40        2.8295   15.4349    9.8244 H         2 RES2    0.0000
     91 C37        3.3425   15.3301    6.1367 C.ar      2 RES2    0.0000
     92 H41        3.4688   15.2824    5.1963 H         2 RES2    0.0000
     93 C38        1.8683   15.4360    8.0282 C.ar      2 RES2    0.0000
     94 H42        0.9880   15.4807    8.3825 H         2 RES2    0.0000
@<TRIPOS>BOND
     1    1    5 2
     2    2    5 2
     3    3   13 2
     4    4   33 2
     5    5   10 1
     6    6    7 1
     7    8    6 1
     8    9   29 3
     9   10   11 1
    10   11   12 1
    11   13    6 1
    12   14   11 1
    13   15   14 1
    14   16   14 1
    15   17   10 1
    16   18   17 1
    17   19   23 ar
    18   20   10 1
    19   21   20 1
    20   22   20 1
    21   23   24 1
    22   25   17 1
    23   26   25 1
    24   27   25 1
    25   28   13 1
    26   29   28 1
    27   30   20 1
    28   31   30 1
    29   32   30 1
    30   33   14 1
    31   34   19 ar
    32   35   34 1
    33   36   23 ar
    34   37   36 1
    35   38   36 ar
    36   39   38 1
    37   40   25 1
    38   41   40 1
    39   42   40 1
    40   43   34 ar
    41   44   43 1
    42   45   11 1
    43   46   45 1
    44   47   45 1
    45   48   57 2
    46   49   52 2
    47   50   52 2
    48   51   75 2
    49   52   58 1
    50   53   54 1
    51   55   53 1
    52   56   59 3
    53   57   53 1
    54   58   60 1
    55   59   62 1
    56   60   61 1
    57   62   57 1
    58   63   58 1
    59   64   63 1
    60   65   75 1
    61   66   58 1
    62   67   66 1
    63   68   66 1
    64   69   60 1
    65   70   69 1
    66   71   69 1
    67   72   60 1
    68   73   72 1
    69   74   72 1
    70   75   69 1
    71   76   66 1
    72   77   76 1
    73   78   76 1
    74   79   65 ar
    75   80   79 1
    76   81   82 1
    77   83   63 1
    78   84   83 1
    79   85   83 1
    80   86   76 1
    81   87   86 1
    82   88   86 1
    83   89   65 ar
    84   90   89 1
    85   91   79 ar
    86   92   91 1
    87   93   81 ar
    88   94   93 1
    89   17   28 1
    90   19   33 1
    91   28   45 1
    92   30   40 1
    93   38   43 ar
    94   62   63 1
    95   62   72 1
    96   81   91 ar
    97   83   86 1
    98   89   93 ar
@<TRIPOS>SUBSTRUCTURE
     1 RES1 1
     2 RES2 48

@<TRIPOS>CRYSIN
   8.6988   13.2342   15.8854  86.3890  81.1780  76.5240   2 1

