# MOL2 file generated by ConQuest
# Please check atom types

@<TRIPOS>MOLECULE
CEKKEI
    30    30     1
SMALL
NO_CHARGES
****
Generated from CSD

@<TRIPOS>ATOM
      1 O1         3.8444    2.1743    1.7082 O.3       1 RES1    0.0000
      2 O2         2.9410    1.0358    1.8096 O.3       1 RES1    0.0000
      3 O3         2.4040    1.8244    3.8227 O.2       1 RES1    0.0000
      4 O4        -0.8749   -3.1508    5.8700 O.2       1 RES1    0.0000
      5 O5        -0.2967   -1.2290    6.6259 O.2       1 RES1    0.0000
      6 N1        -0.3764   -2.0385    5.7288 N.pl3     1 RES1    0.0000
      7 C1         2.1912    3.5129    0.5483 C.3       1 RES1    0.0000
      8 C2         3.6572    1.8870   -0.7276 C.3       1 RES1    0.0000
      9 C3         4.6710    3.8768    0.4469 C.3       1 RES1    0.0000
     10 C4         3.5544    2.8479    0.4575 C.3       1 RES1    0.0000
     11 C5         2.2801    1.0044    2.9889 C.2       1 RES1    0.0000
     12 C6         1.4373   -0.2193    3.0635 C.ar      1 RES1    0.0000
     13 C7         1.1740   -1.0131    1.9718 C.ar      1 RES1    0.0000
     14 C8         0.4278   -2.1638    2.1365 C.ar      1 RES1    0.0000
     15 C9        -0.0873   -2.5207    3.3515 C.ar      1 RES1    0.0000
     16 C10        0.1816   -1.6973    4.4076 C.ar      1 RES1    0.0000
     17 C11        0.9115   -0.5414    4.3143 C.ar      1 RES1    0.0000
     18 H1         1.9848    4.0230   -0.3788 H         1 RES1    0.0000
     19 H2         2.1769    4.2249    1.3586 H         1 RES1    0.0000
     20 H3         1.4430    2.7557    0.7186 H         1 RES1    0.0000
     21 H4         3.4341    2.4110   -1.6433 H         1 RES1    0.0000
     22 H5         2.9522    1.0828   -0.5905 H         1 RES1    0.0000
     23 H6         4.6534    1.4814   -0.7787 H         1 RES1    0.0000
     24 H7         4.5817    4.4826   -0.4404 H         1 RES1    0.0000
     25 H8         5.6185    3.3632    0.4396 H         1 RES1    0.0000
     26 H9         4.6093    4.5087    1.3197 H         1 RES1    0.0000
     27 H10        1.5462   -0.7329    1.0001 H         1 RES1    0.0000
     28 H11        0.2476   -2.7992    1.2840 H         1 RES1    0.0000
     29 H12       -0.6822   -3.4154    3.4634 H         1 RES1    0.0000
     30 H13        1.0802    0.0888    5.1732 H         1 RES1    0.0000
@<TRIPOS>BOND
     1    1    2 1
     2    2   11 1
     3    3   11 2
     4    4    6 2
     5    5    6 2
     6    6   16 1
     7    7   10 1
     8    8   10 1
     9    9   10 1
    10   10    1 1
    11   11   12 1
    12   12   13 ar
    13   13   14 ar
    14   14   15 ar
    15   15   16 ar
    16   16   17 ar
    17   17   12 ar
    18   18    7 1
    19   19    7 1
    20   20    7 1
    21   21    8 1
    22   22    8 1
    23   23    8 1
    24   24    9 1
    25   25    9 1
    26   26    9 1
    27   27   13 1
    28   28   14 1
    29   29   15 1
    30   30   17 1
@<TRIPOS>SUBSTRUCTURE
     1 RES1 1

@<TRIPOS>CRYSIN
   8.4620   17.4080    8.2790  90.0000 101.5600  90.0000  14 1

