# MOL2 file generated by ConQuest
# Please check atom types

@<TRIPOS>MOLECULE
CEKNIP
    34    36     1
SMALL
NO_CHARGES
****
Generated from CSD

@<TRIPOS>ATOM
      1 O1        -1.0126   -1.1139   20.8967 O.2       1 RES1    0.0000
      2 O2         1.5262    1.5918   22.7839 O.3       1 RES1    0.0000
      3 N1         0.7858    0.6040   22.1216 N.2       1 RES1    0.0000
      4 C1        -1.9738    0.8681   19.8466 C.3       1 RES1    0.0000
      5 C2        -1.0776    0.0902   20.7516 C.2       1 RES1    0.0000
      6 C3        -0.2142    1.0652   21.4933 C.2       1 RES1    0.0000
      7 C4        -0.6924    2.4520   21.3050 C.3       1 RES1    0.0000
      8 C5         0.3167    3.4063   20.6314 C.3       1 RES1    0.0000
      9 C6        -0.0619    3.5890   19.2841 C.3       1 RES1    0.0000
     10 C7        -1.3414    2.8150   19.0028 C.3       1 RES1    0.0000
     11 C8        -1.2145    1.3517   18.5650 C.3       1 RES1    0.0000
     12 C9        -1.8986    2.3586   20.3546 C.3       1 RES1    0.0000
     13 C10       -3.1185    3.0424   20.8854 C.3       1 RES1    0.0000
     14 C11       -3.3670    0.2992   19.6152 C.3       1 RES1    0.0000
     15 C12       -3.5324   -1.1338   19.1162 C.3       1 RES1    0.0000
     16 C13       -4.9859   -1.4354   18.9075 C.3       1 RES1    0.0000
     17 C14       -2.7524   -1.4378   17.8528 C.3       1 RES1    0.0000
     18 H1        -0.8500    2.8238   22.1828 H         1 RES1    0.0000
     19 H2        -1.8170    3.4198   18.4063 H         1 RES1    0.0000
     20 H3        -1.6299    1.1370   17.7281 H         1 RES1    0.0000
     21 H4        -0.2954    1.0453   18.5129 H         1 RES1    0.0000
     22 H5        -2.8889    3.9489   21.1825 H         1 RES1    0.0000
     23 H6        -3.8254    3.0959   20.2866 H         1 RES1    0.0000
     24 H7        -3.4299    2.5900   21.6997 H         1 RES1    0.0000
     25 H8        -3.8260    0.3822   20.4363 H         1 RES1    0.0000
     26 H9        -3.7912    0.8809   18.9688 H         1 RES1    0.0000
     27 H10       -3.1403   -1.7067   19.7717 H         1 RES1    0.0000
     28 H11       -5.3477   -0.8498   18.2702 H         1 RES1    0.0000
     29 H12       -5.0846   -2.3411   18.6059 H         1 RES1    0.0000
     30 H13       -5.4397   -1.3429   19.7377 H         1 RES1    0.0000
     31 H14       -1.8273   -1.2998   17.9844 H         1 RES1    0.0000
     32 H15       -3.0594   -0.8809   17.1384 H         1 RES1    0.0000
     33 H16       -2.8937   -2.3554   17.5920 H         1 RES1    0.0000
     34 H17        2.5116    0.9974   23.1241 H         1 RES1    0.0000
@<TRIPOS>BOND
     1    1    5 2
     2    2    3 1
     3    3    6 2
     4    4    5 1
     5    5    6 1
     6    6    7 1
     7    7    8 1
     8    8    9 1
     9    9   10 1
    10   10   11 1
    11   11    4 1
    12   12    4 1
    13   13   12 1
    14   14    4 1
    15   15   14 1
    16   16   15 1
    17   17   15 1
    18   18    7 1
    19   19   10 1
    20   20   11 1
    21   21   11 1
    22   22   13 1
    23   23   13 1
    24   24   13 1
    25   25   14 1
    26   26   14 1
    27   27   15 1
    28   28   16 1
    29   29   16 1
    30   30   16 1
    31   31   17 1
    32   32   17 1
    33   33   17 1
    34   34    2 1
    35    7   12 1
    36   10   12 1
@<TRIPOS>SUBSTRUCTURE
     1 RES1 1

@<TRIPOS>CRYSIN
   7.3367    7.9791   23.2980  90.0000 103.2070  90.0000  14 1

