# MOL2 file generated by ConQuest
# Please check atom types

@<TRIPOS>MOLECULE
CEKVOD
    29    30     1
SMALL
NO_CHARGES
****
Generated from CSD

@<TRIPOS>ATOM
      1 C1         2.4435    0.1128    8.2675 C.ar      1 RES1    0.0000
      2 C2         1.7431   -0.4365    7.2812 C.ar      1 RES1    0.0000
      3 C3         3.7580    0.4657    8.1244 C.ar      1 RES1    0.0000
      4 C4         4.5393    0.1433    6.9653 C.ar      1 RES1    0.0000
      5 C5         2.3666   -0.7558    6.0680 C.ar      1 RES1    0.0000
      6 C6         3.7230   -0.4017    5.9824 C.ar      1 RES1    0.0000
      7 N1         5.8527    0.4357    6.7209 N.3       1 RES1    0.0000
      8 N2         6.4039    0.0984    5.5390 N.2       1 RES1    0.0000
      9 C7         7.6831    0.3838    5.4849 C.2       1 RES1    0.0000
     10 C8         8.3433    0.1132    4.2036 C.ar      1 RES1    0.0000
     11 C9         7.8207   -0.4572    3.0672 C.ar      1 RES1    0.0000
     12 C10        8.6363   -0.5684    1.9813 C.ar      1 RES1    0.0000
     13 C11        9.9625   -0.1288    1.9552 C.ar      1 RES1    0.0000
     14 C12       10.5327    0.3498    3.1160 C.ar      1 RES1    0.0000
     15 C13        9.6843    0.5692    4.2280 C.ar      1 RES1    0.0000
     16 N3         4.4217    1.1087    9.2172 N.pl3     1 RES1    0.0000
     17 O1         5.6225    1.4363    9.1229 O.2       1 RES1    0.0000
     18 O2         3.7745    1.4476   10.1878 O.2       1 RES1    0.0000
     19 H1         2.0174    0.2834    9.0985 H         1 RES1    0.0000
     20 H2         0.8237   -0.6324    7.4104 H         1 RES1    0.0000
     21 H3         1.9088   -1.1837    5.3540 H         1 RES1    0.0000
     22 H4         4.1257   -0.5255    5.1323 H         1 RES1    0.0000
     23 H5         6.2956    0.8854    7.5902 H         1 RES1    0.0000
     24 H6         8.1527    0.7234    6.2373 H         1 RES1    0.0000
     25 H7         6.9218   -0.7570    3.0375 H         1 RES1    0.0000
     26 H8         8.2778   -0.9815    1.2045 H         1 RES1    0.0000
     27 H9        10.4528   -0.1499    1.1399 H         1 RES1    0.0000
     28 H10       11.4647    0.5087    3.1771 H         1 RES1    0.0000
     29 H11       10.0062    1.0431    4.9839 H         1 RES1    0.0000
@<TRIPOS>BOND
     1    1    2 ar
     2    2    5 ar
     3    3    1 ar
     4    4    3 ar
     5    5    6 ar
     6    6    4 ar
     7    7    4 1
     8    8    7 1
     9    9    8 2
    10   10    9 1
    11   11   10 ar
    12   12   11 ar
    13   13   12 ar
    14   14   13 ar
    15   15   10 ar
    16   16    3 1
    17   17   16 2
    18   18   16 2
    19   19    1 1
    20   20    2 1
    21   21    5 1
    22   22    6 1
    23   23    7 1
    24   24    9 1
    25   25   11 1
    26   26   12 1
    27   27   13 1
    28   28   14 1
    29   29   15 1
    30   14   15 ar
@<TRIPOS>SUBSTRUCTURE
     1 RES1 1

@<TRIPOS>CRYSIN
  16.7100    3.9040   17.7100  90.0000  99.7000  90.0000 231 1

