# MOL2 file generated by ConQuest
# Please check atom types

@<TRIPOS>MOLECULE
CELKAI
    80    86     2
SMALL
NO_CHARGES
****
Generated from CSD

@<TRIPOS>ATOM
      1 O1         4.1395    7.3452   13.4135 O.2       1 RES1    0.0000
      2 O2         1.1051    5.5458    8.8127 O.2       1 RES1    0.0000
      3 O3         0.7630    3.7749   10.7707 O.3       1 RES1    0.0000
      4 O4        -0.8538    4.7844   13.1286 O.2       1 RES1    0.0000
      5 O5         0.3489    6.2251   14.3661 O.3       1 RES1    0.0000
      6 N1         0.9999    5.1311   11.0301 N.am      1 RES1    0.0000
      7 N2         2.1965    6.5780   12.4694 N.am      1 RES1    0.0000
      8 C1         3.3247    6.4559   13.2404 C.2       1 RES1    0.0000
      9 C2         3.3173    5.0715   13.8467 C.3       1 RES1    0.0000
     10 H1         3.0026    5.0981   14.7853 H         1 RES1    0.0000
     11 H2         4.2217    4.6710   13.8235 H         1 RES1    0.0000
     12 C3         2.3505    4.2843   12.9704 C.3       1 RES1    0.0000
     13 H3         1.8508    3.6152   13.5018 H         1 RES1    0.0000
     14 H4         2.8291    3.8226   12.2363 H         1 RES1    0.0000
     15 C4         1.4006    5.3807   12.4167 C.3       1 RES1    0.0000
     16 C5         1.2162    5.9494    9.9628 C.2       1 RES1    0.0000
     17 C6         1.4669    7.4179   10.2508 C.3       1 RES1    0.0000
     18 H5         2.1558    7.7645    9.6136 H         1 RES1    0.0000
     19 C7         0.1412    8.2374   10.0709 C.3       1 RES1    0.0000
     20 H6        -0.4245    7.9899    9.2846 H         1 RES1    0.0000
     21 C8         0.5531    9.6952   10.1638 C.2       1 RES1    0.0000
     22 H7         0.5816   10.3154    9.4446 H         1 RES1    0.0000
     23 C9         0.8662    9.9488   11.4299 C.2       1 RES1    0.0000
     24 H8         1.1463   10.7851   11.7833 H         1 RES1    0.0000
     25 C10        0.6946    8.6521   12.2091 C.3       1 RES1    0.0000
     26 H9         0.5942    8.7388   13.1998 H         1 RES1    0.0000
     27 C11        1.8919    7.7708   11.7029 C.3       1 RES1    0.0000
     28 H10        2.7126    8.3412   11.6646 H         1 RES1    0.0000
     29 C12       -0.5018    8.0493   11.4509 C.3       1 RES1    0.0000
     30 H11       -0.6611    7.0988   11.6754 H         1 RES1    0.0000
     31 H12       -1.3338    8.5741   11.5640 H         1 RES1    0.0000
     32 C13        0.1442    5.4275   13.3208 C.2       1 RES1    0.0000
     33 C14       -0.7351    6.2661   15.3274 C.3       1 RES1    0.0000
     34 H13       -0.5331    6.9293   16.0202 H         1 RES1    0.0000
     35 H14       -0.8393    5.3831   15.7398 H         1 RES1    0.0000
     36 H15       -1.5668    6.5137   14.8715 H         1 RES1    0.0000
     37 C15       -0.5735    3.5819   10.2557 C.3       1 RES1    0.0000
     38 H16       -1.1999    4.1474   10.7532 H         1 RES1    0.0000
     39 H17       -0.8306    2.6418   10.3578 H         1 RES1    0.0000
     40 H18       -0.5964    3.8254    9.3062 H         1 RES1    0.0000
     41 O6         2.4792    0.8664    7.3806 O.2       2 RES2    0.0000
     42 O7         4.4870    6.0301    9.9837 O.2       2 RES2    0.0000
     43 O8         2.3502    3.0016    5.7843 O.3       2 RES2    0.0000
     44 O9         5.1444    2.8620    5.3301 O.2       2 RES2    0.0000
     45 O10        6.2598    4.4389    6.4769 O.3       2 RES2    0.0000
     46 N3         2.9794    3.0527    7.0378 N.am      2 RES2    0.0000
     47 N4         4.3530    4.3101    8.4766 N.am      2 RES2    0.0000
     48 C16        4.3260    5.6287    8.8456 C.2       2 RES2    0.0000
     49 C17        4.0928    6.4541    7.6021 C.3       2 RES2    0.0000
     50 H19        4.9447    6.8195    7.2533 H         2 RES2    0.0000
     51 H20        3.4708    7.2030    7.7836 H         2 RES2    0.0000
     52 C18        3.4812    5.4597    6.6222 C.3       2 RES2    0.0000
     53 H21        3.7745    5.6501    5.6966 H         2 RES2    0.0000
     54 H22        2.4919    5.4901    6.6583 H         2 RES2    0.0000
     55 C19        4.0078    4.0885    7.0957 C.3       2 RES2    0.0000
     56 C20        3.0546    1.8797    7.7387 C.2       2 RES2    0.0000
     57 C21        3.7679    1.9399    9.0818 C.3       2 RES2    0.0000
     58 H23        3.0959    1.7631    9.8005 H         2 RES2    0.0000
     59 C22        4.8889    0.8457    9.1778 C.3       2 RES2    0.0000
     60 H24        4.6765   -0.0369    8.7579 H         2 RES2    0.0000
     61 C23        5.3176    0.8034   10.6319 C.2       2 RES2    0.0000
     62 H25        5.1340    0.1079   11.2512 H         2 RES2    0.0000
     63 C24        5.9995    1.9192   10.8803 C.2       2 RES2    0.0000
     64 H26        6.4040    2.1589   11.7060 H         2 RES2    0.0000
     65 C25        6.0132    2.7389    9.6013 C.3       2 RES2    0.0000
     66 H27        6.7260    3.4363    9.5327 H         2 RES2    0.0000
     67 C26        4.5391    3.2435    9.4462 C.3       2 RES2    0.0000
     68 H28        4.2180    3.5641   10.3380 H         2 RES2    0.0000
     69 C27        6.0713    1.6116    8.5668 C.3       2 RES2    0.0000
     70 H29        6.9186    1.1012    8.5997 H         2 RES2    0.0000
     71 H30        5.8936    1.9250    7.6452 H         2 RES2    0.0000
     72 C28        5.2018    3.6905    6.1952 C.2       2 RES2    0.0000
     73 C29        7.4026    4.2428    5.6056 C.3       2 RES2    0.0000
     74 H31        7.2024    4.6066    4.7187 H         2 RES2    0.0000
     75 H32        7.5947    3.2848    5.5294 H         2 RES2    0.0000
     76 H33        8.1821    4.7041    5.9806 H         2 RES2    0.0000
     77 C30        0.9270    3.1353    5.9616 C.3       2 RES2    0.0000
     78 H34        0.4875    3.1333    5.0854 H         2 RES2    0.0000
     79 H35        0.7325    3.9779    6.4228 H         2 RES2    0.0000
     80 H36        0.5926    2.3862    6.4965 H         2 RES2    0.0000
@<TRIPOS>BOND
     1    1    8 2
     2    2   16 2
     3    3    6 1
     4    4   32 2
     5    5   32 1
     6    6   15 1
     7    7    8 1
     8    8    9 1
     9    9   10 1
    10   11    9 1
    11   12    9 1
    12   13   12 1
    13   14   12 1
    14   15    7 1
    15   16    6 1
    16   17   16 1
    17   18   17 1
    18   19   17 1
    19   20   19 1
    20   21   19 1
    21   22   21 1
    22   23   21 2
    23   24   23 1
    24   25   23 1
    25   26   25 1
    26   27    7 1
    27   28   27 1
    28   29   19 1
    29   30   29 1
    30   31   29 1
    31   32   15 1
    32   33    5 1
    33   34   33 1
    34   35   33 1
    35   36   33 1
    36   37    3 1
    37   38   37 1
    38   39   37 1
    39   40   37 1
    40   41   56 2
    41   42   48 2
    42   43   46 1
    43   44   72 2
    44   45   72 1
    45   46   55 1
    46   47   48 1
    47   48   49 1
    48   49   50 1
    49   51   49 1
    50   52   49 1
    51   53   52 1
    52   54   52 1
    53   55   47 1
    54   56   46 1
    55   57   56 1
    56   58   57 1
    57   59   57 1
    58   60   59 1
    59   61   59 1
    60   62   61 1
    61   63   61 2
    62   64   63 1
    63   65   63 1
    64   66   65 1
    65   67   47 1
    66   68   67 1
    67   69   59 1
    68   70   69 1
    69   71   69 1
    70   72   55 1
    71   73   45 1
    72   74   73 1
    73   75   73 1
    74   76   73 1
    75   77   43 1
    76   78   77 1
    77   79   77 1
    78   80   77 1
    79   12   15 1
    80   17   27 1
    81   25   27 1
    82   25   29 1
    83   52   55 1
    84   57   67 1
    85   65   67 1
    86   65   69 1
@<TRIPOS>SUBSTRUCTURE
     1 RES1 1
     2 RES2 41

@<TRIPOS>CRYSIN
  16.7015    9.4689   18.1845  90.0000  98.6847  90.0000  14 1

