# MOL2 file generated by ConQuest
# Please check atom types

@<TRIPOS>MOLECULE
CELNEO
    61    64     1
SMALL
NO_CHARGES
****
Generated from CSD

@<TRIPOS>ATOM
      1 O1        -1.8534    6.0870    5.2524 O.3       1 RES1    0.0000
      2 O2         1.4098    8.3516    8.3227 O.2       1 RES1    0.0000
      3 O3         1.1317    9.5278    6.4299 O.3       1 RES1    0.0000
      4 O4        -1.2754    9.9313    8.0101 O.2       1 RES1    0.0000
      5 O5        -3.2850    9.2586    7.2844 O.3       1 RES1    0.0000
      6 O6        -5.4872    3.5664   10.7561 O.2       1 RES1    0.0000
      7 O7        -6.6772    3.0417    9.0657 O.2       1 RES1    0.0000
      8 N1         0.2814    6.4644    6.1364 N.pl3     1 RES1    0.0000
      9 N2        -5.7591    3.6485    9.5769 N.pl3     1 RES1    0.0000
     10 C1        -1.0459    0.9290    3.9427 C.ar      1 RES1    0.0000
     11 H1        -1.7012    0.8213    4.5934 H         1 RES1    0.0000
     12 C2        -0.8074   -0.0898    3.0320 C.ar      1 RES1    0.0000
     13 H2        -1.2974   -0.8790    3.0850 H         1 RES1    0.0000
     14 C3         0.1382    0.0558    2.0595 C.ar      1 RES1    0.0000
     15 H3         0.2871   -0.6268    1.4455 H         1 RES1    0.0000
     16 C4         0.8662    1.2131    1.9927 C.ar      1 RES1    0.0000
     17 H4         1.5092    1.3158    1.3301 H         1 RES1    0.0000
     18 C5         0.6495    2.2348    2.9083 C.ar      1 RES1    0.0000
     19 H5         1.1585    3.0125    2.8595 H         1 RES1    0.0000
     20 C6        -0.3151    2.1086    3.8936 C.ar      1 RES1    0.0000
     21 C7        -0.5874    3.1666    4.8809 C.2       1 RES1    0.0000
     22 H6        -1.0480    2.9053    5.6439 H         1 RES1    0.0000
     23 C8        -0.2558    4.4355    4.8119 C.2       1 RES1    0.0000
     24 H7         0.2854    4.7218    4.1127 H         1 RES1    0.0000
     25 C9        -0.7226    5.4329    5.8213 C.3       1 RES1    0.0000
     26 H8        -0.9873    4.9704    6.6437 H         1 RES1    0.0000
     27 C10        2.3319    5.2511    6.6057 C.ar      1 RES1    0.0000
     28 H9         1.8817    4.7596    7.2537 H         1 RES1    0.0000
     29 C11        3.6675    5.0052    6.3476 C.ar      1 RES1    0.0000
     30 H10        4.1124    4.3381    6.8184 H         1 RES1    0.0000
     31 C12        4.3411    5.7341    5.4069 C.ar      1 RES1    0.0000
     32 H11        5.2399    5.5620    5.2384 H         1 RES1    0.0000
     33 C13        3.6895    6.7166    4.7149 C.ar      1 RES1    0.0000
     34 H12        4.1536    7.2209    4.0848 H         1 RES1    0.0000
     35 C14        2.3458    6.9683    4.9421 C.ar      1 RES1    0.0000
     36 H13        1.9004    7.6271    4.4588 H         1 RES1    0.0000
     37 C15        1.6757    6.2296    5.8940 C.ar      1 RES1    0.0000
     38 C16       -0.1792    7.6040    6.7110 C.2       1 RES1    0.0000
     39 C17        0.8736    8.5351    7.2704 C.2       1 RES1    0.0000
     40 C18        2.0613   10.5200    6.9029 C.3       1 RES1    0.0000
     41 H14        2.1522   11.2132    6.2451 H         1 RES1    0.0000
     42 H15        2.9161   10.1109    7.0562 H         1 RES1    0.0000
     43 H16        1.7349   10.8980    7.7238 H         1 RES1    0.0000
     44 C19       -1.5062    7.8716    6.8302 C.2       1 RES1    0.0000
     45 C20       -1.9551    9.1113    7.4424 C.2       1 RES1    0.0000
     46 C21       -3.8523   10.4802    7.7938 C.3       1 RES1    0.0000
     47 H17       -3.4025   11.2313    7.3987 H         1 RES1    0.0000
     48 H18       -3.7468   10.5099    8.7481 H         1 RES1    0.0000
     49 H19       -4.7867   10.5153    7.5735 H         1 RES1    0.0000
     50 C22       -2.5175    6.9547    6.1906 C.3       1 RES1    0.0000
     51 H20       -3.1284    7.5199    5.6736 H         1 RES1    0.0000
     52 C23       -3.3720    6.1278    7.1390 C.ar      1 RES1    0.0000
     53 C24       -4.4474    5.4303    6.6085 C.ar      1 RES1    0.0000
     54 H21       -4.6397    5.5089    5.7016 H         1 RES1    0.0000
     55 C25       -5.2336    4.6247    7.4003 C.ar      1 RES1    0.0000
     56 H22       -5.9517    4.1562    7.0387 H         1 RES1    0.0000
     57 C26       -4.9306    4.5295    8.7411 C.ar      1 RES1    0.0000
     58 C27       -3.8835    5.2078    9.3027 C.ar      1 RES1    0.0000
     59 H23       -3.7020    5.1307   10.2111 H         1 RES1    0.0000
     60 C28       -3.0975    6.0133    8.4908 C.ar      1 RES1    0.0000
     61 H24       -2.3832    6.4797    8.8582 H         1 RES1    0.0000
@<TRIPOS>BOND
     1    1   25 1
     2    2   39 2
     3    3   39 1
     4    4   45 2
     5    5   45 1
     6    6    9 2
     7    7    9 2
     8    8   25 1
     9    9   57 1
    10   10   11 1
    11   12   10 ar
    12   13   12 1
    13   14   12 ar
    14   15   14 1
    15   16   14 ar
    16   17   16 1
    17   18   16 ar
    18   19   18 1
    19   20   10 ar
    20   21   20 1
    21   22   21 1
    22   23   21 2
    23   24   23 1
    24   25   23 1
    25   26   25 1
    26   27   28 1
    27   29   27 ar
    28   30   29 1
    29   31   29 ar
    30   32   31 1
    31   33   31 ar
    32   34   33 1
    33   35   33 ar
    34   36   35 1
    35   37    8 1
    36   38    8 1
    37   39   38 1
    38   40    3 1
    39   41   40 1
    40   42   40 1
    41   43   40 1
    42   44   38 2
    43   45   44 1
    44   46    5 1
    45   47   46 1
    46   48   46 1
    47   49   46 1
    48   50    1 1
    49   51   50 1
    50   52   50 1
    51   53   52 ar
    52   54   53 1
    53   55   53 ar
    54   56   55 1
    55   57   55 ar
    56   58   57 ar
    57   59   58 1
    58   60   52 ar
    59   61   60 1
    60   18   20 ar
    61   27   37 ar
    62   35   37 ar
    63   44   50 1
    64   58   60 ar
@<TRIPOS>SUBSTRUCTURE
     1 RES1 1

@<TRIPOS>CRYSIN
  32.0666    9.0059   22.7975  90.0000 129.9420  90.0000  15 1

