# MOL2 file generated by ConQuest
# Please check atom types

@<TRIPOS>MOLECULE
CELQEQ
    49    52     1
SMALL
NO_CHARGES
****
Generated from CSD

@<TRIPOS>ATOM
      1 C1        15.3164    2.0000    0.2755 C.2       1 RES1    0.0000
      2 O1        15.5517    0.8509    0.6213 O.2       1 RES1    0.0000
      3 C2        13.2560    1.9897    1.7801 C.3       1 RES1    0.0000
      4 H1        13.6789    1.1236    1.9561 H         1 RES1    0.0000
      5 C3        13.9324    2.5961    0.5305 C.3       1 RES1    0.0000
      6 H2        14.0098    3.4557    0.6552 H         1 RES1    0.0000
      7 C4        12.9235    2.2206   -0.5415 C.3       1 RES1    0.0000
      8 H3        13.0356    1.2570   -0.6078 H         1 RES1    0.0000
      9 C5        12.8960    2.9414   -1.8551 C.3       1 RES1    0.0000
     10 H4        13.7961    2.7532   -2.3919 H         1 RES1    0.0000
     11 H5        12.8186    3.8871   -1.7130 H         1 RES1    0.0000
     12 C6        11.7023    2.4457   -2.6627 C.3       1 RES1    0.0000
     13 H6        11.8462    1.5192   -2.9137 H         1 RES1    0.0000
     14 H7        11.6262    2.9678   -3.4765 H         1 RES1    0.0000
     15 C7        10.4102    2.5569   -1.8693 C.3       1 RES1    0.0000
     16 H8        10.2703    3.5762   -1.7209 H         1 RES1    0.0000
     17 H9         9.6676    2.1583   -2.3208 H         1 RES1    0.0000
     18 C8        10.5319    1.8881   -0.5131 C.3       1 RES1    0.0000
     19 H10        9.7521    1.9444    0.1421 H         1 RES1    0.0000
     20 H11       10.6797    0.9238   -0.4894 H         1 RES1    0.0000
     21 N1        11.6715    2.4872    0.1705 N.3       1 RES1    0.0000
     22 O2        11.8941    1.7433    1.4154 O.3       1 RES1    0.0000
     23 N2        16.2144    2.7318   -0.4121 N.am      1 RES1    0.0000
     24 C9        17.5364    2.1512   -0.6939 C.3       1 RES1    0.0000
     25 H12       17.4961    1.2912   -0.4657 H         1 RES1    0.0000
     26 H13       18.1747    2.6278   -0.1263 H         1 RES1    0.0000
     27 C10       17.9245    2.3359   -2.1338 C.3       1 RES1    0.0000
     28 H14       18.8462    1.8908   -2.1867 H         1 RES1    0.0000
     29 H15       17.3550    1.7668   -2.6761 H         1 RES1    0.0000
     30 C11       17.8681    3.7927   -2.5458 C.3       1 RES1    0.0000
     31 H16       18.0763    3.9675   -3.5365 H         1 RES1    0.0000
     32 H17       18.5926    4.1825   -1.9498 H         1 RES1    0.0000
     33 C12       16.5045    4.3715   -2.2332 C.3       1 RES1    0.0000
     34 H18       15.8476    3.9730   -2.7945 H         1 RES1    0.0000
     35 H19       16.4822    5.4002   -2.5024 H         1 RES1    0.0000
     36 C13       16.0999    4.1293   -0.7918 C.3       1 RES1    0.0000
     37 H20       16.7375    4.6649   -0.1895 H         1 RES1    0.0000
     38 H21       15.1799    4.4753   -0.6947 H         1 RES1    0.0000
     39 C14       13.3632    2.8198    3.0447 C.ar      1 RES1    0.0000
     40 C15       12.2465    3.3341    3.6660 C.ar      1 RES1    0.0000
     41 H22       11.3599    3.3302    3.2287 H         1 RES1    0.0000
     42 C16       12.3639    4.0144    4.8785 C.ar      1 RES1    0.0000
     43 H23       11.5621    4.3782    5.2969 H         1 RES1    0.0000
     44 C17       13.5930    4.1825    5.4524 C.ar      1 RES1    0.0000
     45 H24       13.6944    4.6190    6.3231 H         1 RES1    0.0000
     46 C18       14.7136    3.7037    4.8256 C.ar      1 RES1    0.0000
     47 H25       15.5427    3.7819    5.2338 H         1 RES1    0.0000
     48 C19       14.6078    3.0134    3.6297 C.ar      1 RES1    0.0000
     49 H26       15.4103    2.5869    3.2997 H         1 RES1    0.0000
@<TRIPOS>BOND
     1    1    2 2
     2    3    4 1
     3    5    1 1
     4    6    5 1
     5    7    5 1
     6    8    7 1
     7    9    7 1
     8   10    9 1
     9   11    9 1
    10   12    9 1
    11   13   12 1
    12   14   12 1
    13   15   12 1
    14   16   15 1
    15   17   15 1
    16   18   15 1
    17   19   18 1
    18   20   18 1
    19   21    7 1
    20   22    3 1
    21   23    1 1
    22   24   23 1
    23   25   24 1
    24   26   24 1
    25   27   24 1
    26   28   27 1
    27   29   27 1
    28   30   27 1
    29   31   30 1
    30   32   30 1
    31   33   30 1
    32   34   33 1
    33   35   33 1
    34   36   23 1
    35   37   36 1
    36   38   36 1
    37   39    3 1
    38   40   39 ar
    39   41   40 1
    40   42   40 ar
    41   43   42 1
    42   44   42 ar
    43   45   44 1
    44   46   44 ar
    45   47   46 1
    46   48   39 ar
    47   49   48 1
    48    3    5 1
    49   18   21 1
    50   21   22 1
    51   33   36 1
    52   46   48 ar
@<TRIPOS>SUBSTRUCTURE
     1 RES1 1

@<TRIPOS>CRYSIN
  11.5490    9.4920    9.7410 120.8100 112.7900  77.6600   2 1

