# MOL2 file generated by ConQuest
# Please check atom types

@<TRIPOS>MOLECULE
CELXEW
    43    44     1
SMALL
NO_CHARGES
****
Generated from CSD

@<TRIPOS>ATOM
      1 O1         3.2853    4.7561   17.2677 O.3       1 RES1    0.0000
      2 N1         2.2422    4.2265   16.4744 N.2       1 RES1    0.0000
      3 C1         2.4814    3.0127   16.1914 C.2       1 RES1    0.0000
      4 C2         3.7438    2.4747   16.8343 C.3       1 RES1    0.0000
      5 C3         4.3705    3.7861   17.2860 C.3       1 RES1    0.0000
      6 O2         1.4795    0.9146   15.6158 O.3       1 RES1    0.0000
      7 C4         0.8322    0.2892   14.4886 C.3       1 RES1    0.0000
      8 O3         1.1333    1.1230   13.3736 O.3       1 RES1    0.0000
      9 C5         1.8524    2.2797   13.7985 C.3       1 RES1    0.0000
     10 C6         1.5200    2.2932   15.2928 C.3       1 RES1    0.0000
     11 C7        -0.6756    0.2639   14.6673 C.3       1 RES1    0.0000
     12 C8         1.4336   -1.0743   14.3000 C.3       1 RES1    0.0000
     13 C9         3.3250    2.0729   13.4908 C.3       1 RES1    0.0000
     14 C10        1.3014    3.4952   13.0762 C.3       1 RES1    0.0000
     15 C11        3.3816    1.5702   18.0034 C.2       1 RES1    0.0000
     16 C12        3.4572   -0.6069   18.8647 C.3       1 RES1    0.0000
     17 C13        5.4503    4.2736   16.3205 C.2       1 RES1    0.0000
     18 C14        6.9023    6.0372   15.8091 C.3       1 RES1    0.0000
     19 O4         2.8367    1.9704   18.9878 O.2       1 RES1    0.0000
     20 O5         3.7606    0.3262   17.7986 O.3       1 RES1    0.0000
     21 O6         5.8415    3.6633   15.3797 O.2       1 RES1    0.0000
     22 O7         5.8798    5.4757   16.6685 O.3       1 RES1    0.0000
     23 H1         4.3101    1.9502   16.2832 H         1 RES1    0.0000
     24 H2         4.6998    3.7155   18.2193 H         1 RES1    0.0000
     25 H3         0.6037    2.7067   15.4145 H         1 RES1    0.0000
     26 H4        -1.0852   -0.1177   13.8755 H         1 RES1    0.0000
     27 H5        -0.8253   -0.3867   15.3648 H         1 RES1    0.0000
     28 H6        -0.9018    1.1600   14.8436 H         1 RES1    0.0000
     29 H7         1.3908   -1.6140   15.1662 H         1 RES1    0.0000
     30 H8         2.5295   -0.8574   14.0989 H         1 RES1    0.0000
     31 H9         1.1616   -1.5299   13.5280 H         1 RES1    0.0000
     32 H10        3.6529    1.2777   13.9996 H         1 RES1    0.0000
     33 H11        3.8592    2.8749   13.7514 H         1 RES1    0.0000
     34 H12        3.4007    1.8493   12.4855 H         1 RES1    0.0000
     35 H13        0.3515    3.4801   13.2301 H         1 RES1    0.0000
     36 H14        1.4749    3.3960   12.1380 H         1 RES1    0.0000
     37 H15        1.7806    4.3039   13.4287 H         1 RES1    0.0000
     38 H16        3.7140   -1.4458   18.6165 H         1 RES1    0.0000
     39 H17        3.9509   -0.3531   19.6342 H         1 RES1    0.0000
     40 H18        2.5295   -0.5716   19.0633 H         1 RES1    0.0000
     41 H19        7.0689    6.9602   16.1343 H         1 RES1    0.0000
     42 H20        7.7108    5.5480   15.8364 H         1 RES1    0.0000
     43 H21        6.6103    6.1196   14.8684 H         1 RES1    0.0000
@<TRIPOS>BOND
     1    1    2 1
     2    2    3 2
     3    3    4 1
     4    4    5 1
     5    5    1 1
     6    6    7 1
     7    7    8 1
     8    8    9 1
     9    9   10 1
    10   10    3 1
    11   11    7 1
    12   12    7 1
    13   13    9 1
    14   14    9 1
    15   15    4 1
    16   16   20 1
    17   17    5 1
    18   18   22 1
    19   19   15 2
    20   20   15 1
    21   21   17 2
    22   22   17 1
    23   23    4 1
    24   24    5 1
    25   25   10 1
    26   26   11 1
    27   27   11 1
    28   28   11 1
    29   29   12 1
    30   30   12 1
    31   31   12 1
    32   32   13 1
    33   33   13 1
    34   34   13 1
    35   35   14 1
    36   36   14 1
    37   37   14 1
    38   38   16 1
    39   39   16 1
    40   40   16 1
    41   41   18 1
    42   42   18 1
    43   43   18 1
    44    6   10 1
@<TRIPOS>SUBSTRUCTURE
     1 RES1 1

@<TRIPOS>CRYSIN
   7.6420   16.8120   24.8220  90.0000  90.0000  90.0000  61 1

