# MOL2 file generated by ConQuest
# Please check atom types

@<TRIPOS>MOLECULE
CELZAX
    27    27     1
SMALL
NO_CHARGES
****
Generated from CSD

@<TRIPOS>ATOM
      1 C1         4.6921    3.5578    5.0214 C.ar      1 RES1    0.0000
      2 C2         5.1812    3.5368    6.3227 C.ar      1 RES1    0.0000
      3 H1         6.1165    3.5071    6.4833 H         1 RES1    0.0000
      4 C3         4.2916    3.5605    7.3781 C.ar      1 RES1    0.0000
      5 C4         2.9249    3.6017    7.1025 C.ar      1 RES1    0.0000
      6 H2         2.3044    3.6146    7.8210 H         1 RES1    0.0000
      7 C5         2.4542    3.6261    5.7923 C.ar      1 RES1    0.0000
      8 H3         1.5192    3.6572    5.6279 H         1 RES1    0.0000
      9 C6         3.3441    3.6044    4.7233 C.ar      1 RES1    0.0000
     10 H4         3.0368    3.6200    3.8243 H         1 RES1    0.0000
     11 C7         4.8043    3.6463    8.8254 C.3       1 RES1    0.0000
     12 C8         4.8301    5.1342    9.2176 C.3       1 RES1    0.0000
     13 H5         5.4081    5.6257    8.5978 H         1 RES1    0.0000
     14 H6         5.1776    5.2255   10.1297 H         1 RES1    0.0000
     15 H7         3.9213    5.4993    9.1761 H         1 RES1    0.0000
     16 C9         6.1442    2.9474    8.9575 C.2       1 RES1    0.0000
     17 H8         6.1890    2.0361    8.6927 H         1 RES1    0.0000
     18 C10        7.2503    3.5017    9.4096 C.2       1 RES1    0.0000
     19 H9         7.2480    4.4109    9.6856 H         1 RES1    0.0000
     20 H10        8.0509    2.9927    9.4609 H         1 RES1    0.0000
     21 C11        3.8444    2.9000    9.7489 C.2       1 RES1    0.0000
     22 O1         3.7458    1.6156    9.4560 O.3       1 RES1    0.0000
     23 H11        3.2178    1.2452    9.9944 H         1 RES1    0.0000
     24 O2         3.2418    3.4084   10.6661 O.2       1 RES1    0.0000
     25 N1         5.6562    3.5260    3.9174 N.pl3     1 RES1    0.0000
     26 O3         6.8391    3.5220    4.1733 O.2       1 RES1    0.0000
     27 O4         5.2394    3.4861    2.7778 O.2       1 RES1    0.0000
@<TRIPOS>BOND
     1    1    2 ar
     2    2    3 1
     3    4    2 ar
     4    5    4 ar
     5    6    5 1
     6    7    5 ar
     7    8    7 1
     8    9    1 ar
     9   10    9 1
    10   11    4 1
    11   12   11 1
    12   13   12 1
    13   14   12 1
    14   15   12 1
    15   16   11 1
    16   17   16 1
    17   18   16 2
    18   19   18 1
    19   20   18 1
    20   21   11 1
    21   22   21 1
    22   23   22 1
    23   24   21 2
    24   25    1 1
    25   26   25 2
    26   27   25 2
    27    7    9 ar
@<TRIPOS>SUBSTRUCTURE
     1 RES1 1

@<TRIPOS>CRYSIN
   7.3561    6.7600   10.9461  90.0000  94.5940  90.0000   4 1

