# MOL2 file generated by ConQuest
# Please check atom types

@<TRIPOS>MOLECULE
CELZUO
    27    29     1
SMALL
NO_CHARGES
****
Generated from CSD

@<TRIPOS>ATOM
      1 O1         1.0444    1.1340   10.4904 O.3       1 RES1    0.0000
      2 C1         0.6192    1.5194    9.2640 C.2       1 RES1    0.0000
      3 C2         0.2641    2.8055    9.1520 C.2       1 RES1    0.0000
      4 C3         0.2954    4.5924   11.0341 C.ar      1 RES1    0.0000
      5 C4         0.4567    6.0300   13.0271 C.ar      1 RES1    0.0000
      6 C5         0.7687    6.1808   14.3439 C.ar      1 RES1    0.0000
      7 C6         1.2972    5.1128   15.1084 C.ar      1 RES1    0.0000
      8 C7         1.4860    3.9002   14.5269 C.ar      1 RES1    0.0000
      9 C8         1.2915    2.3932   12.5706 C.ar      1 RES1    0.0000
     10 C9         1.1370    3.6658   13.1563 C.ar      1 RES1    0.0000
     11 C10        0.6250    4.7642   12.3972 C.ar      1 RES1    0.0000
     12 C11        0.4756    3.3525   10.4667 C.ar      1 RES1    0.0000
     13 C12        0.9584    2.2924   11.2537 C.ar      1 RES1    0.0000
     14 N1         0.6023    0.4844    8.2691 N.pl3     1 RES1    0.0000
     15 O2         0.2243    0.8197    7.1472 O.2       1 RES1    0.0000
     16 O3         0.9511   -0.6409    8.5770 O.2       1 RES1    0.0000
     17 O4         2.0186    2.8033   15.1450 O.3       1 RES1    0.0000
     18 C13        2.4785    2.9678   16.5038 C.3       1 RES1    0.0000
     19 H1        -0.0991    3.3157    8.2799 H         1 RES1    0.0000
     20 H2        -0.0847    5.4098   10.4548 H         1 RES1    0.0000
     21 H3         0.0827    6.8663   12.4575 H         1 RES1    0.0000
     22 H4         0.6268    7.1441   14.7993 H         1 RES1    0.0000
     23 H5         1.5742    5.2395   16.1452 H         1 RES1    0.0000
     24 H6         1.6714    1.5517   13.1595 H         1 RES1    0.0000
     25 H7         2.9043    2.0241   16.8537 H         1 RES1    0.0000
     26 H8         1.7468    3.3282   17.2295 H         1 RES1    0.0000
     27 H9         3.1302    3.8367   16.5953 H         1 RES1    0.0000
@<TRIPOS>BOND
     1    1    2 1
     2    2    3 2
     3    3   12 1
     4    4   11 ar
     5    5    6 ar
     6    6    7 ar
     7    7    8 ar
     8    8   10 ar
     9    9   10 ar
    10   10   11 ar
    11   11    5 ar
    12   12    4 ar
    13   13    1 1
    14   14    2 1
    15   15   14 2
    16   16   14 2
    17   17    8 1
    18   18   17 1
    19   19    3 1
    20   20    4 1
    21   21    5 1
    22   22    6 1
    23   23    7 1
    24   24    9 1
    25   25   18 1
    26   26   18 1
    27   27   18 1
    28    9   13 ar
    29   12   13 ar
@<TRIPOS>SUBSTRUCTURE
     1 RES1 1

@<TRIPOS>CRYSIN
   7.1750    7.4110   11.3400  89.1000 107.5800 108.6300   2 1

