# MOL2 file generated by ConQuest
# Please check atom types

@<TRIPOS>MOLECULE
CEMHEJ
    57    60     1
SMALL
NO_CHARGES
****
Generated from CSD

@<TRIPOS>ATOM
      1 O1         3.9287   -1.4162   -5.9987 O.2       1 RES1    0.0000
      2 O2         5.1426    0.3695   -6.1215 O.2       1 RES1    0.0000
      3 O3         6.0256   -2.2348    0.7958 O.2       1 RES1    0.0000
      4 O4         4.0117    1.3141    2.9663 O.2       1 RES1    0.0000
      5 O5         3.8999    3.9009    3.7830 O.3       1 RES1    0.0000
      6 O6         4.7140    5.2384    2.1397 O.2       1 RES1    0.0000
      7 N1         4.5421   -0.4904   -5.4830 N.pl3     1 RES1    0.0000
      8 N2         3.7520    3.2213    1.6546 N.am      1 RES1    0.0000
      9 C1         5.2503    0.7292   -2.0370 C.ar      1 RES1    0.0000
     10 H1         5.7747    1.3945   -1.6072 H         1 RES1    0.0000
     11 C2         5.2899    0.6220   -3.4183 C.ar      1 RES1    0.0000
     12 H2         5.8153    1.2164   -3.9406 H         1 RES1    0.0000
     13 C3         4.5384   -0.3795   -4.0125 C.ar      1 RES1    0.0000
     14 C4         3.7614   -1.2584   -3.2826 C.ar      1 RES1    0.0000
     15 H3         3.2699   -1.9467   -3.7155 H         1 RES1    0.0000
     16 C5         3.7141   -1.1152   -1.9032 C.ar      1 RES1    0.0000
     17 H4         3.1713   -1.6994   -1.3864 H         1 RES1    0.0000
     18 C6         4.4586   -0.1180   -1.2660 C.ar      1 RES1    0.0000
     19 C7         4.3702    0.1011    0.2355 C.3       1 RES1    0.0000
     20 H5         5.2521    0.4254    0.5796 H         1 RES1    0.0000
     21 C8         3.9500   -1.1332    1.0040 C.2       1 RES1    0.0000
     22 C9         2.6771   -1.0765    1.4214 C.2       1 RES1    0.0000
     23 C10        2.0294    0.2149    0.9966 C.3       1 RES1    0.0000
     24 H6         1.4915    0.6013    1.7325 H         1 RES1    0.0000
     25 H7         1.4461    0.0778    0.2081 H         1 RES1    0.0000
     26 C11        3.2307    1.1271    0.6469 C.3       1 RES1    0.0000
     27 C12        4.8802   -2.2371    1.2028 C.2       1 RES1    0.0000
     28 H8         4.5740   -3.0011    1.6773 H         1 RES1    0.0000
     29 C13        1.8964   -2.0881    2.2011 C.3       1 RES1    0.0000
     30 H9         2.4246   -2.9083    2.2930 H         1 RES1    0.0000
     31 H10        1.0607   -2.2889    1.7304 H         1 RES1    0.0000
     32 H11        1.6934   -1.7292    3.0892 H         1 RES1    0.0000
     33 C14        3.6998    1.8351    1.9248 C.2       1 RES1    0.0000
     34 C15        3.3852    3.4709    0.2992 C.ar      1 RES1    0.0000
     35 C16        3.3279    4.6873   -0.3669 C.ar      1 RES1    0.0000
     36 H12        3.5829    5.4979    0.0594 H         1 RES1    0.0000
     37 C17        2.8809    4.6683   -1.6843 C.ar      1 RES1    0.0000
     38 H13        2.8497    5.4798   -2.1762 H         1 RES1    0.0000
     39 C18        2.4810    3.4918   -2.2913 C.ar      1 RES1    0.0000
     40 H14        2.1725    3.5096   -3.1890 H         1 RES1    0.0000
     41 C19        2.5250    2.2832   -1.6040 C.ar      1 RES1    0.0000
     42 H15        2.2334    1.4797   -2.0191 H         1 RES1    0.0000
     43 C20        3.0052    2.2742   -0.2968 C.ar      1 RES1    0.0000
     44 C21        4.1861    4.2276    2.5376 C.2       1 RES1    0.0000
     45 C22        4.3826    4.7513    4.9104 C.3       1 RES1    0.0000
     46 C23        5.8985    4.7359    4.9200 C.3       1 RES1    0.0000
     47 H16        6.2345    5.1951    4.1232 H         1 RES1    0.0000
     48 H17        6.2161    3.8092    4.9215 H         1 RES1    0.0000
     49 H18        6.2248    5.1940    5.7219 H         1 RES1    0.0000
     50 C24        3.8006    6.1503    4.8019 C.3       1 RES1    0.0000
     51 H19        4.1180    6.5736    3.9767 H         1 RES1    0.0000
     52 H20        4.0861    6.6834    5.5733 H         1 RES1    0.0000
     53 H21        2.8226    6.0970    4.7856 H         1 RES1    0.0000
     54 C25        3.8021    4.0427    6.1200 C.3       1 RES1    0.0000
     55 H22        2.8236    4.0746    6.0786 H         1 RES1    0.0000
     56 H23        4.1093    4.4872    6.9385 H         1 RES1    0.0000
     57 H24        4.0987    3.1087    6.1253 H         1 RES1    0.0000
@<TRIPOS>BOND
     1    1    7 2
     2    2    7 2
     3    3   27 2
     4    4   33 2
     5    5   44 1
     6    6   44 2
     7    7   13 1
     8    8   33 1
     9    9   10 1
    10   11    9 ar
    11   12   11 1
    12   13   11 ar
    13   14   13 ar
    14   15   14 1
    15   16   14 ar
    16   17   16 1
    17   18    9 ar
    18   19   18 1
    19   20   19 1
    20   21   19 1
    21   22   21 2
    22   23   22 1
    23   24   23 1
    24   25   23 1
    25   26   19 1
    26   27   21 1
    27   28   27 1
    28   29   22 1
    29   30   29 1
    30   31   29 1
    31   32   29 1
    32   33   26 1
    33   34    8 1
    34   35   34 ar
    35   36   35 1
    36   37   35 ar
    37   38   37 1
    38   39   37 ar
    39   40   39 1
    40   41   39 ar
    41   42   41 1
    42   43   26 1
    43   44    8 1
    44   45    5 1
    45   46   45 1
    46   47   46 1
    47   48   46 1
    48   49   46 1
    49   50   45 1
    50   51   50 1
    51   52   50 1
    52   53   50 1
    53   54   45 1
    54   55   54 1
    55   56   54 1
    56   57   54 1
    57   16   18 ar
    58   23   26 1
    59   34   43 ar
    60   41   43 ar
@<TRIPOS>SUBSTRUCTURE
     1 RES1 1

@<TRIPOS>CRYSIN
   9.6599   10.6610   21.2315  90.0000  90.0000  90.0000  19 1

