# MOL2 file generated by ConQuest
# Please check atom types

@<TRIPOS>MOLECULE
CEMHEK
    10     9     1
SMALL
NO_CHARGES
****
Generated from CSD

@<TRIPOS>ATOM
      1 C1         2.2372    0.1324    5.7831 C.2       1 RES1    0.0000
      2 C2         3.1700    1.2563    6.0373 C.3       1 RES1    0.0000
      3 H1         2.9601    1.6609    6.8824 H         1 RES1    0.0000
      4 H2         4.0713    0.9260    6.0552 H         1 RES1    0.0000
      5 H3         3.0820    1.9090    5.3399 H         1 RES1    0.0000
      6 N1         1.3369   -0.0890    6.7117 N.am      1 RES1    0.0000
      7 H4         1.3814    0.3203    7.4665 H         1 RES1    0.0000
      8 O1         0.3146   -0.9909    6.4621 O.3       1 RES1    0.0000
      9 H5         0.3523   -1.6038    7.0053 H         1 RES1    0.0000
     10 O2         2.2953   -0.5617    4.7500 O.2       1 RES1    0.0000
@<TRIPOS>BOND
     1    1    2 1
     2    2    3 1
     3    4    2 1
     4    5    2 1
     5    6    1 1
     6    7    6 1
     7    8    6 1
     8    9    8 1
     9   10    1 2
@<TRIPOS>SUBSTRUCTURE
     1 RES1 1

@<TRIPOS>CRYSIN
   5.2344    5.2344   13.8090  90.0000  90.0000  90.0000  76 1

