# MOL2 file generated by ConQuest
# Please check atom types

@<TRIPOS>MOLECULE
CEMJUC
    47    48     1
SMALL
NO_CHARGES
****
Generated from CSD

@<TRIPOS>ATOM
      1 O1        14.1070    0.2502    9.5258 O.3       1 RES1    0.0000
      2 O2        12.2907    0.7886   12.4456 O.2       1 RES1    0.0000
      3 O3        11.9607   -0.5030   10.6021 O.3       1 RES1    0.0000
      4 O4        15.7915    4.2126    8.8623 O.3       1 RES1    0.0000
      5 N1        13.9382    0.5136   10.9080 N.am      1 RES1    0.0000
      6 C1        15.5388    2.8882    9.3586 C.3       1 RES1    0.0000
      7 H1        15.2632    2.3011    8.5974 H         1 RES1    0.0000
      8 C2        16.7042    2.2509   10.0760 C.3       1 RES1    0.0000
      9 H2        17.4377    1.8351    9.5382 H         1 RES1    0.0000
     10 C3        17.0005    2.7270   11.4687 C.3       1 RES1    0.0000
     11 H3        16.5512    3.5529   11.7785 H         1 RES1    0.0000
     12 H4        17.9191    2.5980   11.8142 H         1 RES1    0.0000
     13 C4        16.1499    1.5008   11.2636 C.3       1 RES1    0.0000
     14 H5        16.5218    0.6016   11.4934 H         1 RES1    0.0000
     15 C5        14.6541    1.7243   11.3267 C.3       1 RES1    0.0000
     16 H6        14.3900    1.9635   12.2612 H         1 RES1    0.0000
     17 C6        14.4077    2.9280   10.3972 C.3       1 RES1    0.0000
     18 H7        13.5255    2.8513    9.9545 H         1 RES1    0.0000
     19 H8        14.4344    3.7747   10.9091 H         1 RES1    0.0000
     20 C7        12.6598    0.3123   11.3922 C.2       1 RES1    0.0000
     21 C8        10.6242   -0.9754   11.0250 C.3       1 RES1    0.0000
     22 C9        10.2266   -1.8600    9.8609 C.3       1 RES1    0.0000
     23 H9        10.1985   -1.3262    9.0395 H         1 RES1    0.0000
     24 H10        9.3416   -2.2451   10.0306 H         1 RES1    0.0000
     25 H11       10.8826   -2.5810    9.7596 H         1 RES1    0.0000
     26 C10        9.6737    0.1930   11.1528 C.3       1 RES1    0.0000
     27 H12        9.9463    0.7545   11.9083 H         1 RES1    0.0000
     28 H13        8.7649   -0.1406   11.3048 H         1 RES1    0.0000
     29 H14        9.6940    0.7222   10.3283 H         1 RES1    0.0000
     30 C11       10.7385   -1.7833   12.2962 C.3       1 RES1    0.0000
     31 H15       10.9873   -1.1930   13.0376 H         1 RES1    0.0000
     32 H16       11.4250   -2.4738   12.1838 H         1 RES1    0.0000
     33 H17        9.8772   -2.2084   12.4917 H         1 RES1    0.0000
     34 C12       16.0619    4.3306    7.4284 C.3       1 RES1    0.0000
     35 C13       14.8620    3.8613    6.6187 C.3       1 RES1    0.0000
     36 H18       14.0446    4.2587    6.9856 H         1 RES1    0.0000
     37 H19       14.7989    2.8843    6.6642 H         1 RES1    0.0000
     38 H20       14.9692    4.1386    5.6849 H         1 RES1    0.0000
     39 C14       16.2790    5.8145    7.2142 C.3       1 RES1    0.0000
     40 H21       15.4479    6.2972    7.4062 H         1 RES1    0.0000
     41 H22       16.5427    5.9752    6.2843 H         1 RES1    0.0000
     42 H23       16.9865    6.1310    7.8139 H         1 RES1    0.0000
     43 C15       17.3116    3.5587    7.0405 C.3       1 RES1    0.0000
     44 H24       18.0678    3.8682    7.5815 H         1 RES1    0.0000
     45 H25       17.5061    3.7075    6.0917 H         1 RES1    0.0000
     46 H26       17.1668    2.6023    7.1983 H         1 RES1    0.0000
     47 H27       14.6856   -0.4932    9.4656 H         1 RES1    0.0000
@<TRIPOS>BOND
     1    1    5 1
     2    2   20 2
     3    3   20 1
     4    4    6 1
     5    5   15 1
     6    6    7 1
     7    8    6 1
     8    9    8 1
     9   10    8 1
    10   11   10 1
    11   12   10 1
    12   13    8 1
    13   14   13 1
    14   15   13 1
    15   16   15 1
    16   17    6 1
    17   18   17 1
    18   19   17 1
    19   20    5 1
    20   21    3 1
    21   22   21 1
    22   23   22 1
    23   24   22 1
    24   25   22 1
    25   26   21 1
    26   27   26 1
    27   28   26 1
    28   29   26 1
    29   30   21 1
    30   31   30 1
    31   32   30 1
    32   33   30 1
    33   34    4 1
    34   35   34 1
    35   36   35 1
    36   37   35 1
    37   38   35 1
    38   39   34 1
    39   40   39 1
    40   41   39 1
    41   42   39 1
    42   43   34 1
    43   44   43 1
    44   45   43 1
    45   46   43 1
    46   47    1 1
    47   10   13 1
    48   15   17 1
@<TRIPOS>SUBSTRUCTURE
     1 RES1 1

@<TRIPOS>CRYSIN
  30.4330    6.0885   19.3949  90.0000 117.3160  90.0000  15 1

