# MOL2 file generated by ConQuest
# Please check atom types

@<TRIPOS>MOLECULE
CEMXAW
    38    39     1
SMALL
NO_CHARGES
****
Generated from CSD

@<TRIPOS>ATOM
      1 O1         4.9073   12.3557    9.2910 O.2       1 RES1    0.0000
      2 O2         4.2227   12.1161    7.2738 O.2       1 RES1    0.0000
      3 O3         1.7210    8.2723    5.9633 O.2       1 RES1    0.0000
      4 O4        -1.4760    5.0870    4.4058 O.3       1 RES1    0.0000
      5 O5        -2.6828    2.6874    4.4928 O.3       1 RES1    0.0000
      6 N1         4.2575   11.7705    8.4386 N.pl3     1 RES1    0.0000
      7 C1         3.4964   10.5757    8.8353 C.ar      1 RES1    0.0000
      8 C2         2.8920    9.8323    7.8558 C.ar      1 RES1    0.0000
      9 H1         2.9623   10.0839    6.9637 H         1 RES1    0.0000
     10 C3         2.1716    8.6967    8.2138 C.ar      1 RES1    0.0000
     11 C4         2.0741    8.3626    9.5620 C.ar      1 RES1    0.0000
     12 H2         1.5897    7.6103    9.8154 H         1 RES1    0.0000
     13 C5         2.6919    9.1395   10.5293 C.ar      1 RES1    0.0000
     14 H3         2.6171    8.9056   11.4256 H         1 RES1    0.0000
     15 C6         3.4149   10.2543   10.1740 C.ar      1 RES1    0.0000
     16 H4         3.8362   10.7765   10.8178 H         1 RES1    0.0000
     17 C7         1.5535    7.9042    7.1067 C.2       1 RES1    0.0000
     18 C8         0.7844    6.6915    7.4143 C.2       1 RES1    0.0000
     19 H5         0.7710    6.3692    8.2873 H         1 RES1    0.0000
     20 C9         0.1103    6.0486    6.4767 C.2       1 RES1    0.0000
     21 H6         0.1147    6.4319    5.6285 H         1 RES1    0.0000
     22 C10       -0.6393    4.8059    6.6223 C.ar      1 RES1    0.0000
     23 C11       -1.3547    4.3119    5.5312 C.ar      1 RES1    0.0000
     24 C12       -2.0284    3.0834    5.6205 C.ar      1 RES1    0.0000
     25 C13       -2.0106    2.3822    6.8114 C.ar      1 RES1    0.0000
     26 H7        -2.4600    1.5708    6.8801 H         1 RES1    0.0000
     27 C14       -1.3239    2.8867    7.9011 C.ar      1 RES1    0.0000
     28 H8        -1.3272    2.4170    8.7035 H         1 RES1    0.0000
     29 C15       -0.6384    4.0706    7.8133 C.ar      1 RES1    0.0000
     30 H9        -0.1687    4.3876    8.5508 H         1 RES1    0.0000
     31 C16       -3.2387    1.3773    4.4814 C.3       1 RES1    0.0000
     32 H10       -3.6562    1.2141    3.6323 H         1 RES1    0.0000
     33 H11       -3.8937    1.3014    5.1792 H         1 RES1    0.0000
     34 H12       -2.5423    0.7331    4.6247 H         1 RES1    0.0000
     35 C17       -0.8778    4.5942    3.2204 C.3       1 RES1    0.0000
     36 H13       -1.2722    5.0260    2.4585 H         1 RES1    0.0000
     37 H14       -1.0186    3.6471    3.1599 H         1 RES1    0.0000
     38 H15        0.0653    4.7763    3.2377 H         1 RES1    0.0000
@<TRIPOS>BOND
     1    1    6 2
     2    2    6 2
     3    3   17 2
     4    4   23 1
     5    5   24 1
     6    6    7 1
     7    7    8 ar
     8    8    9 1
     9   10    8 ar
    10   11   10 ar
    11   12   11 1
    12   13   11 ar
    13   14   13 1
    14   15    7 ar
    15   16   15 1
    16   17   10 1
    17   18   17 1
    18   19   18 1
    19   20   18 2
    20   21   20 1
    21   22   20 1
    22   23   22 ar
    23   24   23 ar
    24   25   24 ar
    25   26   25 1
    26   27   25 ar
    27   28   27 1
    28   29   22 ar
    29   30   29 1
    30   31    5 1
    31   32   31 1
    32   33   31 1
    33   34   31 1
    34   35    4 1
    35   36   35 1
    36   37   35 1
    37   38   35 1
    38   13   15 ar
    39   27   29 ar
@<TRIPOS>SUBSTRUCTURE
     1 RES1 1

@<TRIPOS>CRYSIN
   8.6125   12.3005   14.8416  90.0000 103.9700  90.0000 231 1

