# MOL2 file generated by ConQuest
# Please check atom types

@<TRIPOS>MOLECULE
CEMZOL
    27    29     1
SMALL
NO_CHARGES
****
Generated from CSD

@<TRIPOS>ATOM
      1 C1        10.6136    3.4511    1.8493 C.ar      1 RES1    0.0000
      2 C2        11.5687    2.5289    2.2477 C.ar      1 RES1    0.0000
      3 H1        12.1617    2.1399    1.6455 H         1 RES1    0.0000
      4 C3        11.5861    2.2259    3.5721 C.ar      1 RES1    0.0000
      5 H2        12.2072    1.6149    3.8969 H         1 RES1    0.0000
      6 C4        10.6840    2.8216    4.4430 C.ar      1 RES1    0.0000
      7 H3        10.7507    2.5921    5.3419 H         1 RES1    0.0000
      8 C5         9.7638    3.9562    2.8111 C.ar      1 RES1    0.0000
      9 C6         6.7038    4.8282    2.4301 C.3       1 RES1    0.0000
     10 H4         6.7076    4.0792    3.0469 H         1 RES1    0.0000
     11 H5         6.5993    4.4846    1.5300 H         1 RES1    0.0000
     12 C7         5.5882    5.7654    2.7607 C.ar      1 RES1    0.0000
     13 C8         5.0822    5.7861    4.0135 C.ar      1 RES1    0.0000
     14 H6         5.4496    5.2460    4.6749 H         1 RES1    0.0000
     15 C9         4.0128    6.6176    4.3070 C.ar      1 RES1    0.0000
     16 H7         3.6454    6.6341    5.1610 H         1 RES1    0.0000
     17 C10        3.5015    7.4203    3.3041 C.ar      1 RES1    0.0000
     18 H8         2.7842    7.9851    3.4806 H         1 RES1    0.0000
     19 C11        4.0370    7.3832    2.0945 C.ar      1 RES1    0.0000
     20 H9         3.6962    7.9343    1.4275 H         1 RES1    0.0000
     21 C12        5.0512    6.5737    1.8151 C.ar      1 RES1    0.0000
     22 H10        5.4003    6.5627    0.9524 H         1 RES1    0.0000
     23 N1        10.3076    4.0043    0.6290 N.2       1 RES1    0.0000
     24 N2         9.3086    4.8230    0.8005 N.2       1 RES1    0.0000
     25 N3         8.9783    4.8059    2.1021 N.3       1 RES1    0.0000
     26 N4         9.7342    3.6872    4.1120 N.ar      1 RES1    0.0000
     27 O1         7.9483    5.5825    2.5430 O.3       1 RES1    0.0000
@<TRIPOS>BOND
     1    1    2 ar
     2    2    3 1
     3    4    2 ar
     4    5    4 1
     5    6    4 ar
     6    7    6 1
     7    8    1 ar
     8    9   10 1
     9   11    9 1
    10   12    9 1
    11   13   12 ar
    12   14   13 1
    13   15   13 ar
    14   16   15 1
    15   17   15 ar
    16   18   17 1
    17   19   17 ar
    18   20   19 1
    19   21   12 ar
    20   22   21 1
    21   23    1 1
    22   24   23 2
    23   25    8 1
    24   26    6 ar
    25   27    9 1
    26    8   26 ar
    27   19   21 ar
    28   24   25 1
    29   25   27 1
@<TRIPOS>SUBSTRUCTURE
     1 RES1 1

@<TRIPOS>CRYSIN
   7.5741   13.7438   21.7946  90.0000  90.0000  90.0000  61 1

