# MOL2 file generated by ConQuest
# Please check atom types

@<TRIPOS>MOLECULE
CENCAA
    32    33     1
SMALL
NO_CHARGES
****
Generated from CSD

@<TRIPOS>ATOM
      1 O1         9.6589   -0.3989    2.9637 O.3       1 RES1    0.0000
      2 O2         7.6356   -0.6148    3.8960 O.2       1 RES1    0.0000
      3 O3         9.3302    2.2936    1.7675 O.2       1 RES1    0.0000
      4 N1         8.8134    1.3159    1.1032 N.pl3     1 RES1    0.0000
      5 C1        11.6929   -1.2959    3.8328 C.ar      1 RES1    0.0000
      6 C2        12.1794   -2.3920    3.1479 C.ar      1 RES1    0.0000
      7 H1        11.5855   -2.9851    2.8454 H         1 RES1    0.0000
      8 C3        13.5333   -2.5105    2.8843 C.ar      1 RES1    0.0000
      9 H2        13.9282   -3.2983    2.4314 H         1 RES1    0.0000
     10 C4        14.4111   -1.5384    3.3164 C.ar      1 RES1    0.0000
     11 H3        15.3065   -1.6158    3.1715 H         1 RES1    0.0000
     12 C5        13.9434   -0.4535    4.0214 C.ar      1 RES1    0.0000
     13 H4        14.5717    0.2593    4.4239 H         1 RES1    0.0000
     14 C6        12.5842   -0.3261    4.2781 C.ar      1 RES1    0.0000
     15 H5        12.2912    0.4167    4.8253 H         1 RES1    0.0000
     16 C7        10.2252   -1.1640    4.0793 C.3       1 RES1    0.0000
     17 H6        10.0461   -0.6415    4.9026 H         1 RES1    0.0000
     18 H7         9.7230   -2.0665    4.0873 H         1 RES1    0.0000
     19 C8         8.3451   -0.2231    3.0072 C.2       1 RES1    0.0000
     20 C9         7.7876    0.4546    1.7660 C.3       1 RES1    0.0000
     21 C10        7.5138   -0.6048    0.6790 C.3       1 RES1    0.0000
     22 H8         7.8568   -1.4550    0.9638 H         1 RES1    0.0000
     23 H9         6.5685   -0.6760    0.5268 H         1 RES1    0.0000
     24 C11        8.2252   -0.1474   -0.5743 C.3       1 RES1    0.0000
     25 H10        7.5872    0.0556   -1.2690 H         1 RES1    0.0000
     26 H11        8.8647   -0.9386   -0.9763 H         1 RES1    0.0000
     27 C12        9.0191    1.0060   -0.1305 C.2       1 RES1    0.0000
     28 H12        9.6416    1.5446   -0.7087 H         1 RES1    0.0000
     29 C13        6.6046    1.3298    2.1229 C.3       1 RES1    0.0000
     30 H13        6.8778    2.0058    2.7471 H         1 RES1    0.0000
     31 H14        5.9195    0.7867    2.5172 H         1 RES1    0.0000
     32 H15        6.2637    1.7477    1.3276 H         1 RES1    0.0000
@<TRIPOS>BOND
     1    1   16 1
     2    2   19 2
     3    3    4 1
     4    4   20 1
     5    5    6 ar
     6    6    7 1
     7    8    6 ar
     8    9    8 1
     9   10    8 ar
    10   11   10 1
    11   12   10 ar
    12   13   12 1
    13   14    5 ar
    14   15   14 1
    15   16    5 1
    16   17   16 1
    17   18   16 1
    18   19    1 1
    19   20   19 1
    20   21   20 1
    21   22   21 1
    22   23   21 1
    23   24   21 1
    24   25   24 1
    25   26   24 1
    26   27    4 2
    27   28   27 1
    28   29   20 1
    29   30   29 1
    30   31   29 1
    31   32   29 1
    32   12   14 ar
    33   24   27 1
@<TRIPOS>SUBSTRUCTURE
     1 RES1 1

@<TRIPOS>CRYSIN
  10.2450    5.5640   21.3930  90.0000 102.2400  90.0000  14 1

