# MOL2 file generated by ConQuest
# Please check atom types

@<TRIPOS>MOLECULE
CENFIK
    19    20     1
SMALL
NO_CHARGES
****
Generated from CSD

@<TRIPOS>ATOM
      1 N1        -1.6702    4.5434    5.8457 N.3       1 RES1    0.0000
      2 O1        -1.9609    3.8573    4.5978 O.3       1 RES1    0.0000
      3 C1        -1.6996    4.7014    3.5453 C.2       1 RES1    0.0000
      4 O2        -1.9411    4.3471    2.4086 O.2       1 RES1    0.0000
      5 C2        -1.1659    5.9213    4.0873 C.ar      1 RES1    0.0000
      6 C3        -0.7256    7.0845    3.4663 C.ar      1 RES1    0.0000
      7 C4        -0.2031    8.0707    4.2709 C.ar      1 RES1    0.0000
      8 C5        -0.1070    7.8884    5.6584 C.ar      1 RES1    0.0000
      9 C6        -0.5473    6.7375    6.2838 C.ar      1 RES1    0.0000
     10 C7        -1.0930    5.7611    5.4639 C.ar      1 RES1    0.0000
     11 C8        -0.8823    3.6349    6.6898 C.3       1 RES1    0.0000
     12 O3         0.3655    3.3027    6.1566 O.3       1 RES1    0.0000
     13 H1        -0.7444    7.1797    2.4796 H         1 RES1    0.0000
     14 H2         0.1697    8.8417    3.8986 H         1 RES1    0.0000
     15 H3         0.2897    8.5790    6.1587 H         1 RES1    0.0000
     16 H4        -0.4828    6.6166    7.2267 H         1 RES1    0.0000
     17 H5        -0.7486    4.1301    7.5265 H         1 RES1    0.0000
     18 H6        -1.4558    2.8505    6.8536 H         1 RES1    0.0000
     19 H7         0.2293    2.6958    5.6906 H         1 RES1    0.0000
@<TRIPOS>BOND
     1    1    2 1
     2    2    3 1
     3    3    4 2
     4    5    3 1
     5    6    5 ar
     6    7    6 ar
     7    8    7 ar
     8    9    8 ar
     9   10    1 1
    10   11    1 1
    11   12   11 1
    12   13    6 1
    13   14    7 1
    14   15    8 1
    15   16    9 1
    16   17   11 1
    17   18   11 1
    18   19   12 1
    19    5   10 ar
    20    9   10 ar
@<TRIPOS>SUBSTRUCTURE
     1 RES1 1

@<TRIPOS>CRYSIN
   7.0380    7.7180    7.5560 104.5000  83.1100 115.1000   2 1

