# MOL2 file generated by ConQuest
# Please check atom types

@<TRIPOS>MOLECULE
CENMIR
    34    36     1
SMALL
NO_CHARGES
****
Generated from CSD

@<TRIPOS>ATOM
      1 C1         1.9939   -1.9748    2.5915 C.3       1 RES1    0.0000
      2 C2         2.0671   -0.6777    1.8272 C.2       1 RES1    0.0000
      3 C3         3.2289    0.2470    2.0043 C.3       1 RES1    0.0000
      4 C4         4.4024   -0.1921    2.8900 C.3       1 RES1    0.0000
      5 C5         4.0969   -0.2803    4.3716 C.3       1 RES1    0.0000
      6 C6         3.3805   -1.5618    4.7794 C.3       1 RES1    0.0000
      7 C7         2.0516   -1.7017    4.1111 C.3       1 RES1    0.0000
      8 C8         0.9037   -0.9138    4.6680 C.3       1 RES1    0.0000
      9 C9         0.8842   -2.4332    4.7398 C.3       1 RES1    0.0000
     10 C10        0.1610   -3.0529    3.6195 C.2       1 RES1    0.0000
     11 C11        0.7212   -2.7804    2.4393 C.2       1 RES1    0.0000
     12 N1         1.0772   -0.3915    1.0786 N.2       1 RES1    0.0000
     13 O1         1.2402    0.8819    0.4727 O.3       1 RES1    0.0000
     14 C12        0.2296   -3.3021    1.1613 C.2       1 RES1    0.0000
     15 O2         0.9063   -3.5072    0.1898 O.2       1 RES1    0.0000
     16 O3        -1.0882   -3.5550    1.2128 O.3       1 RES1    0.0000
     17 C13       -1.6965   -4.1146    0.0407 C.3       1 RES1    0.0000
     18 H1         2.8031   -2.4857    2.2727 H         1 RES1    0.0000
     19 H2         2.8360    1.1088    2.2641 H         1 RES1    0.0000
     20 H3         3.5366    0.4758    1.1375 H         1 RES1    0.0000
     21 H4         4.7870   -1.0761    2.6576 H         1 RES1    0.0000
     22 H5         5.1471    0.5397    2.7641 H         1 RES1    0.0000
     23 H6         4.9089   -0.2452    4.9342 H         1 RES1    0.0000
     24 H7         3.5053    0.5298    4.5752 H         1 RES1    0.0000
     25 H8         3.8786   -2.2934    4.4770 H         1 RES1    0.0000
     26 H9         3.2085   -1.5871    5.8617 H         1 RES1    0.0000
     27 H10        0.2874   -0.4641    4.0996 H         1 RES1    0.0000
     28 H11        1.0643   -0.3603    5.5003 H         1 RES1    0.0000
     29 H12        0.7782   -2.8918    5.5658 H         1 RES1    0.0000
     30 H13       -0.7151   -3.6207    3.6963 H         1 RES1    0.0000
     31 H14        0.5541    0.9704   -0.0968 H         1 RES1    0.0000
     32 H15       -1.4436   -3.6140   -0.7627 H         1 RES1    0.0000
     33 H16       -1.4604   -5.0579    0.0628 H         1 RES1    0.0000
     34 H17       -2.6028   -4.1869    0.2587 H         1 RES1    0.0000
@<TRIPOS>BOND
     1    1    2 1
     2    2    3 1
     3    3    4 1
     4    4    5 1
     5    5    6 1
     6    6    7 1
     7    7    1 1
     8    8    7 1
     9    9    7 1
    10   10    9 1
    11   11    1 1
    12   12    2 2
    13   13   12 1
    14   14   11 1
    15   15   14 2
    16   16   14 1
    17   17   16 1
    18   18    1 1
    19   19    3 1
    20   20    3 1
    21   21    4 1
    22   22    4 1
    23   23    5 1
    24   24    5 1
    25   25    6 1
    26   26    6 1
    27   27    8 1
    28   28    8 1
    29   29    9 1
    30   30   10 1
    31   31   13 1
    32   32   17 1
    33   33   17 1
    34   34   17 1
    35    8    9 1
    36   10   11 2
@<TRIPOS>SUBSTRUCTURE
     1 RES1 1

@<TRIPOS>CRYSIN
   6.8360   11.1770   15.6970  90.0000  86.0000  90.0000  14 1

