# MOL2 file generated by ConQuest
# Please check atom types

@<TRIPOS>MOLECULE
CENVUN
   172   178     2
SMALL
NO_CHARGES
****
Generated from CSD

@<TRIPOS>ATOM
      1 C1         3.5962   16.3030    9.1885 C.ar      1 RES1    0.0000
      2 H1         4.0480   15.7038    8.6402 H         1 RES1    0.0000
      3 C2         4.2884   17.3524    9.8082 C.ar      1 RES1    0.0000
      4 H2         5.2042   17.4603    9.6869 H         1 RES1    0.0000
      5 C3         3.5717   18.2155   10.5991 C.ar      1 RES1    0.0000
      6 C4         2.2454   18.0958   10.8334 C.ar      1 RES1    0.0000
      7 H3         1.7949   18.7153   11.3601 H         1 RES1    0.0000
      8 C5         1.5668   17.0055   10.2569 C.ar      1 RES1    0.0000
      9 H4         0.6698   16.8513   10.4479 H         1 RES1    0.0000
     10 C6         2.2615   16.1674    9.3945 C.ar      1 RES1    0.0000
     11 C7         1.4662   15.0926    8.7149 C.2       1 RES1    0.0000
     12 C8         1.4992   13.6637    6.7892 C.3       1 RES1    0.0000
     13 H5         0.9857   13.0105    7.3092 H         1 RES1    0.0000
     14 C9         0.5839   14.4142    5.8753 C.3       1 RES1    0.0000
     15 H6         1.0632   15.1566    5.4749 H         1 RES1    0.0000
     16 H7        -0.1581   14.7739    6.3854 H         1 RES1    0.0000
     17 C10        0.0560   13.5045    4.7853 C.3       1 RES1    0.0000
     18 H8        -0.5305   12.8449    5.1891 H         1 RES1    0.0000
     19 H9        -0.4763   14.0341    4.1705 H         1 RES1    0.0000
     20 C11        1.1256   12.7795    3.9977 C.3       1 RES1    0.0000
     21 H10        1.6744   13.4556    3.5474 H         1 RES1    0.0000
     22 C12        0.4467   11.9375    2.9227 C.3       1 RES1    0.0000
     23 H11        0.0540   11.1596    3.3265 H         1 RES1    0.0000
     24 H12        1.0967   11.6661    2.2714 H         1 RES1    0.0000
     25 H13       -0.2390   12.4562    2.4957 H         1 RES1    0.0000
     26 C13        2.0284   12.0118    4.9648 C.3       1 RES1    0.0000
     27 H14        1.4578   11.3706    5.4367 H         1 RES1    0.0000
     28 C14        2.6087   12.9536    6.0232 C.3       1 RES1    0.0000
     29 H15        3.0981   13.6500    5.5363 H         1 RES1    0.0000
     30 C15        3.6123   12.2849    6.9337 C.2       1 RES1    0.0000
     31 H16        3.8119   12.7134    7.7346 H         1 RES1    0.0000
     32 C16        4.2227   11.1551    6.6911 C.2       1 RES1    0.0000
     33 C17        5.2280   10.5439    7.6116 C.3       1 RES1    0.0000
     34 H17        5.4153   11.1537    8.3294 H         1 RES1    0.0000
     35 H18        6.0364   10.3618    7.1281 H         1 RES1    0.0000
     36 H19        4.8780    9.7254    7.9705 H         1 RES1    0.0000
     37 C18        3.9720   10.3657    5.4101 C.3       1 RES1    0.0000
     38 H20        4.8569   10.2027    5.0213 H         1 RES1    0.0000
     39 C19        3.3742    8.9945    5.6576 C.2       1 RES1    0.0000
     40 C20        2.1076    8.9367    6.4618 C.3       1 RES1    0.0000
     41 H21        1.3595    9.1449    5.8969 H         1 RES1    0.0000
     42 H22        2.1539    9.5744    7.1780 H         1 RES1    0.0000
     43 H23        1.9991    8.0547    6.8257 H         1 RES1    0.0000
     44 C21        3.9868    7.9443    5.1475 C.2       1 RES1    0.0000
     45 H24        4.7652    8.1065    4.6657 H         1 RES1    0.0000
     46 C22        3.5554    6.5261    5.2688 C.3       1 RES1    0.0000
     47 H25        4.1968    6.0245    5.7956 H         1 RES1    0.0000
     48 H26        2.6905    6.4757    5.7042 H         1 RES1    0.0000
     49 C23        3.1940    4.6474    3.8914 C.2       1 RES1    0.0000
     50 C24        3.1595    4.1303    2.4924 C.ar      1 RES1    0.0000
     51 C25        3.0643    2.7339    2.3561 C.ar      1 RES1    0.0000
     52 H27        2.9947    2.1963    3.1105 H         1 RES1    0.0000
     53 C26        3.0732    2.1681    1.1033 C.ar      1 RES1    0.0000
     54 H28        3.0135    1.2459    0.9953 H         1 RES1    0.0000
     55 C27        3.1736    3.0122    0.0066 C.ar      1 RES1    0.0000
     56 C28        3.2061    4.3884    0.0930 C.ar      1 RES1    0.0000
     57 H29        3.2220    4.9264   -0.6646 H         1 RES1    0.0000
     58 C29        3.2146    4.9342    1.3808 C.ar      1 RES1    0.0000
     59 H30        3.2579    5.8565    1.4871 H         1 RES1    0.0000
     60 C30        3.1963   11.2092    4.3533 C.3       1 RES1    0.0000
     61 H31        3.8330   11.8709    4.0110 H         1 RES1    0.0000
     62 C31        2.8707   10.2963    3.1969 C.2       1 RES1    0.0000
     63 H32        2.1329    9.7366    3.2799 H         1 RES1    0.0000
     64 C32        3.5595   10.2365    2.0786 C.2       1 RES1    0.0000
     65 H33        4.2549   10.8393    1.9440 H         1 RES1    0.0000
     66 C33        3.2628    9.2496    1.0418 C.2       1 RES1    0.0000
     67 H34        2.5617    8.6576    1.1930 H         1 RES1    0.0000
     68 C34        3.9327    9.1402   -0.1063 C.2       1 RES1    0.0000
     69 H35        4.6504    9.7062   -0.2758 H         1 RES1    0.0000
     70 C35        3.5399    8.1245   -1.1133 C.2       1 RES1    0.0000
     71 C36        4.0107    7.2340   -3.2268 C.3       1 RES1    0.0000
     72 H36        4.1436    6.3351   -2.9144 H         1 RES1    0.0000
     73 H37        4.5825    7.3978   -3.9795 H         1 RES1    0.0000
     74 H38        3.0942    7.3486   -3.4893 H         1 RES1    0.0000
     75 C37        3.0433    6.3670    9.5391 C.ar      2 RES2    0.0000
     76 H39        3.4488    6.9676   10.1223 H         2 RES2    0.0000
     77 C38        3.8025    5.3642    8.9642 C.ar      2 RES2    0.0000
     78 H40        4.7120    5.2836    9.1403 H         2 RES2    0.0000
     79 C39        3.1387    4.4711    8.0968 C.ar      2 RES2    0.0000
     80 C40        1.8204    4.5845    7.7977 C.ar      2 RES2    0.0000
     81 H41        1.4108    3.9715    7.2328 H         2 RES2    0.0000
     82 C41        1.0973    5.6176    8.3427 C.ar      2 RES2    0.0000
     83 H42        0.2072    5.7409    8.1035 H         2 RES2    0.0000
     84 C42        1.7115    6.4929    9.2699 C.ar      2 RES2    0.0000
     85 C43        0.8475    7.5253    9.9079 C.2       2 RES2    0.0000
     86 C44        0.7672    8.9789   11.8337 C.3       2 RES2    0.0000
     87 H43        0.2493    9.6096   11.2904 H         2 RES2    0.0000
     88 C45       -0.1593    8.1883   12.7309 C.3       2 RES2    0.0000
     89 H44       -0.8727    7.7980   12.2026 H         2 RES2    0.0000
     90 H45        0.3323    7.4683   13.1563 H         2 RES2    0.0000
     91 C46       -0.7430    9.0954   13.7827 C.3       2 RES2    0.0000
     92 H46       -1.3035    8.5667   14.3709 H         2 RES2    0.0000
     93 H47       -1.3096    9.7501   13.3474 H         2 RES2    0.0000
     94 C47        0.3124    9.8391   14.6351 C.3       2 RES2    0.0000
     95 H48        0.8684    9.1690   15.0870 H         2 RES2    0.0000
     96 C48       -0.3934   10.6639   15.6952 C.3       2 RES2    0.0000
     97 H49       -0.7689   11.4496   15.2914 H         2 RES2    0.0000
     98 H50        0.2370   10.9206   16.3731 H         2 RES2    0.0000
     99 H51       -1.0942   10.1418   16.0923 H         2 RES2    0.0000
    100 C49        1.2188   10.6523   13.6747 C.3       2 RES2    0.0000
    101 H52        0.6541   11.3036   13.2095 H         2 RES2    0.0000
    102 C50        1.8203    9.7236   12.6246 C.3       2 RES2    0.0000
    103 H53        2.3569    9.0544   13.0998 H         2 RES2    0.0000
    104 C51        2.7470   10.4744   11.7074 C.2       2 RES2    0.0000
    105 H54        2.9213   10.0915   10.8783 H         2 RES2    0.0000
    106 C52        3.3293   11.6177   11.9716 C.2       2 RES2    0.0000
    107 C53        4.2510   12.3179   11.0361 C.3       2 RES2    0.0000
    108 H55        5.1281   12.3596   11.4233 H         2 RES2    0.0000
    109 H56        3.9292   13.2075   10.8766 H         2 RES2    0.0000
    110 H57        4.2898   11.8367   10.2054 H         2 RES2    0.0000
    111 C54        3.1446   12.3101   13.3208 C.3       2 RES2    0.0000
    112 H58        4.0450   12.4288   13.6897 H         2 RES2    0.0000
    113 C55        2.5760   13.7154   13.1380 C.2       2 RES2    0.0000
    114 C56        1.2881   13.8399   12.4119 C.3       2 RES2    0.0000
    115 H59        0.5661   13.6049   13.0001 H         2 RES2    0.0000
    116 H60        1.2892   13.2489   11.6559 H         2 RES2    0.0000
    117 H61        1.1757   14.7437   12.1128 H         2 RES2    0.0000
    118 C57        3.2514   14.7398   13.6614 C.2       2 RES2    0.0000
    119 H62        4.0223   14.5334   14.1383 H         2 RES2    0.0000
    120 C58        2.8930   16.1900   13.5601 C.3       2 RES2    0.0000
    121 H63        3.5447   16.6592   13.0167 H         2 RES2    0.0000
    122 H64        2.0195   16.2918   13.1513 H         2 RES2    0.0000
    123 C59        2.7829   18.0799   14.9491 C.2       2 RES2    0.0000
    124 C60        2.7993   18.6049   16.3299 C.ar      2 RES2    0.0000
    125 C61        2.8459   20.0024   16.4529 C.ar      2 RES2    0.0000
    126 H65        2.8268   20.5361   15.6919 H         2 RES2    0.0000
    127 C62        2.9206   20.5826   17.7007 C.ar      2 RES2    0.0000
    128 H66        2.9638   21.5061   17.7937 H         2 RES2    0.0000
    129 C63        2.9303   19.7709   18.7957 C.ar      2 RES2    0.0000
    130 C64        2.8343   18.3922   18.7026 C.ar      2 RES2    0.0000
    131 H67        2.8043   17.8673   19.4686 H         2 RES2    0.0000
    132 C65        2.7832   17.8110   17.4498 C.ar      2 RES2    0.0000
    133 H68        2.7391   16.8850   17.3667 H         2 RES2    0.0000
    134 C66        2.3754   11.4222   14.3410 C.3       2 RES2    0.0000
    135 H69        3.0115   10.7512   14.6683 H         2 RES2    0.0000
    136 C67        2.0523   12.3218   15.5091 C.2       2 RES2    0.0000
    137 H70        1.3074   12.8716   15.4326 H         2 RES2    0.0000
    138 C68        2.7488   12.3869   16.6373 C.2       2 RES2    0.0000
    139 H71        3.4292   11.7671   16.7719 H         2 RES2    0.0000
    140 C69        2.5091   13.3580   17.6608 C.2       2 RES2    0.0000
    141 H72        1.8196   13.9625   17.5079 H         2 RES2    0.0000
    142 C70        3.1722   13.4831   18.8056 C.2       2 RES2    0.0000
    143 H73        3.8638   12.8910   18.9917 H         2 RES2    0.0000
    144 C71        2.8470   14.5271   19.7893 C.2       2 RES2    0.0000
    145 C72        3.3240   15.4264   21.9078 C.3       2 RES2    0.0000
    146 H74        3.6968   16.2747   21.6602 H         2 RES2    0.0000
    147 H75        3.7198   15.1315   22.7319 H         2 RES2    0.0000
    148 H76        2.3753   15.5144   22.0224 H         2 RES2    0.0000
    149 N1         4.3140   19.3376   11.2139 N.pl3     1 RES1    0.0000
    150 N2         3.2515    2.3968   -1.3276 N.pl3     1 RES1    0.0000
    151 N3         3.9287    3.3734    7.5186 N.pl3     2 RES2    0.0000
    152 N4         3.0930   20.3559   20.1432 N.pl3     2 RES2    0.0000
    153 O1         2.1755   14.5819    7.6848 O.3       1 RES1    0.0000
    154 O2         0.3447   14.7792    8.9824 O.2       1 RES1    0.0000
    155 O3         5.5140   19.2251   11.3352 O.2       1 RES1    0.0000
    156 O4         3.6668   20.3388   11.5014 O.2       1 RES1    0.0000
    157 O5         3.4748    5.9844    3.9363 O.3       1 RES1    0.0000
    158 O6         3.0207    3.9922    4.8568 O.2       1 RES1    0.0000
    159 O7         3.2024    3.1237   -2.3029 O.2       1 RES1    0.0000
    160 O8         3.3764    1.1738   -1.3741 O.2       1 RES1    0.0000
    161 O9         2.6229    7.3952   -1.0086 O.2       1 RES1    0.0000
    162 O10        4.3275    8.1607   -2.1717 O.3       1 RES1    0.0000
    163 O11        5.1234    3.5252    7.3707 O.2       2 RES2    0.0000
    164 O12        3.3292    2.3191    7.2910 O.2       2 RES2    0.0000
    165 O13        1.4957    8.0592   10.9713 O.3       2 RES2    0.0000
    166 O14       -0.2792    7.7690    9.6122 O.2       2 RES2    0.0000
    167 O15        2.8824   16.7320   14.9225 O.3       2 RES2    0.0000
    168 O16        2.6816   18.7431   13.9638 O.2       2 RES2    0.0000
    169 O17        3.3074   21.5844   20.1631 O.2       2 RES2    0.0000
    170 O18        3.0327   19.6571   21.1136 O.2       2 RES2    0.0000
    171 O19        2.0363   15.3957   19.6065 O.2       2 RES2    0.0000
    172 O20        3.5980   14.4510   20.8627 O.3       2 RES2    0.0000
@<TRIPOS>BOND
     1    1    2 1
     2    3    1 ar
     3    4    3 1
     4    5    3 ar
     5    6    5 ar
     6    7    6 1
     7    8    6 ar
     8    9    8 1
     9   10    1 ar
    10   11   10 1
    11   12   13 1
    12   14   12 1
    13   15   14 1
    14   16   14 1
    15   17   14 1
    16   18   17 1
    17   19   17 1
    18   20   17 1
    19   21   20 1
    20   22   20 1
    21   23   22 1
    22   24   22 1
    23   25   22 1
    24   26   20 1
    25   27   26 1
    26   28   12 1
    27   29   28 1
    28   30   28 1
    29   31   30 1
    30   32   30 2
    31   33   32 1
    32   34   33 1
    33   35   33 1
    34   36   33 1
    35   37   32 1
    36   38   37 1
    37   39   37 1
    38   40   39 1
    39   41   40 1
    40   42   40 1
    41   43   40 1
    42   44   39 2
    43   45   44 1
    44   46   44 1
    45   47   46 1
    46   48   46 1
    47   49   50 1
    48   50   51 ar
    49   51   52 1
    50   53   51 ar
    51   54   53 1
    52   55   53 ar
    53   56   55 ar
    54   57   56 1
    55   58   50 ar
    56   59   58 1
    57   60   26 1
    58   61   60 1
    59   62   60 1
    60   63   62 1
    61   64   62 2
    62   65   64 1
    63   66   64 1
    64   67   66 1
    65   68   66 2
    66   69   68 1
    67   70   68 1
    68   71   72 1
    69   73   71 1
    70   74   71 1
    71   75   76 1
    72   77   75 ar
    73   78   77 1
    74   79   77 ar
    75   80   79 ar
    76   81   80 1
    77   82   80 ar
    78   83   82 1
    79   84   75 ar
    80   85   84 1
    81   86   87 1
    82   88   86 1
    83   89   88 1
    84   90   88 1
    85   91   88 1
    86   92   91 1
    87   93   91 1
    88   94   91 1
    89   95   94 1
    90   96   94 1
    91   97   96 1
    92   98   96 1
    93   99   96 1
    94  100   94 1
    95  101  100 1
    96  102   86 1
    97  103  102 1
    98  104  102 1
    99  105  104 1
   100  106  104 2
   101  107  106 1
   102  108  107 1
   103  109  107 1
   104  110  107 1
   105  111  106 1
   106  112  111 1
   107  113  111 1
   108  114  113 1
   109  115  114 1
   110  116  114 1
   111  117  114 1
   112  118  113 2
   113  119  118 1
   114  120  118 1
   115  121  120 1
   116  122  120 1
   117  123  124 1
   118  124  125 ar
   119  125  126 1
   120  127  125 ar
   121  128  127 1
   122  129  127 ar
   123  130  129 ar
   124  131  130 1
   125  132  124 ar
   126  133  132 1
   127  134  100 1
   128  135  134 1
   129  136  134 1
   130  137  136 1
   131  138  136 2
   132  139  138 1
   133  140  138 1
   134  141  140 1
   135  142  140 2
   136  143  142 1
   137  144  142 1
   138  145  146 1
   139  147  145 1
   140  148  145 1
   141  149    5 1
   142  150   55 1
   143  151   79 1
   144  152  129 1
   145  153   11 1
   146  154   11 2
   147  155  149 2
   148  156  149 2
   149  157   46 1
   150  158   49 2
   151  159  150 2
   152  160  150 2
   153  161   70 2
   154  162   70 1
   155  163  151 2
   156  164  151 2
   157  165   85 1
   158  166   85 2
   159  167  120 1
   160  168  123 2
   161  169  152 2
   162  170  152 2
   163  171  144 2
   164  172  144 1
   165    8   10 ar
   166   12  153 1
   167   26   28 1
   168   37   60 1
   169   49  157 1
   170   56   58 ar
   171   71  162 1
   172   82   84 ar
   173   86  165 1
   174  100  102 1
   175  111  134 1
   176  123  167 1
   177  130  132 ar
   178  145  172 1
@<TRIPOS>SUBSTRUCTURE
     1 RES1 1
     2 RES2 75

@<TRIPOS>CRYSIN
   6.5640   15.6540   16.7010  94.6180  92.5680 100.7540   1 1

