# MOL2 file generated by ConQuest
# Please check atom types

@<TRIPOS>MOLECULE
CENWAU
    36    40     1
SMALL
NO_CHARGES
****
Generated from CSD

@<TRIPOS>ATOM
      1 O1         3.8412    6.0753    6.3445 O.2       1 RES1    0.0000
      2 O2         4.8494   -1.1408    6.8631 O.3       1 RES1    0.0000
      3 O3         3.0266   -1.5314    8.2101 O.3       1 RES1    0.0000
      4 N1         2.4475    4.4435    6.2041 N.3       1 RES1    0.0000
      5 N2         2.6634    5.7076    6.4769 N.2       1 RES1    0.0000
      6 C1         1.1021    3.9627    6.3911 C.3       1 RES1    0.0000
      7 C2         1.0909    2.9516    7.5088 C.3       1 RES1    0.0000
      8 C3         2.1320    1.8925    7.3003 C.ar      1 RES1    0.0000
      9 C4         3.2299    2.1396    6.5076 C.ar      1 RES1    0.0000
     10 C5         3.5271    3.5120    5.9345 C.3       1 RES1    0.0000
     11 C6         3.8854    3.3811    4.4653 C.3       1 RES1    0.0000
     12 C7         5.0891    2.5121    4.3459 C.ar      1 RES1    0.0000
     13 C8         6.0363    2.7391    3.3717 C.ar      1 RES1    0.0000
     14 C9         7.1650    1.9540    3.2763 C.ar      1 RES1    0.0000
     15 C10        7.3606    0.9317    4.1709 C.ar      1 RES1    0.0000
     16 C11        6.4212    0.6811    5.1461 C.ar      1 RES1    0.0000
     17 C12        5.2763    1.4495    5.2458 C.ar      1 RES1    0.0000
     18 C13        4.2205    1.1677    6.2295 C.ar      1 RES1    0.0000
     19 C14        4.0515   -0.0157    6.9107 C.ar      1 RES1    0.0000
     20 C15        2.9782   -0.2539    7.7212 C.ar      1 RES1    0.0000
     21 C16        1.9876    0.6465    7.9180 C.ar      1 RES1    0.0000
     22 C17        4.3201   -1.9998    7.8754 C.3       1 RES1    0.0000
     23 H1         0.5269    4.6989    6.5750 H         1 RES1    0.0000
     24 H2         0.8107    3.5414    5.5880 H         1 RES1    0.0000
     25 H3         0.2384    2.5310    7.5600 H         1 RES1    0.0000
     26 H4         1.2486    3.4086    8.3299 H         1 RES1    0.0000
     27 H5         4.3090    3.8445    6.3650 H         1 RES1    0.0000
     28 H6         4.0409    4.2401    4.0848 H         1 RES1    0.0000
     29 H7         3.1500    2.9718    4.0200 H         1 RES1    0.0000
     30 H8         5.9203    3.4510    2.7495 H         1 RES1    0.0000
     31 H9         7.7851    2.1044    2.5697 H         1 RES1    0.0000
     32 H10        8.1655    0.4258    4.1229 H         1 RES1    0.0000
     33 H11        6.5397   -0.0567    5.7374 H         1 RES1    0.0000
     34 H12        1.2424    0.4432    8.4743 H         1 RES1    0.0000
     35 H13        4.8907   -1.9905    8.6376 H         1 RES1    0.0000
     36 H14        4.2669   -2.8910    7.5419 H         1 RES1    0.0000
@<TRIPOS>BOND
     1    1    5 2
     2    2   19 1
     3    3   20 1
     4    4    5 1
     5    6    4 1
     6    7    6 1
     7    8    7 1
     8    9    8 ar
     9   10    4 1
    10   11   10 1
    11   12   11 1
    12   13   12 ar
    13   14   13 ar
    14   15   14 ar
    15   16   15 ar
    16   17   12 ar
    17   18    9 ar
    18   19   18 ar
    19   20   19 ar
    20   21    8 ar
    21   22    2 1
    22   23    6 1
    23   24    6 1
    24   25    7 1
    25   26    7 1
    26   27   10 1
    27   28   11 1
    28   29   11 1
    29   30   13 1
    30   31   14 1
    31   32   15 1
    32   33   16 1
    33   34   21 1
    34   35   22 1
    35   36   22 1
    36    3   22 1
    37    9   10 1
    38   16   17 ar
    39   17   18 1
    40   20   21 ar
@<TRIPOS>SUBSTRUCTURE
     1 RES1 1

@<TRIPOS>CRYSIN
   7.0108   11.1847   17.1896  90.0000  90.0000  90.0000  19 1

