# MOL2 file generated by ConQuest
# Please check atom types

@<TRIPOS>MOLECULE
CEPTEX
    46    47     1
SMALL
NO_CHARGES
****
Generated from CSD

@<TRIPOS>ATOM
      1 N1         4.1049    2.8867    0.8923 N.am      1 RES1    0.0000
      2 N2         3.9326    3.8479   -0.1074 N.2       1 RES1    0.0000
      3 N3         2.8798    3.5389    5.1413 N.pl3     1 RES1    0.0000
      4 O1         4.3709    0.7425    1.4382 O.2       1 RES1    0.0000
      5 O2         0.9470    5.8483    2.3499 O.3       1 RES1    0.0000
      6 O3         0.6498    3.6995    1.6821 O.2       1 RES1    0.0000
      7 O4         1.9744    3.6101    4.3871 O.2       1 RES1    0.0000
      8 O5         2.6776    3.5137    6.3189 O.2       1 RES1    0.0000
      9 C1         3.5077    3.2690    2.1853 C.3       1 RES1    0.0000
     10 H1         2.7986    2.6129    2.4433 H         1 RES1    0.0000
     11 C2         2.8668    4.6324    1.8353 C.3       1 RES1    0.0000
     12 H2         3.2618    5.3612    2.3953 H         1 RES1    0.0000
     13 C3         3.2480    4.8098    0.3877 C.2       1 RES1    0.0000
     14 C4         4.4635    1.6097    0.5828 C.2       1 RES1    0.0000
     15 C5         4.9887    1.3795   -0.8048 C.3       1 RES1    0.0000
     16 H3         5.8711    1.7970   -0.8937 H         1 RES1    0.0000
     17 H4         4.3734    1.7756   -1.4576 H         1 RES1    0.0000
     18 H5         5.0648    0.4168   -0.9697 H         1 RES1    0.0000
     19 C6         4.5581    3.3646    3.2852 C.ar      1 RES1    0.0000
     20 C7         5.8999    3.3562    2.9649 C.ar      1 RES1    0.0000
     21 H6         6.1526    3.2728    2.0534 H         1 RES1    0.0000
     22 C8         6.8920    3.4640    3.9236 C.ar      1 RES1    0.0000
     23 H7         7.8049    3.4556    3.6589 H         1 RES1    0.0000
     24 C9         6.5675    3.5833    5.2586 C.ar      1 RES1    0.0000
     25 H8         7.2484    3.6582    5.9162 H         1 RES1    0.0000
     26 C10        5.2529    3.5925    5.6155 C.ar      1 RES1    0.0000
     27 H9         5.0136    3.6682    6.5321 H         1 RES1    0.0000
     28 C11        4.2625    3.4915    4.6536 C.ar      1 RES1    0.0000
     29 C12        2.8159    5.9645   -0.4471 C.3       1 RES1    0.0000
     30 H10        3.2982    5.9500   -1.2996 H         1 RES1    0.0000
     31 H11        3.0120    6.8003    0.0260 H         1 RES1    0.0000
     32 H12        1.8520    5.9026   -0.6158 H         1 RES1    0.0000
     33 C13        1.3550    4.6301    1.9530 C.2       1 RES1    0.0000
     34 C14       -0.4973    6.1671    2.4995 C.3       1 RES1    0.0000
     35 C15       -1.1673    6.0662    1.1655 C.3       1 RES1    0.0000
     36 H13       -0.6767    6.6068    0.5118 H         1 RES1    0.0000
     37 H14       -2.0881    6.3950    1.2356 H         1 RES1    0.0000
     38 H15       -1.1768    5.1302    0.8737 H         1 RES1    0.0000
     39 C16       -0.4424    7.6185    2.9591 C.3       1 RES1    0.0000
     40 H16        0.0247    7.6713    3.8189 H         1 RES1    0.0000
     41 H17       -1.3539    7.9641    3.0591 H         1 RES1    0.0000
     42 H18        0.0384    8.1538    2.2933 H         1 RES1    0.0000
     43 C17       -1.0973    5.2763    3.5389 C.3       1 RES1    0.0000
     44 H19       -1.1363    4.3579    3.1970 H         1 RES1    0.0000
     45 H20       -2.0025    5.5852    3.7509 H         1 RES1    0.0000
     46 H21       -0.5445    5.3008    4.3467 H         1 RES1    0.0000
@<TRIPOS>BOND
     1    1    2 1
     2    2   13 2
     3    3    7 2
     4    4   14 2
     5    5   33 1
     6    6   33 2
     7    8    3 2
     8    9    1 1
     9   10    9 1
    10   11    9 1
    11   12   11 1
    12   13   11 1
    13   14    1 1
    14   15   14 1
    15   16   15 1
    16   17   15 1
    17   18   15 1
    18   19    9 1
    19   20   19 ar
    20   21   20 1
    21   22   20 ar
    22   23   22 1
    23   24   22 ar
    24   25   24 1
    25   26   24 ar
    26   27   26 1
    27   28    3 1
    28   29   13 1
    29   30   29 1
    30   31   29 1
    31   32   29 1
    32   33   11 1
    33   34    5 1
    34   35   34 1
    35   36   35 1
    36   37   35 1
    37   38   35 1
    38   39   34 1
    39   40   39 1
    40   41   39 1
    41   42   39 1
    42   43   34 1
    43   44   43 1
    44   45   43 1
    45   46   43 1
    46   19   28 ar
    47   26   28 ar
@<TRIPOS>SUBSTRUCTURE
     1 RES1 1

@<TRIPOS>CRYSIN
  11.8520    7.6468   20.2700  90.0000  99.4650  90.0000  14 1

