# MOL2 file generated by ConQuest
# Please check atom types

@<TRIPOS>MOLECULE
CEPTAT
    34    35     1
SMALL
NO_CHARGES
****
Generated from CSD

@<TRIPOS>ATOM
      1 N1         7.0727    2.6628   15.2394 N.pl3     1 RES1    0.0000
      2 H1         7.5880    2.7879   15.9405 H         1 RES1    0.0000
      3 O1         6.4172    0.0609   12.0829 O.2       1 RES1    0.0000
      4 O2         5.4799   -0.2020   10.1624 O.2       1 RES1    0.0000
      5 O3         3.2422    1.0690   14.3512 O.2       1 RES1    0.0000
      6 O4         3.7570    1.8016   12.3006 O.3       1 RES1    0.0000
      7 N2         6.0424    0.4969   11.0005 N.pl3     1 RES1    0.0000
      8 C1         5.8353    2.1205   15.2812 C.2       1 RES1    0.0000
      9 C2         5.3596    2.0890   13.9706 C.2       1 RES1    0.0000
     10 C3         6.3930    2.6459   13.1308 C.2       1 RES1    0.0000
     11 C4         7.4147    2.9915   13.9550 C.2       1 RES1    0.0000
     12 H2         8.2321    3.3947   13.6865 H         1 RES1    0.0000
     13 C5         5.2281    1.7235   16.5855 C.3       1 RES1    0.0000
     14 H3         5.9149    1.7411   17.2859 H         1 RES1    0.0000
     15 H4         4.8596    0.8187   16.5112 H         1 RES1    0.0000
     16 H5         4.5108    2.3509   16.8172 H         1 RES1    0.0000
     17 C6         6.4510    2.8740   11.6700 C.ar      1 RES1    0.0000
     18 C7         6.2809    1.9101   10.6712 C.ar      1 RES1    0.0000
     19 C8         6.3740    2.2042    9.3242 C.ar      1 RES1    0.0000
     20 H6         6.2309    1.5245    8.6780 H         1 RES1    0.0000
     21 C9         6.6761    3.4915    8.9232 C.ar      1 RES1    0.0000
     22 H7         6.7613    3.6996    7.9989 H         1 RES1    0.0000
     23 C10        6.8528    4.4707    9.8796 C.ar      1 RES1    0.0000
     24 H8         7.0565    5.3593    9.6121 H         1 RES1    0.0000
     25 C11        6.7351    4.1681   11.2275 C.ar      1 RES1    0.0000
     26 H9         6.8510    4.8601   11.8693 H         1 RES1    0.0000
     27 C12        4.0412    1.6052   13.6049 C.2       1 RES1    0.0000
     28 C13        2.4282    1.4178   11.8451 C.3       1 RES1    0.0000
     29 H10        1.7496    2.0476   12.1977 H         1 RES1    0.0000
     30 H11        2.2067    0.5069   12.1626 H         1 RES1    0.0000
     31 C14        2.4422    1.4546   10.3521 C.3       1 RES1    0.0000
     32 H12        2.6168    2.3701   10.0489 H         1 RES1    0.0000
     33 H13        1.5736    1.1574   10.0106 H         1 RES1    0.0000
     34 H14        3.1461    0.8602   10.0170 H         1 RES1    0.0000
@<TRIPOS>BOND
     1    1    2 1
     2    3    7 2
     3    4    7 2
     4    5   27 2
     5    6   27 1
     6    7   18 1
     7    8    1 1
     8    9    8 2
     9   10    9 1
    10   11    1 1
    11   12   11 1
    12   13    8 1
    13   14   13 1
    14   15   13 1
    15   16   13 1
    16   17   10 1
    17   18   17 ar
    18   19   18 ar
    19   20   19 1
    20   21   19 ar
    21   22   21 1
    22   23   21 ar
    23   24   23 1
    24   25   17 ar
    25   26   25 1
    26   27    9 1
    27   28    6 1
    28   29   28 1
    29   30   28 1
    30   31   28 1
    31   32   31 1
    32   33   31 1
    33   34   31 1
    34   10   11 2
    35   23   25 ar
@<TRIPOS>SUBSTRUCTURE
     1 RES1 1

@<TRIPOS>CRYSIN
  10.9353    7.6803   31.8810  90.0000  90.0000  90.0000  61 1

