# MOL2 file generated by ConQuest
# Please check atom types

@<TRIPOS>MOLECULE
CEQCIK
    70    73     1
SMALL
NO_CHARGES
****
Generated from CSD

@<TRIPOS>ATOM
      1 O1         7.7509   17.7628    9.5290 O.2       1 RES1    0.0000
      2 O2         7.1102   16.2989   10.9714 O.2       1 RES1    0.0000
      3 N1         7.4720   16.6198    9.8576 N.pl3     1 RES1    0.0000
      4 N2         9.7570    6.0340   -0.5253 N.3       1 RES1    0.0000
      5 C1         8.7725    7.6299    2.6317 C.ar      1 RES1    0.0000
      6 C2         9.1042    6.6627    1.7051 C.ar      1 RES1    0.0000
      7 C3         9.4326    6.9908    0.3906 C.ar      1 RES1    0.0000
      8 C4         9.3842    8.3494    0.0418 C.ar      1 RES1    0.0000
      9 C5         9.1037    9.3256    0.9778 C.ar      1 RES1    0.0000
     10 C6         8.8060    9.0018    2.3031 C.ar      1 RES1    0.0000
     11 C7         8.5992   10.0164    3.2675 C.1       1 RES1    0.0000
     12 C8         8.4594   10.8207    4.1510 C.1       1 RES1    0.0000
     13 C9         8.3080   11.7466    5.1517 C.1       1 RES1    0.0000
     14 C10        8.1878   12.5719    5.9867 C.1       1 RES1    0.0000
     15 C11        8.0058   13.5777    6.9807 C.ar      1 RES1    0.0000
     16 C12        8.1441   14.9200    6.6225 C.ar      1 RES1    0.0000
     17 C13        7.9716   15.9030    7.5814 C.ar      1 RES1    0.0000
     18 C14        7.6402   15.5651    8.8555 C.ar      1 RES1    0.0000
     19 C15        7.4661   14.2679    9.2300 C.ar      1 RES1    0.0000
     20 C16        7.6268   13.2489    8.2858 C.ar      1 RES1    0.0000
     21 C17        7.4232   11.8791    8.6495 C.1       1 RES1    0.0000
     22 C18        7.2064   10.7205    8.8865 C.1       1 RES1    0.0000
     23 C19        6.9478    9.4307    9.1842 C.1       1 RES1    0.0000
     24 C20        6.6862    8.2878    9.3970 C.1       1 RES1    0.0000
     25 C21        6.4344    6.8995    9.6663 C.ar      1 RES1    0.0000
     26 C22        5.9518    6.4803   10.9108 C.ar      1 RES1    0.0000
     27 C23        5.7149    5.1506   11.1681 C.ar      1 RES1    0.0000
     28 C24        5.9765    4.2285   10.1943 C.ar      1 RES1    0.0000
     29 C25        6.4349    4.6095    8.9714 C.ar      1 RES1    0.0000
     30 C26        6.6801    5.9286    8.6710 C.ar      1 RES1    0.0000
     31 C27        7.1287    6.3221    7.3713 C.1       1 RES1    0.0000
     32 C28        7.5463    6.6338    6.3208 C.1       1 RES1    0.0000
     33 C29        7.9900    6.9806    5.0695 C.1       1 RES1    0.0000
     34 C30        8.3818    7.2476    3.9624 C.1       1 RES1    0.0000
     35 C31       10.1432    6.3535   -1.9004 C.3       1 RES1    0.0000
     36 C32        8.9437    6.5161   -2.8419 C.3       1 RES1    0.0000
     37 C33        9.3536    6.9452   -4.2318 C.3       1 RES1    0.0000
     38 C34        8.1933    7.1739   -5.1490 C.3       1 RES1    0.0000
     39 C35        9.7971    4.6185   -0.1899 C.3       1 RES1    0.0000
     40 C36       11.1336    4.1708    0.4027 C.3       1 RES1    0.0000
     41 C37       11.1677    2.7195    0.7569 C.3       1 RES1    0.0000
     42 C38       12.5708    2.3670    1.2862 C.3       1 RES1    0.0000
     43 H1         9.1214    5.7519    1.9745 H         1 RES1    0.0000
     44 H2         9.5548    8.5939   -0.8606 H         1 RES1    0.0000
     45 H3         9.1001   10.2404    0.7219 H         1 RES1    0.0000
     46 H4         8.3656   15.1438    5.7268 H         1 RES1    0.0000
     47 H5         8.0731   16.8215    7.3592 H         1 RES1    0.0000
     48 H6         7.2424   14.0553   10.1283 H         1 RES1    0.0000
     49 H7         5.7679    7.1346   11.5735 H         1 RES1    0.0000
     50 H8         5.3947    4.8810   12.0206 H         1 RES1    0.0000
     51 H9         5.8148    3.3107   10.3802 H         1 RES1    0.0000
     52 H10        6.6164    3.9548    8.3074 H         1 RES1    0.0000
     53 H11       10.6445    7.1604   -1.8896 H         1 RES1    0.0000
     54 H12       10.6816    5.6511   -2.2452 H         1 RES1    0.0000
     55 H13        8.4617    5.6986   -2.8917 H         1 RES1    0.0000
     56 H14        8.3826    7.1932   -2.4809 H         1 RES1    0.0000
     57 H15        9.8600    7.7463   -4.1671 H         1 RES1    0.0000
     58 H16        9.8976    6.2543   -4.5901 H         1 RES1    0.0000
     59 H17        7.6468    7.8644   -4.7921 H         1 RES1    0.0000
     60 H18        8.5044    7.4277   -6.0096 H         1 RES1    0.0000
     61 H19        7.6870    6.3737   -5.2177 H         1 RES1    0.0000
     62 H20        9.1502    4.4661    0.4876 H         1 RES1    0.0000
     63 H21        9.5961    4.0815   -0.9468 H         1 RES1    0.0000
     64 H22       11.7860    4.3227   -0.2694 H         1 RES1    0.0000
     65 H23       11.3366    4.6974    1.1664 H         1 RES1    0.0000
     66 H24       10.5327    2.5655    1.4465 H         1 RES1    0.0000
     67 H25       10.9481    2.1886    0.0000 H         1 RES1    0.0000
     68 H26       12.6118    1.4521    1.5381 H         1 RES1    0.0000
     69 H27       13.1963    2.5314    0.5899 H         1 RES1    0.0000
     70 H28       12.7804    2.9120    2.0351 H         1 RES1    0.0000
@<TRIPOS>BOND
     1    1    3 2
     2    2    3 2
     3    3   18 1
     4    4    7 1
     5    5    6 ar
     6    6    7 ar
     7    7    8 ar
     8    8    9 ar
     9    9   10 ar
    10   10    5 ar
    11   11   10 1
    12   12   11 3
    13   13   12 1
    14   14   13 3
    15   15   14 1
    16   16   15 ar
    17   17   16 ar
    18   18   17 ar
    19   19   18 ar
    20   20   15 ar
    21   21   20 1
    22   22   21 3
    23   23   22 1
    24   24   23 3
    25   25   24 1
    26   26   25 ar
    27   27   26 ar
    28   28   27 ar
    29   29   28 ar
    30   30   25 ar
    31   31   30 1
    32   32   31 3
    33   33   32 1
    34   34    5 1
    35   35    4 1
    36   36   35 1
    37   37   36 1
    38   38   37 1
    39   39    4 1
    40   40   39 1
    41   41   40 1
    42   42   41 1
    43   43    6 1
    44   44    8 1
    45   45    9 1
    46   46   16 1
    47   47   17 1
    48   48   19 1
    49   49   26 1
    50   50   27 1
    51   51   28 1
    52   52   29 1
    53   53   35 1
    54   54   35 1
    55   55   36 1
    56   56   36 1
    57   57   37 1
    58   58   37 1
    59   59   38 1
    60   60   38 1
    61   61   38 1
    62   62   39 1
    63   63   39 1
    64   64   40 1
    65   65   40 1
    66   66   41 1
    67   67   41 1
    68   68   42 1
    69   69   42 1
    70   70   42 1
    71   19   20 ar
    72   29   30 ar
    73   33   34 3
@<TRIPOS>SUBSTRUCTURE
     1 RES1 1

@<TRIPOS>CRYSIN
  10.7692   11.4492   14.3082  70.5520  78.9290  64.7810   2 1

