# MOL2 file generated by ConQuest
# Please check atom types

@<TRIPOS>MOLECULE
CEQXEB
    29    29     1
SMALL
NO_CHARGES
****
Generated from CSD

@<TRIPOS>ATOM
      1 C1        -0.5862    1.8514    0.3769 C.ar      1 RES1    0.0000
      2 C2        -1.7172    1.1003    0.8299 C.ar      1 RES1    0.0000
      3 C3        -2.5127    0.3415   -0.0039 C.ar      1 RES1    0.0000
      4 H1        -3.2494   -0.1165    0.3321 H         1 RES1    0.0000
      5 C4        -2.1978    0.2760   -1.3410 C.ar      1 RES1    0.0000
      6 C5        -1.1290    0.9904   -1.8702 C.ar      1 RES1    0.0000
      7 H2        -0.9294    0.9407   -2.7777 H         1 RES1    0.0000
      8 C6        -0.3741    1.7696   -1.0301 C.ar      1 RES1    0.0000
      9 C7         1.8355    4.0021    1.7029 C.2       1 RES1    0.0000
     10 C8         3.0141    4.8124    1.2758 C.3       1 RES1    0.0000
     11 H3         3.1422    4.7159    0.3297 H         1 RES1    0.0000
     12 H4         3.7974    4.5058    1.7383 H         1 RES1    0.0000
     13 H5         2.8590    5.7362    1.4854 H         1 RES1    0.0000
     14 C9         1.4575    4.0113    3.1507 C.3       1 RES1    0.0000
     15 H6         0.6875    3.4521    3.2841 H         1 RES1    0.0000
     16 H7         1.2517    4.9086    3.4223 H         1 RES1    0.0000
     17 H8         2.1890    3.6782    3.6751 H         1 RES1    0.0000
     18 N1         0.1731    2.5540    1.2264 N.pl3     1 RES1    0.0000
     19 H9        -0.0038    2.5264    2.0680 H         1 RES1    0.0000
     20 N2        -2.0865    1.0548    2.2431 N.pl3     1 RES1    0.0000
     21 N3        -2.9833   -0.5866   -2.2132 N.pl3     1 RES1    0.0000
     22 N4         0.6930    2.5396   -1.7129 N.pl3     1 RES1    0.0000
     23 N5         1.2344    3.3250    0.7851 N.2       1 RES1    0.0000
     24 O1        -1.2264    1.3546    3.0868 O.2       1 RES1    0.0000
     25 O2        -3.2034    0.6986    2.5383 O.2       1 RES1    0.0000
     26 O3        -3.9810   -1.1196   -1.7587 O.2       1 RES1    0.0000
     27 O4        -2.5685   -0.7692   -3.3548 O.2       1 RES1    0.0000
     28 O5         1.7182    1.9528   -1.9856 O.2       1 RES1    0.0000
     29 O6         0.4385    3.6798   -2.0390 O.2       1 RES1    0.0000
@<TRIPOS>BOND
     1    1    2 ar
     2    2    3 ar
     3    3    4 1
     4    5    3 ar
     5    6    5 ar
     6    7    6 1
     7    8    1 ar
     8    9   10 1
     9   10   11 1
    10   12   10 1
    11   13   10 1
    12   14    9 1
    13   15   14 1
    14   16   14 1
    15   17   14 1
    16   18    1 1
    17   19   18 1
    18   20    2 1
    19   21    5 1
    20   22    8 1
    21   23    9 2
    22   24   20 2
    23   25   20 2
    24   26   21 2
    25   27   21 2
    26   28   22 2
    27   29   22 2
    28    6    8 ar
    29   18   23 1
@<TRIPOS>SUBSTRUCTURE
     1 RES1 1

@<TRIPOS>CRYSIN
  10.1768    7.7968    8.0018  92.1020  99.9190 105.9260   2 1

