# MOL2 file generated by ConQuest
# Please check atom types

@<TRIPOS>MOLECULE
CERLER
    44    44     2
SMALL
NO_CHARGES
****
Generated from CSD

@<TRIPOS>ATOM
      1 O1         6.0577   13.5570    8.2161 O.3       1 RES1    0.0000
      2 O2         2.2469   17.6406    5.1947 O.3       1 RES1    0.0000
      3 H1         2.7512   18.1215    4.7635 H         1 RES1    0.0000
      4 N1         0.8821   16.2263    6.8303 N.pl3     1 RES1    0.0000
      5 H2         0.4893   16.7202    6.2453 H         1 RES1    0.0000
      6 H3         0.4158   15.7501    7.3750 H         1 RES1    0.0000
      7 N2         3.0022   16.8726    6.1218 N.2       1 RES1    0.0000
      8 C1         6.6666   12.5668    9.0550 C.3       1 RES1    0.0000
      9 H4         6.8189   12.9363    9.9284 H         1 RES1    0.0000
     10 H5         7.5040   12.2934    8.6725 H         1 RES1    0.0000
     11 H6         6.0854   11.8055    9.1269 H         1 RES1    0.0000
     12 C2         4.7867   13.9717    8.5551 C.ar      1 RES1    0.0000
     13 C3         4.1272   13.5874    9.7075 C.ar      1 RES1    0.0000
     14 H7         4.5210   12.9931   10.3045 H         1 RES1    0.0000
     15 C4         2.8704   14.1055    9.9524 C.ar      1 RES1    0.0000
     16 H8         2.4271   13.8724   10.7362 H         1 RES1    0.0000
     17 C5         2.2616   14.9593    9.0600 C.ar      1 RES1    0.0000
     18 H9         1.4162   15.2982    9.2506 H         1 RES1    0.0000
     19 C6         2.8955   15.3156    7.8850 C.ar      1 RES1    0.0000
     20 C7         4.1713   14.8139    7.6448 C.ar      1 RES1    0.0000
     21 H10        4.6164   15.0467    6.8625 H         1 RES1    0.0000
     22 C8         2.2436   16.1972    6.8935 C.2       1 RES1    0.0000
     23 O3         1.6373   19.8334    0.7289 O.3       2 RES2    0.0000
     24 O4         5.5118   17.6937    5.2628 O.3       2 RES2    0.0000
     25 H11        5.0178   17.3480    5.8187 H         2 RES2    0.0000
     26 N3         6.8285   19.2269    3.6766 N.pl3     2 RES2    0.0000
     27 H12        7.2397   18.7625    4.2725 H         2 RES2    0.0000
     28 H13        7.2754   19.7269    3.1391 H         2 RES2    0.0000
     29 N4         4.7316   18.4548    4.3399 N.2       2 RES2    0.0000
     30 C9         0.9544   20.5175   -0.3219 C.3       2 RES2    0.0000
     31 H14        0.7723   21.4212   -0.0505 H         2 RES2    0.0000
     32 H15        0.1271   20.0673   -0.5112 H         2 RES2    0.0000
     33 H16        1.5029   20.5249   -1.1095 H         2 RES2    0.0000
     34 C10        2.8756   20.3167    1.1032 C.ar      2 RES2    0.0000
     35 C11        3.5354   19.5692    2.0641 C.ar      2 RES2    0.0000
     36 H17        3.1474   18.7890    2.3881 H         2 RES2    0.0000
     37 C12        4.7794   19.9782    2.5495 C.ar      2 RES2    0.0000
     38 C13        5.3436   21.1334    2.0384 C.ar      2 RES2    0.0000
     39 H18        6.1715   21.4194    2.3502 H         2 RES2    0.0000
     40 C14        4.6913   21.8636    1.0716 C.ar      2 RES2    0.0000
     41 H19        5.0840   22.6391    0.7384 H         2 RES2    0.0000
     42 C15        3.4525   21.4576    0.5844 C.ar      2 RES2    0.0000
     43 H20        3.0216   21.9469   -0.0783 H         2 RES2    0.0000
     44 C16        5.4683   19.1694    3.5842 C.2       2 RES2    0.0000
@<TRIPOS>BOND
     1    1    8 1
     2    2    3 1
     3    4    5 1
     4    6    4 1
     5    7    2 1
     6    8    9 1
     7   10    8 1
     8   11    8 1
     9   12    1 1
    10   13   12 ar
    11   14   13 1
    12   15   13 ar
    13   16   15 1
    14   17   15 ar
    15   18   17 1
    16   19   17 ar
    17   20   12 ar
    18   21   20 1
    19   22    4 1
    20   23   30 1
    21   24   25 1
    22   26   27 1
    23   28   26 1
    24   29   24 1
    25   30   31 1
    26   32   30 1
    27   33   30 1
    28   34   23 1
    29   35   34 ar
    30   36   35 1
    31   37   35 ar
    32   38   37 ar
    33   39   38 1
    34   40   38 ar
    35   41   40 1
    36   42   34 ar
    37   43   42 1
    38   44   26 1
    39    7   22 2
    40   19   20 ar
    41   19   22 1
    42   29   44 2
    43   37   44 1
    44   40   42 ar
@<TRIPOS>SUBSTRUCTURE
     1 RES1 1
     2 RES2 23

@<TRIPOS>CRYSIN
   6.8630   18.9100   12.8930  90.0000 101.7700  90.0000  14 1

