# MOL2 file generated by ConQuest
# Please check atom types

@<TRIPOS>MOLECULE
CERNUJ
    52    53     1
SMALL
NO_CHARGES
****
Generated from CSD

@<TRIPOS>ATOM
      1 N1         4.2383    3.1535    5.6124 N.3       1 RES1    0.0000
      2 N2         7.6704    0.3558    2.2788 N.pl3     1 RES1    0.0000
      3 O1         5.7809    6.4777    2.6279 O.2       1 RES1    0.0000
      4 O2         6.1853    6.7958    4.8142 O.3       1 RES1    0.0000
      5 O3         1.3719    1.9598    2.6595 O.2       1 RES1    0.0000
      6 O4         2.6335    3.1322    1.2125 O.3       1 RES1    0.0000
      7 O5         3.5251    1.6183   -1.0676 O.3       1 RES1    0.0000
      8 O6         4.6107    2.5062   -2.8098 O.2       1 RES1    0.0000
      9 O7         7.3001   -0.0990    3.3598 O.2       1 RES1    0.0000
     10 O8         8.5142   -0.1972    1.5688 O.2       1 RES1    0.0000
     11 C1         4.9809    4.3069    5.4007 C.2       1 RES1    0.0000
     12 C2         5.0325    4.8274    4.1492 C.2       1 RES1    0.0000
     13 C3         4.4158    4.0917    2.9595 C.3       1 RES1    0.0000
     14 H1         3.9759    4.7757    2.3766 H         1 RES1    0.0000
     15 C4         3.3343    3.1266    3.4327 C.2       1 RES1    0.0000
     16 C5         3.3339    2.6449    4.6971 C.2       1 RES1    0.0000
     17 C6         5.6207    4.8315    6.6554 C.3       1 RES1    0.0000
     18 H2         6.5569    5.0582    6.4745 H         1 RES1    0.0000
     19 H3         5.5803    4.1453    7.3537 H         1 RES1    0.0000
     20 H4         5.1428    5.6323    6.9553 H         1 RES1    0.0000
     21 C7         5.6939    6.0888    3.7789 C.2       1 RES1    0.0000
     22 C8         6.7971    8.0680    4.4656 C.3       1 RES1    0.0000
     23 H5         7.5848    7.9092    3.9047 H         1 RES1    0.0000
     24 H6         7.0673    8.5355    5.2834 H         1 RES1    0.0000
     25 H7         6.1512    8.6170    3.9738 H         1 RES1    0.0000
     26 C9         5.4805    3.3813    2.1162 C.ar      1 RES1    0.0000
     27 C10        6.1221    2.2425    2.5963 C.ar      1 RES1    0.0000
     28 H8         5.9308    1.9129    3.4667 H         1 RES1    0.0000
     29 C11        7.0471    1.5939    1.7838 C.ar      1 RES1    0.0000
     30 C12        7.3698    2.0382    0.5168 C.ar      1 RES1    0.0000
     31 H9         7.9967    1.5690   -0.0209 H         1 RES1    0.0000
     32 C13        6.7521    3.1892    0.0514 C.ar      1 RES1    0.0000
     33 H10        6.9700    3.5316   -0.8079 H         1 RES1    0.0000
     34 C14        5.8127    3.8431    0.8437 C.ar      1 RES1    0.0000
     35 H11        5.3873    4.6241    0.5083 H         1 RES1    0.0000
     36 C15        2.3390    2.6625    2.4508 C.2       1 RES1    0.0000
     37 C16        1.7753    2.6788    0.1358 C.3       1 RES1    0.0000
     38 H12        0.9834    3.2676    0.0571 H         1 RES1    0.0000
     39 H13        1.4643    1.7553    0.3107 H         1 RES1    0.0000
     40 C17        2.5834    2.7254   -1.1242 C.3       1 RES1    0.0000
     41 H14        1.9937    2.6349   -1.9145 H         1 RES1    0.0000
     42 H15        3.0684    3.5864   -1.1899 H         1 RES1    0.0000
     43 C18        4.4920    1.6155   -1.9925 C.2       1 RES1    0.0000
     44 C19        5.3554    0.4041   -1.9062 C.3       1 RES1    0.0000
     45 H16        5.0691   -0.2502   -2.5775 H         1 RES1    0.0000
     46 H17        5.2769    0.0104   -1.0121 H         1 RES1    0.0000
     47 H18        6.2879    0.6548   -2.0725 H         1 RES1    0.0000
     48 C20        2.4463    1.5724    5.2660 C.3       1 RES1    0.0000
     49 H19        1.5400    1.9268    5.3833 H         1 RES1    0.0000
     50 H20        2.7978    1.2836    6.1342 H         1 RES1    0.0000
     51 H21        2.4224    0.8090    4.6522 H         1 RES1    0.0000
     52 H22        4.2393    2.7816    6.4240 H         1 RES1    0.0000
@<TRIPOS>BOND
     1    1   11 1
     2    2    9 2
     3    3   21 2
     4    4   21 1
     5    5   36 2
     6    6   36 1
     7    7   40 1
     8    8   43 2
     9   10    2 2
    10   11   12 2
    11   12   13 1
    12   13   14 1
    13   15   13 1
    14   16    1 1
    15   17   11 1
    16   18   17 1
    17   19   17 1
    18   20   17 1
    19   21   12 1
    20   22    4 1
    21   23   22 1
    22   24   22 1
    23   25   22 1
    24   26   13 1
    25   27   26 ar
    26   28   27 1
    27   29    2 1
    28   30   29 ar
    29   31   30 1
    30   32   30 ar
    31   33   32 1
    32   34   26 ar
    33   35   34 1
    34   36   15 1
    35   37    6 1
    36   38   37 1
    37   39   37 1
    38   40   37 1
    39   41   40 1
    40   42   40 1
    41   43    7 1
    42   44   43 1
    43   45   44 1
    44   46   44 1
    45   47   44 1
    46   48   16 1
    47   49   48 1
    48   50   48 1
    49   51   48 1
    50   52    1 1
    51   15   16 2
    52   27   29 ar
    53   32   34 ar
@<TRIPOS>SUBSTRUCTURE
     1 RES1 1

@<TRIPOS>CRYSIN
   9.0389   10.6990   11.0049  93.4520  90.8710 109.1530   2 1

