# MOL2 file generated by ConQuest
# Please check atom types

@<TRIPOS>MOLECULE
CERQIA
    38    38     2
SMALL
NO_CHARGES
****
Generated from CSD

@<TRIPOS>ATOM
      1 O1         0.5153    3.2028   10.3478 O.3       1 RES1    0.0000
      2 H1         0.2649    2.5302   10.7852 H         1 RES1    0.0000
      3 O2         0.0241    6.1593    8.8578 O.3       1 RES1    0.0000
      4 H2        -0.3505    6.2801    8.1155 H         1 RES1    0.0000
      5 O3         0.4590    3.3010    4.1352 O.2       1 RES1    0.0000
      6 O4        -0.4841    1.4025    4.4650 O.2       1 RES1    0.0000
      7 N1         0.0743    2.4034    4.8887 N.pl3     1 RES1    0.0000
      8 O5         0.3222    8.1977   10.5195 O.3       2 RES2    0.0000
      9 H3         0.2147    7.5452   10.0026 H         2 RES2    0.0000
     10 O6        -0.1120   10.8920   12.0371 O.3       2 RES2    0.0000
     11 H4        -0.5932   11.0430   12.7085 H         2 RES2    0.0000
     12 O7         0.6977    7.4230   16.6720 O.2       2 RES2    0.0000
     13 O8        -0.0327    5.4810   16.1249 O.2       2 RES2    0.0000
     14 N2         0.2953    6.6056   15.8306 N.pl3     2 RES2    0.0000
     15 C1         0.7997    3.9784    8.1546 C.ar      1 RES1    0.0000
     16 C2         0.4382    2.9384    9.0337 C.ar      1 RES1    0.0000
     17 C3         0.0136    1.7041    8.5316 C.ar      1 RES1    0.0000
     18 H5        -0.1942    0.9965    9.1305 H         1 RES1    0.0000
     19 C4        -0.1054    1.5115    7.1724 C.ar      1 RES1    0.0000
     20 H6        -0.4152    0.6826    6.8255 H         1 RES1    0.0000
     21 C5         0.2375    2.5586    6.3125 C.ar      1 RES1    0.0000
     22 C6         0.7056    3.7710    6.7927 C.ar      1 RES1    0.0000
     23 H7         0.9610    4.4567    6.1879 H         1 RES1    0.0000
     24 C7         1.1866    5.3299    8.6785 C.3       1 RES1    0.0000
     25 H8         1.6555    5.2269    9.5442 H         1 RES1    0.0000
     26 H9         1.8083    5.7660    8.0430 H         1 RES1    0.0000
     27 C8         0.6382    8.6948   12.7902 C.ar      2 RES2    0.0000
     28 C9         0.2902    7.7686   11.7940 C.ar      2 RES2    0.0000
     29 C10       -0.0617    6.4602   12.1343 C.ar      2 RES2    0.0000
     30 H10       -0.2924    5.8373   11.4547 H         2 RES2    0.0000
     31 C11       -0.0727    6.0741   13.4595 C.ar      2 RES2    0.0000
     32 H11       -0.3178    5.1893   13.7022 H         2 RES2    0.0000
     33 C12        0.2793    7.0013   14.4321 C.ar      2 RES2    0.0000
     34 C13        0.6362    8.2904   14.1122 C.ar      2 RES2    0.0000
     35 H12        0.8812    8.9018   14.7982 H         2 RES2    0.0000
     36 C14        1.0218   10.1023   12.4298 C.3       2 RES2    0.0000
     37 H13        1.4606   10.5289   13.2075 H         2 RES2    0.0000
     38 H14        1.6760   10.0812   11.6871 H         2 RES2    0.0000
@<TRIPOS>BOND
     1    1    2 1
     2    3    4 1
     3    5    7 2
     4    6    7 2
     5    7   21 1
     6    8    9 1
     7   10   11 1
     8   12   14 2
     9   13   14 2
    10   14   33 1
    11   15   16 ar
    12   16    1 1
    13   17   16 ar
    14   18   17 1
    15   19   17 ar
    16   20   19 1
    17   21   19 ar
    18   22   15 ar
    19   23   22 1
    20   24    3 1
    21   25   24 1
    22   26   24 1
    23   27   28 ar
    24   28    8 1
    25   29   28 ar
    26   30   29 1
    27   31   29 ar
    28   32   31 1
    29   33   31 ar
    30   34   27 ar
    31   35   34 1
    32   36   10 1
    33   37   36 1
    34   38   36 1
    35   15   24 1
    36   21   22 ar
    37   27   36 1
    38   33   34 ar
@<TRIPOS>SUBSTRUCTURE
     1 RES1 1
     2 RES2 8

@<TRIPOS>CRYSIN
   7.2099    9.6277   21.5374  90.0000  98.0910  90.0000  14 1

