# MOL2 file generated by ConQuest
# Please check atom types

@<TRIPOS>MOLECULE
CERWEB
    46    51     1
SMALL
NO_CHARGES
****
Generated from CSD

@<TRIPOS>ATOM
      1 O1         1.0153   -2.1757    5.8798 O.2       1 RES1    0.0000
      2 O2         3.0883   -2.5724    5.8649 O.2       1 RES1    0.0000
      3 N1         2.1644   -1.8172    5.9755 N.pl3     1 RES1    0.0000
      4 C1         2.4216   -0.4056    6.1985 C.ar      1 RES1    0.0000
      5 C2         3.7000    0.0710    6.3936 C.ar      1 RES1    0.0000
      6 C3         3.9499    1.3985    6.6082 C.ar      1 RES1    0.0000
      7 C4         2.9431    2.3769    6.6091 C.ar      1 RES1    0.0000
      8 C5         1.6722    1.8698    6.3118 C.ar      1 RES1    0.0000
      9 C6         1.3985    0.5320    6.1408 C.ar      1 RES1    0.0000
     10 C7        -0.0897    0.7651    5.9011 C.3       1 RES1    0.0000
     11 C8        -1.0011    0.4872    7.0635 C.3       1 RES1    0.0000
     12 C9        -2.3776    1.1573    6.6816 C.3       1 RES1    0.0000
     13 C10       -2.0868    2.6208    6.8935 C.3       1 RES1    0.0000
     14 C11       -0.5915    2.6966    7.2846 C.3       1 RES1    0.0000
     15 C12        0.2256    2.3168    6.0702 C.3       1 RES1    0.0000
     16 C13        3.1114    3.8531    6.8832 C.3       1 RES1    0.0000
     17 C14        2.7468    4.2096    8.3969 C.3       1 RES1    0.0000
     18 C15        3.8626    5.0220    8.8847 C.3       1 RES1    0.0000
     19 C16        5.0023    4.2644    8.2612 C.3       1 RES1    0.0000
     20 C17        4.5211    4.4216    6.7773 C.3       1 RES1    0.0000
     21 C18        4.3595    5.9476    6.6937 C.3       1 RES1    0.0000
     22 C19        3.9602    6.3474    8.1525 C.3       1 RES1    0.0000
     23 C20       -0.4822    1.4470    8.1841 C.3       1 RES1    0.0000
     24 H1         4.1924   -0.3353    6.2867 H         1 RES1    0.0000
     25 H2         4.6796    1.7823    6.6668 H         1 RES1    0.0000
     26 H3        -0.4650    0.5792    5.1030 H         1 RES1    0.0000
     27 H4        -0.9533   -0.4481    7.2558 H         1 RES1    0.0000
     28 H5        -2.8934    0.9444    7.3144 H         1 RES1    0.0000
     29 H6        -2.8170    0.8712    5.8537 H         1 RES1    0.0000
     30 H7        -2.6228    2.8817    7.4491 H         1 RES1    0.0000
     31 H8        -2.1279    2.9340    6.1250 H         1 RES1    0.0000
     32 H9        -0.4831    3.5304    7.7418 H         1 RES1    0.0000
     33 H10        0.0997    2.9015    5.2897 H         1 RES1    0.0000
     34 H11        0.5462    1.3076    8.5399 H         1 RES1    0.0000
     35 H12        2.4474    4.3487    6.2588 H         1 RES1    0.0000
     36 H13        1.9322    4.6258    8.4563 H         1 RES1    0.0000
     37 H14        2.5087    3.2944    8.8949 H         1 RES1    0.0000
     38 H15        3.6966    5.1455    9.7488 H         1 RES1    0.0000
     39 H16        5.1124    3.3441    8.5604 H         1 RES1    0.0000
     40 H17        5.7856    4.6404    8.5567 H         1 RES1    0.0000
     41 H18        5.1399    4.0217    6.1102 H         1 RES1    0.0000
     42 H19        5.2244    6.3597    6.4382 H         1 RES1    0.0000
     43 H20        3.4892    6.3308    5.8240 H         1 RES1    0.0000
     44 H21        4.5141    6.9839    8.6468 H         1 RES1    0.0000
     45 H22        2.9130    6.5772    8.1646 H         1 RES1    0.0000
     46 H23       -1.2106    1.4501    9.0175 H         1 RES1    0.0000
@<TRIPOS>BOND
     1    1    3 2
     2    2    3 2
     3    3    4 1
     4    4    5 ar
     5    5    6 ar
     6    6    7 ar
     7    7    8 ar
     8    8    9 ar
     9    9    4 ar
    10   10    9 1
    11   11   10 1
    12   12   11 1
    13   13   12 1
    14   14   13 1
    15   15    8 1
    16   16    7 1
    17   17   16 1
    18   18   17 1
    19   19   18 1
    20   20   16 1
    21   21   20 1
    22   22   18 1
    23   23   11 1
    24   24    5 1
    25   25    6 1
    26   26   10 1
    27   27   11 1
    28   28   12 1
    29   29   12 1
    30   30   13 1
    31   31   13 1
    32   32   14 1
    33   33   15 1
    34   34   23 1
    35   35   16 1
    36   36   17 1
    37   37   17 1
    38   38   18 1
    39   39   19 1
    40   40   19 1
    41   41   20 1
    42   42   21 1
    43   43   21 1
    44   44   22 1
    45   45   22 1
    46   46   23 1
    47   10   15 1
    48   14   15 1
    49   14   23 1
    50   19   20 1
    51   21   22 1
@<TRIPOS>SUBSTRUCTURE
     1 RES1 1

@<TRIPOS>CRYSIN
  10.3280    9.0280    9.8760 105.0900  97.3200 107.7200   2 1

