# MOL2 file generated by ConQuest
# Please check atom types

@<TRIPOS>MOLECULE
CERXUS
    48    45     3
SMALL
USER_CHARGES
****
Generated from CSD

@<TRIPOS>ATOM
      1 O1        24.2780    3.7931    5.3133 O.3       1 RES1    0.0000
      2 C1        25.6697    4.0558    4.9877 C.3       1 RES1    0.0000
      3 C2        26.4845    3.1098    5.8781 C.3       1 RES1    0.0000
      4 N1        27.9430    3.0817    5.5655 N.4       1 RES1    1.0000
      5 C3        28.5772    4.4540    5.7413 C.3       1 RES1    0.0000
      6 C4        28.6231    2.1406    6.4605 C.3       1 RES1    0.0000
      7 O2        28.1568    2.6814    4.2341 O.2       1 RES1   -1.0000
      8 H1        25.8067    3.8486    4.0192 H         1 RES1    0.0000
      9 H2        25.8897    5.0004    5.1635 H         1 RES1    0.0000
     10 H3        26.4358    3.3500    6.8289 H         1 RES1    0.0000
     11 H4        26.1250    2.1842    5.7962 H         1 RES1    0.0000
     12 H5        28.1682    5.0847    5.2194 H         1 RES1    0.0000
     13 H6        28.4827    4.8248    6.6242 H         1 RES1    0.0000
     14 H7        29.6566    4.4034    5.4985 H         1 RES1    0.0000
     15 H8        28.5343    2.3316    7.4057 H         1 RES1    0.0000
     16 H9        28.3173    1.2571    6.4195 H         1 RES1    0.0000
     17 H10       29.7358    2.1561    6.2707 H         1 RES1    0.0000
     18 O3        26.5606    6.8994    8.5305 O.3       2 RES2    0.0000
     19 C5        25.5337    7.0420    7.5806 C.3       2 RES2    0.0000
     20 C6        24.3279    6.3474    8.0728 C.3       2 RES2    0.0000
     21 N2        23.0556    6.5195    7.1936 N.4       2 RES2    1.0000
     22 C7        22.5802    7.9613    7.1517 C.3       2 RES2    0.0000
     23 C8        22.0019    5.6893    7.7621 C.3       2 RES2    0.0000
     24 O4        23.3646    6.1198    5.8753 O.2       2 RES2   -1.0000
     25 H11       26.6493    6.0468    8.4850 H         2 RES2    0.0000
     26 H12       25.2838    7.9571    7.4522 H         2 RES2    0.0000
     27 H13       25.7963    6.6297    6.6800 H         2 RES2    0.0000
     28 H14       24.1817    6.6227    8.9967 H         2 RES2    0.0000
     29 H15       24.4828    5.3937    8.1221 H         2 RES2    0.0000
     30 H16       23.2808    8.4838    6.7824 H         2 RES2    0.0000
     31 H17       22.3917    8.1958    8.0291 H         2 RES2    0.0000
     32 H18       21.7758    8.0554    6.5870 H         2 RES2    0.0000
     33 H19       21.7726    5.9906    8.6896 H         2 RES2    0.0000
     34 H20       22.2208    4.7335    7.7221 H         2 RES2    0.0000
     35 H21       21.1071    5.7518    7.2383 H         2 RES2    0.0000
     36 O5        19.2279    7.1333    5.6148 O.3       3 RES3    0.0000
     37 C9        19.4737    6.7330    4.2518 C.3       3 RES3    0.0000
     38 C10       19.5539    5.5369    3.9364 C.3       3 RES3    0.0000
     39 N3        19.3847    4.3198    4.7942 N.4       3 RES3    1.0000
     40 C11       18.2857    3.5403    4.2229 C.3       3 RES3    0.0000
     41 C12       20.6077    3.4869    4.6974 C.3       3 RES3    0.0000
     42 O6        19.0965    4.6527    6.0986 O.2       3 RES3   -1.0000
     43 H22       17.4646    4.0593    4.3169 H         3 RES3    0.0000
     44 H23       18.3868    3.2376    3.2935 H         3 RES3    0.0000
     45 H24       18.1629    2.7179    4.8193 H         3 RES3    0.0000
     46 H25       20.7811    3.2587    3.6750 H         3 RES3    0.0000
     47 H26       21.3143    4.0101    5.1449 H         3 RES3    0.0000
     48 H27       20.5114    2.6196    5.3031 H         3 RES3    0.0000
@<TRIPOS>BOND
     1    1    2 1
     2    2    3 1
     3    3    4 1
     4    4    5 1
     5    5   12 1
     6    6    4 1
     7    7    4 1
     8    8    2 1
     9    9    2 1
    10   10    3 1
    11   11    3 1
    12   13    5 1
    13   14    5 1
    14   15    6 1
    15   16    6 1
    16   17    6 1
    17   18   19 1
    18   19   20 1
    19   20   21 1
    20   21   22 1
    21   22   30 1
    22   23   21 1
    23   24   21 1
    24   25   18 1
    25   26   19 1
    26   27   19 1
    27   28   20 1
    28   29   20 1
    29   31   22 1
    30   32   22 1
    31   33   23 1
    32   34   23 1
    33   35   23 1
    34   36   37 1
    35   37   38 1
    36   38   39 1
    37   39   40 1
    38   40   43 1
    39   41   39 1
    40   42   39 1
    41   44   40 1
    42   45   40 1
    43   46   41 1
    44   47   41 1
    45   48   41 1
@<TRIPOS>SUBSTRUCTURE
     1 RES1 1
     2 RES2 18
     3 RES3 36

@<TRIPOS>CRYSIN
  25.7250    7.0230    9.4830  90.0000 101.1600  90.0000   9 1

