# MOL2 file generated by ConQuest
# Please check atom types

@<TRIPOS>MOLECULE
CESBOS
    34    35     1
SMALL
NO_CHARGES
****
Generated from CSD

@<TRIPOS>ATOM
      1 O1         2.1749    1.1030   16.4113 O.2       1 RES1    0.0000
      2 O2         2.7176   -0.4705   15.0332 O.2       1 RES1    0.0000
      3 O3         3.2567   10.8690    7.2523 O.2       1 RES1    0.0000
      4 N1         2.4420    0.7003   15.2821 N.pl3     1 RES1    0.0000
      5 N2         2.4167    5.6342   11.0523 N.2       1 RES1    0.0000
      6 N3         2.7120    8.8223    6.4170 N.am      1 RES1    0.0000
      7 H1         2.5336    8.3968    5.6668 H         1 RES1    0.0000
      8 C1         2.4540    3.4536   12.0906 C.ar      1 RES1    0.0000
      9 C2         2.4752    2.0845   11.8459 C.ar      1 RES1    0.0000
     10 H2         2.5097    1.7693   10.9502 H         1 RES1    0.0000
     11 C3         2.4463    1.1762   12.8884 C.ar      1 RES1    0.0000
     12 H3         2.4378    0.2415   12.7211 H         1 RES1    0.0000
     13 C4         2.4308    1.6639   14.1764 C.ar      1 RES1    0.0000
     14 C5         2.4244    3.0213   14.4678 C.ar      1 RES1    0.0000
     15 H4         2.4216    3.3274   15.3664 H         1 RES1    0.0000
     16 C6         2.4230    3.9167   13.4126 C.ar      1 RES1    0.0000
     17 H5         2.4004    4.8507   13.5857 H         1 RES1    0.0000
     18 C7         2.4815    4.3642   10.9470 C.2       1 RES1    0.0000
     19 H6         2.5506    3.9896   10.0757 H         1 RES1    0.0000
     20 C8         2.4448    6.4087    9.8632 C.ar      1 RES1    0.0000
     21 C9         1.9522    5.9833    8.6253 C.ar      1 RES1    0.0000
     22 H7         1.5540    5.1240    8.5491 H         1 RES1    0.0000
     23 C10        2.0382    6.7934    7.5183 C.ar      1 RES1    0.0000
     24 H8         1.7034    6.4848    6.6854 H         1 RES1    0.0000
     25 C11        2.6098    8.0627    7.6043 C.ar      1 RES1    0.0000
     26 C12        3.0707    8.5154    8.8432 C.ar      1 RES1    0.0000
     27 H9         3.4477    9.3839    8.9253 H         1 RES1    0.0000
     28 C13        2.9748    7.6891    9.9538 C.ar      1 RES1    0.0000
     29 H10        3.2793    8.0065   10.7963 H         1 RES1    0.0000
     30 C14        3.0545   10.1408    6.2929 C.2       1 RES1    0.0000
     31 C15        3.1672   10.6379    4.8798 C.3       1 RES1    0.0000
     32 H11        3.4238   11.5830    4.8852 H         1 RES1    0.0000
     33 H12        2.3032   10.5366    4.4284 H         1 RES1    0.0000
     34 H13        3.8473   10.1174    4.4040 H         1 RES1    0.0000
@<TRIPOS>BOND
     1    1    4 2
     2    2    4 2
     3    3   30 2
     4    4   13 1
     5    5   18 2
     6    6    7 1
     7    8    9 ar
     8    9   10 1
     9   11    9 ar
    10   12   11 1
    11   13   11 ar
    12   14   13 ar
    13   15   14 1
    14   16    8 ar
    15   17   16 1
    16   18    8 1
    17   19   18 1
    18   20    5 1
    19   21   20 ar
    20   22   21 1
    21   23   21 ar
    22   24   23 1
    23   25    6 1
    24   26   25 ar
    25   27   26 1
    26   28   20 ar
    27   29   28 1
    28   30    6 1
    29   31   30 1
    30   32   31 1
    31   33   31 1
    32   34   31 1
    33   14   16 ar
    34   23   25 ar
    35   26   28 ar
@<TRIPOS>SUBSTRUCTURE
     1 RES1 1

@<TRIPOS>CRYSIN
   7.0477   15.1868   24.4260  90.0000  90.0000  90.0000  61 1

