# MOL2 file generated by ConQuest
# Please check atom types

@<TRIPOS>MOLECULE
CESYOR
    28    29     1
SMALL
NO_CHARGES
****
Generated from CSD

@<TRIPOS>ATOM
      1 O1        -0.5097    8.6091    8.4288 O.3       1 RES1    0.0000
      2 O2        -1.8205    7.4616    6.8547 O.3       1 RES1    0.0000
      3 H1        -2.5564    7.2979    7.2252 H         1 RES1    0.0000
      4 O3         2.4494    6.7834    7.9211 O.2       1 RES1    0.0000
      5 N1         0.7529    8.2259    7.9150 N.am      1 RES1    0.0000
      6 C1         0.9558    8.7597    6.5615 C.3       1 RES1    0.0000
      7 H2         1.1900    8.0152    5.9361 H         1 RES1    0.0000
      8 C2        -0.4467    9.3103    6.2169 C.3       1 RES1    0.0000
      9 H3        -0.4585   10.2990    6.2660 H         1 RES1    0.0000
     10 H4        -0.7206    9.0314    5.3073 H         1 RES1    0.0000
     11 C3        -1.3629    8.7076    7.2642 C.3       1 RES1    0.0000
     12 H5        -2.1327    9.3189    7.4469 H         1 RES1    0.0000
     13 C4         2.0136    9.8373    6.4911 C.ar      1 RES1    0.0000
     14 C5         2.2762   10.6798    7.5642 C.ar      1 RES1    0.0000
     15 H6         1.8373   10.5384    8.3950 H         1 RES1    0.0000
     16 C6         3.1787   11.7304    7.4269 C.ar      1 RES1    0.0000
     17 H7         3.3596   12.2973    8.1675 H         1 RES1    0.0000
     18 C7         3.8143   11.9537    6.2174 C.ar      1 RES1    0.0000
     19 H8         4.4208   12.6784    6.1201 H         1 RES1    0.0000
     20 C8         3.5560   11.1096    5.1517 C.ar      1 RES1    0.0000
     21 H9         3.9908   11.2561    4.3199 H         1 RES1    0.0000
     22 C9         2.6702   10.0534    5.2852 C.ar      1 RES1    0.0000
     23 H10        2.5105    9.4742    4.5494 H         1 RES1    0.0000
     24 C10        1.3803    7.1544    8.4211 C.2       1 RES1    0.0000
     25 C11        0.7680    6.4984    9.6220 C.3       1 RES1    0.0000
     26 H11        1.3027    5.7169    9.8753 H         1 RES1    0.0000
     27 H12       -0.1451    6.2143    9.4089 H         1 RES1    0.0000
     28 H13        0.7471    7.1350   10.3668 H         1 RES1    0.0000
@<TRIPOS>BOND
     1    1    5 1
     2    2    3 1
     3    4   24 2
     4    5    6 1
     5    6    7 1
     6    8    6 1
     7    9    8 1
     8   10    8 1
     9   11    1 1
    10   12   11 1
    11   13    6 1
    12   14   13 ar
    13   15   14 1
    14   16   14 ar
    15   17   16 1
    16   18   16 ar
    17   19   18 1
    18   20   18 ar
    19   21   20 1
    20   22   13 ar
    21   23   22 1
    22   24    5 1
    23   25   24 1
    24   26   25 1
    25   27   25 1
    26   28   25 1
    27    2   11 1
    28    8   11 1
    29   20   22 ar
@<TRIPOS>SUBSTRUCTURE
     1 RES1 1

@<TRIPOS>CRYSIN
   6.7496   15.2741   10.2117  90.0000  96.4840  90.0000 231 1

