# MOL2 file generated by ConQuest
# Please check atom types

@<TRIPOS>MOLECULE
CESYEH
    37    40     1
SMALL
NO_CHARGES
****
Generated from CSD

@<TRIPOS>ATOM
      1 O1         2.0618    5.7273   11.3080 O.3       1 RES1    0.0000
      2 O2         3.7602    7.1431   10.4490 O.3       1 RES1    0.0000
      3 O3         2.8620    4.7444    8.0666 O.2       1 RES1    0.0000
      4 O4         1.0818    5.8066    8.9961 O.3       1 RES1    0.0000
      5 N1         2.6080    4.8153   10.3337 N.am      1 RES1    0.0000
      6 C1         4.0634    4.6932   10.5947 C.3       1 RES1    0.0000
      7 H1         4.5645    4.5595    9.7397 H         1 RES1    0.0000
      8 C2         4.3858    6.0447   11.1955 C.3       1 RES1    0.0000
      9 H2         5.2119    6.1891   11.7400 H         1 RES1    0.0000
     10 C3         3.1159    6.6053   11.5924 C.3       1 RES1    0.0000
     11 H3         3.0723    7.1573   12.4252 H         1 RES1    0.0000
     12 C4         2.2397    5.1420    9.0218 C.2       1 RES1    0.0000
     13 C5         0.5401    6.1173    7.6745 C.3       1 RES1    0.0000
     14 H4        -0.4425    5.9959    7.6797 H         1 RES1    0.0000
     15 H5         0.9242    5.5000    7.0027 H         1 RES1    0.0000
     16 C6         0.8734    7.5367    7.3077 C.ar      1 RES1    0.0000
     17 C7        -0.0270    8.5596    7.5791 C.ar      1 RES1    0.0000
     18 H6        -0.8646    8.3566    7.9786 H         1 RES1    0.0000
     19 C8         0.2879    9.8747    7.2714 C.ar      1 RES1    0.0000
     20 H7        -0.3368   10.5670    7.4529 H         1 RES1    0.0000
     21 C9         1.5106   10.1800    6.7003 C.ar      1 RES1    0.0000
     22 H8         1.7296   11.0827    6.5011 H         1 RES1    0.0000
     23 C10        2.4132    9.1718    6.4196 C.ar      1 RES1    0.0000
     24 H9         3.2507    9.3805    6.0222 H         1 RES1    0.0000
     25 C11        2.0961    7.8536    6.7190 C.ar      1 RES1    0.0000
     26 H10        2.7169    7.1625    6.5210 H         1 RES1    0.0000
     27 C12        4.3904    3.5903   11.5833 C.ar      1 RES1    0.0000
     28 C13        5.6251    2.9566   11.5090 C.ar      1 RES1    0.0000
     29 H11        6.2472    3.2081   10.8367 H         1 RES1    0.0000
     30 C14        5.9504    1.9558   12.4161 C.ar      1 RES1    0.0000
     31 H12        6.7943    1.5231   12.3583 H         1 RES1    0.0000
     32 C15        5.0529    1.5850   13.4045 C.ar      1 RES1    0.0000
     33 H13        5.2765    0.8949   14.0180 H         1 RES1    0.0000
     34 C16        3.8284    2.2256   13.4929 C.ar      1 RES1    0.0000
     35 H14        3.2136    1.9815   14.1749 H         1 RES1    0.0000
     36 C17        3.4963    3.2264   12.5841 C.ar      1 RES1    0.0000
     37 H15        2.6548    3.6629   12.6478 H         1 RES1    0.0000
@<TRIPOS>BOND
     1    1    5 1
     2    2    8 1
     3    3   12 2
     4    4   12 1
     5    5    6 1
     6    6    7 1
     7    8    6 1
     8    9    8 1
     9   10    1 1
    10   11   10 1
    11   12    5 1
    12   13    4 1
    13   14   13 1
    14   15   13 1
    15   16   13 1
    16   17   16 ar
    17   18   17 1
    18   19   17 ar
    19   20   19 1
    20   21   19 ar
    21   22   21 1
    22   23   21 ar
    23   24   23 1
    24   25   16 ar
    25   26   25 1
    26   27    6 1
    27   28   27 ar
    28   29   28 1
    29   30   28 ar
    30   31   30 1
    31   32   30 ar
    32   33   32 1
    33   34   32 ar
    34   35   34 1
    35   36   27 ar
    36   37   36 1
    37    2   10 1
    38    8   10 1
    39   23   25 ar
    40   34   36 ar
@<TRIPOS>SUBSTRUCTURE
     1 RES1 1

@<TRIPOS>CRYSIN
   5.7458   15.1497   16.2810  90.0000  90.0000  90.0000  19 1

