# MOL2 file generated by ConQuest
# Please check atom types

@<TRIPOS>MOLECULE
CETMET
    55    61     1
SMALL
NO_CHARGES
****
Generated from CSD

@<TRIPOS>ATOM
      1 C1        -0.0786    2.6718   13.8202 C.3       1 RES1    0.0000
      2 C2        -1.1598    1.8539   13.0834 C.3       1 RES1    0.0000
      3 C3        -0.7042    0.6147   13.8728 C.3       1 RES1    0.0000
      4 C4         0.0042    1.5525   14.8760 C.3       1 RES1    0.0000
      5 C5        -0.5992    1.8565   16.2567 C.3       1 RES1    0.0000
      6 C6         0.8219    1.9443   16.8357 C.3       1 RES1    0.0000
      7 C7         1.3640    1.2888   15.5565 C.3       1 RES1    0.0000
      8 C8         1.8829   -0.1665   15.5636 C.3       1 RES1    0.0000
      9 C9         2.9216    0.2258   14.5027 C.3       1 RES1    0.0000
     10 C10        2.6378    1.7052   14.7937 C.3       1 RES1    0.0000
     11 C11        3.6156    2.6110   15.5636 C.3       1 RES1    0.0000
     12 C12        3.0405    3.8131   14.8217 C.3       1 RES1    0.0000
     13 C13        2.5240    2.8206   13.7345 C.3       1 RES1    0.0000
     14 C14        1.2052    3.0372   13.0168 C.3       1 RES1    0.0000
     15 C15        0.6921    4.4731   12.9037 C.3       1 RES1    0.0000
     16 C16       -0.2648    4.1866   14.0791 C.3       1 RES1    0.0000
     17 O1         1.2579    2.2701   11.7574 O.3       1 RES1    0.0000
     18 C17        1.9663    2.7766   10.7459 C.2       1 RES1    0.0000
     19 O2         2.5618    3.8178   10.7637 O.2       1 RES1    0.0000
     20 C18        1.9092    1.8846    9.5381 C.ar      1 RES1    0.0000
     21 C19        1.4096    0.5913    9.5992 C.ar      1 RES1    0.0000
     22 C20        1.3855   -0.1590    8.4553 C.ar      1 RES1    0.0000
     23 C21        1.7929    0.3260    7.2351 C.ar      1 RES1    0.0000
     24 C22        2.2623    1.6075    7.2095 C.ar      1 RES1    0.0000
     25 C23        2.3571    2.3920    8.3330 C.ar      1 RES1    0.0000
     26 N1         0.8685   -1.5405    8.5304 N.pl3     1 RES1    0.0000
     27 O3         0.3101   -1.8885    9.5535 O.2       1 RES1    0.0000
     28 O4         1.0285   -2.2630    7.5586 O.2       1 RES1    0.0000
     29 N2         2.6819    2.1835    5.9067 N.pl3     1 RES1    0.0000
     30 O5         2.3428    1.6038    4.9000 O.2       1 RES1    0.0000
     31 O6         3.3546    3.1994    5.9337 O.2       1 RES1    0.0000
     32 H1        -2.0765    2.1429   13.3526 H         1 RES1    0.0000
     33 H2        -1.0681    1.7851   12.1068 H         1 RES1    0.0000
     34 H3         0.0219    0.1079   13.3208 H         1 RES1    0.0000
     35 H4        -1.3729    0.0823   14.2783 H         1 RES1    0.0000
     36 H5        -1.1156    1.0513   16.5952 H         1 RES1    0.0000
     37 H6        -1.1136    2.6430   16.3049 H         1 RES1    0.0000
     38 H7         1.1357    2.9309   16.8869 H         1 RES1    0.0000
     39 H8         0.9943    1.4816   17.7378 H         1 RES1    0.0000
     40 H9         2.3275   -0.3595   16.4121 H         1 RES1    0.0000
     41 H10        1.2238   -0.9060   15.3290 H         1 RES1    0.0000
     42 H11        2.6811   -0.0596   13.5985 H         1 RES1    0.0000
     43 H12        3.8164   -0.0884   14.6537 H         1 RES1    0.0000
     44 H13        3.5570    2.6626   16.5976 H         1 RES1    0.0000
     45 H14        4.5891    2.3931   15.3758 H         1 RES1    0.0000
     46 H15        2.2155    4.2514   15.3269 H         1 RES1    0.0000
     47 H16        3.6516    4.3985   14.4508 H         1 RES1    0.0000
     48 H17        3.2127    2.7162   13.0400 H         1 RES1    0.0000
     49 H18        1.3263    5.2057   13.0233 H         1 RES1    0.0000
     50 H19        0.1852    4.5804   12.0194 H         1 RES1    0.0000
     51 H20       -1.1781    4.4228   13.9944 H         1 RES1    0.0000
     52 H21        0.1168    4.4726   14.9888 H         1 RES1    0.0000
     53 H22        1.0910    0.2021   10.4484 H         1 RES1    0.0000
     54 H23        1.7323   -0.1886    6.4006 H         1 RES1    0.0000
     55 H24        2.6403    3.2617    8.2670 H         1 RES1    0.0000
@<TRIPOS>BOND
     1    1    2 1
     2    2    3 1
     3    3    4 1
     4    4    1 1
     5    5    4 1
     6    6    5 1
     7    7    4 1
     8    8    7 1
     9    9    8 1
    10   10    7 1
    11   11   10 1
    12   12   11 1
    13   13   10 1
    14   14    1 1
    15   15   14 1
    16   16    1 1
    17   17   14 1
    18   18   17 1
    19   19   18 2
    20   20   18 1
    21   21   20 ar
    22   22   21 ar
    23   23   22 ar
    24   24   23 ar
    25   25   20 ar
    26   26   22 1
    27   27   26 2
    28   28   26 2
    29   29   24 1
    30   30   29 2
    31   31   29 2
    32   32    2 1
    33   33    2 1
    34   34    3 1
    35   35    3 1
    36   36    5 1
    37   37    5 1
    38   38    6 1
    39   39    6 1
    40   40    8 1
    41   41    8 1
    42   42    9 1
    43   43    9 1
    44   44   11 1
    45   45   11 1
    46   46   12 1
    47   47   12 1
    48   48   13 1
    49   49   15 1
    50   50   15 1
    51   51   16 1
    52   52   16 1
    53   53   21 1
    54   54   23 1
    55   55   25 1
    56    6    7 1
    57    9   10 1
    58   12   13 1
    59   13   14 1
    60   15   16 1
    61   24   25 ar
@<TRIPOS>SUBSTRUCTURE
     1 RES1 1

@<TRIPOS>CRYSIN
   8.0160    7.5160   34.1880  90.0000  92.3800  90.0000  14 1

