# MOL2 file generated by ConQuest
# Please check atom types

@<TRIPOS>MOLECULE
CETQOI
    20    21     1
SMALL
NO_CHARGES
****
Generated from CSD

@<TRIPOS>ATOM
      1 O1        -0.6126   -1.8876    6.3026 O.2       1 RES1    0.0000
      2 O2         1.7596    2.0846    7.6416 O.2       1 RES1    0.0000
      3 O3         3.4411    0.8771    8.2885 O.2       1 RES1    0.0000
      4 N1         2.4893    1.1039    7.5420 N.pl3     1 RES1    0.0000
      5 C1         0.3118   -1.3922    5.6809 C.2       1 RES1    0.0000
      6 C2         0.7951   -0.0325    6.0421 C.3       1 RES1    0.0000
      7 H1         0.1358    0.5520    6.5150 H         1 RES1    0.0000
      8 C3         1.7849    0.6818    5.1503 C.3       1 RES1    0.0000
      9 H2         1.6936    1.6766    5.0958 H         1 RES1    0.0000
     10 C4         2.2649   -0.0187    3.8930 C.3       1 RES1    0.0000
     11 H3         3.1848    0.2834    3.6875 H         1 RES1    0.0000
     12 H4         1.6832    0.2440    3.1353 H         1 RES1    0.0000
     13 C5         2.2583   -1.5379    4.0214 C.3       1 RES1    0.0000
     14 H5         2.9440   -1.8133    4.6800 H         1 RES1    0.0000
     15 H6         2.4953   -1.9403    3.1488 H         1 RES1    0.0000
     16 C6         0.8941   -2.0662    4.4650 C.3       1 RES1    0.0000
     17 H7         0.2579   -1.9639    3.7132 H         1 RES1    0.0000
     18 H8         0.9788   -3.0354    4.6530 H         1 RES1    0.0000
     19 C7         2.2429    0.1279    6.4681 C.3       1 RES1    0.0000
     20 H9         2.8208   -0.6878    6.4474 H         1 RES1    0.0000
@<TRIPOS>BOND
     1    1    5 2
     2    2    4 2
     3    3    4 2
     4    4   19 1
     5    5    6 1
     6    6    7 1
     7    8    6 1
     8    9    8 1
     9   10    8 1
    10   11   10 1
    11   12   10 1
    12   13   10 1
    13   14   13 1
    14   15   13 1
    15   16    5 1
    16   17   16 1
    17   18   16 1
    18   19    6 1
    19   20   19 1
    20    8   19 1
    21   13   16 1
@<TRIPOS>SUBSTRUCTURE
     1 RES1 1

@<TRIPOS>CRYSIN
   5.4987    9.8391   13.5025  90.0000  90.0000  90.0000  19 1

