# MOL2 file generated by ConQuest
# Please check atom types

@<TRIPOS>MOLECULE
CETRUQ03
    46    49     1
SMALL
USER_CHARGES
****
Generated from CSD

@<TRIPOS>ATOM
      1 C1         2.5189    2.8959    5.1467 C.ar      1 RES1    0.0000
      2 O1         1.6232    5.6487    5.6358 O.2       1 RES1   -1.0000
      3 N1         2.1836    5.2867    4.5407 N.pl3     1 RES1    1.0000
      4 O2         3.5977    3.0102    2.3992 O.2       1 RES1    0.0000
      5 N2         3.1055    4.0310    2.9972 N.3       1 RES1    0.0000
      6 C2         2.6801    3.0603    6.5225 C.ar      1 RES1    0.0000
      7 H1         2.9393    3.9037    6.8737 H         1 RES1    0.0000
      8 C3         2.4587    1.9806    7.3829 C.ar      1 RES1    0.0000
      9 O3         3.2420    3.1632    9.2811 O.2       1 RES1    0.0000
     10 C4         2.6743    2.1714    8.8508 C.2       1 RES1    0.0000
     11 C5         2.2293    1.0728    9.7536 C.ar      1 RES1    0.0000
     12 C6         2.2990    1.2574   11.1372 C.ar      1 RES1    0.0000
     13 H2         2.6133    2.0808   11.4910 H         1 RES1    0.0000
     14 C7         1.9106    0.2416   11.9945 C.ar      1 RES1    0.0000
     15 H3         1.9469    0.3774   12.9336 H         1 RES1    0.0000
     16 C8         1.4685   -0.9750   11.4875 C.ar      1 RES1    0.0000
     17 H4         1.2166   -1.6736   12.0796 H         1 RES1    0.0000
     18 C9         1.3967   -1.1647   10.1210 C.ar      1 RES1    0.0000
     19 H5         1.0925   -1.9955    9.7765 H         1 RES1    0.0000
     20 C10        1.7683   -0.1439    9.2412 C.ar      1 RES1    0.0000
     21 O4         1.2624   -1.4299    7.3216 O.2       1 RES1    0.0000
     22 C11        1.6667   -0.3676    7.7713 C.2       1 RES1    0.0000
     23 C12        2.0427    0.7502    6.8699 C.ar      1 RES1    0.0000
     24 C13        1.9353    0.5850    5.4891 C.ar      1 RES1    0.0000
     25 H6         1.6899   -0.2622    5.1346 H         1 RES1    0.0000
     26 C14        2.1821    1.6359    4.6310 C.ar      1 RES1    0.0000
     27 H7         2.1233    1.5073    3.6921 H         1 RES1    0.0000
     28 C15        2.6271    4.0529    4.2591 C.2       1 RES1    0.0000
     29 C16        2.2460    6.2250    3.3626 C.3       1 RES1    0.0000
     30 C17        3.1142    5.3907    2.3582 C.3       1 RES1    0.0000
     31 C18        2.8558    7.5400    3.8330 C.3       1 RES1    0.0000
     32 H8         2.2416    7.9800    4.4569 H         1 RES1    0.0000
     33 H9         3.0089    8.1229    3.0612 H         1 RES1    0.0000
     34 H10        3.7080    7.3618    4.2829 H         1 RES1    0.0000
     35 C19        0.8029    6.4386    2.9138 C.3       1 RES1    0.0000
     36 H11        0.3230    6.9588    3.5918 H         1 RES1    0.0000
     37 H12        0.3644    5.5688    2.7981 H         1 RES1    0.0000
     38 H13        0.7942    6.9247    2.0623 H         1 RES1    0.0000
     39 C20        4.5733    5.8267    2.2802 C.3       1 RES1    0.0000
     40 H14        5.0473    5.2660    1.6298 H         1 RES1    0.0000
     41 H15        4.9907    5.7287    3.1615 H         1 RES1    0.0000
     42 H16        4.6190    6.7648    1.9977 H         1 RES1    0.0000
     43 C21        2.5349    5.2430    0.9549 C.3       1 RES1    0.0000
     44 H17        3.1483    4.7138    0.4013 H         1 RES1    0.0000
     45 H18        2.4166    6.1295    0.5552 H         1 RES1    0.0000
     46 H19        1.6682    4.7884    1.0055 H         1 RES1    0.0000
@<TRIPOS>BOND
     1    1    6 ar
     2    2    3 1
     3    3   28 2
     4    4    5 1
     5    5   28 1
     6    6    7 1
     7    8    6 ar
     8    9   10 2
     9   10    8 1
    10   11   10 1
    11   12   11 ar
    12   13   12 1
    13   14   12 ar
    14   15   14 1
    15   16   14 ar
    16   17   16 1
    17   18   16 ar
    18   19   18 1
    19   20   11 ar
    20   21   22 2
    21   22   20 1
    22   23    8 ar
    23   24   23 ar
    24   25   24 1
    25   26    1 ar
    26   27   26 1
    27   28    1 1
    28   29    3 1
    29   30    5 1
    30   31   29 1
    31   32   31 1
    32   33   31 1
    33   34   31 1
    34   35   29 1
    35   36   35 1
    36   37   35 1
    37   38   35 1
    38   39   30 1
    39   40   39 1
    40   41   39 1
    41   42   39 1
    42   43   30 1
    43   44   43 1
    44   45   43 1
    45   46   43 1
    46   18   20 ar
    47   22   23 1
    48   24   26 ar
    49   29   30 1
@<TRIPOS>SUBSTRUCTURE
     1 RES1 1

@<TRIPOS>CRYSIN
   7.2592   21.3199   22.2954  90.0000  90.0000  90.0000  61 1

