# MOL2 file generated by ConQuest
# Please check atom types

@<TRIPOS>MOLECULE
CETRUQ04
    46    49     1
SMALL
USER_CHARGES
****
Generated from CSD

@<TRIPOS>ATOM
      1 C1         2.4957    2.9058    5.1529 C.ar      1 RES1    0.0000
      2 O1         1.5979    5.6516    5.6451 O.2       1 RES1   -1.0000
      3 N1         2.1530    5.2963    4.5458 N.pl3     1 RES1    1.0000
      4 O2         3.5766    3.0276    2.4090 O.2       1 RES1    0.0000
      5 N2         3.0830    4.0453    3.0081 N.3       1 RES1    0.0000
      6 C2         2.6568    3.0625    6.5259 C.ar      1 RES1    0.0000
      7 H1         2.9087    3.8889    6.8708 H         1 RES1    0.0000
      8 C3         2.4415    1.9855    7.3885 C.ar      1 RES1    0.0000
      9 O3         3.2221    3.1676    9.2857 O.2       1 RES1    0.0000
     10 C4         2.6604    2.1715    8.8558 C.2       1 RES1    0.0000
     11 C5         2.2284    1.0684    9.7566 C.ar      1 RES1    0.0000
     12 C6         2.2965    1.2512   11.1370 C.ar      1 RES1    0.0000
     13 H2         2.5945    2.0611   11.4819 H         1 RES1    0.0000
     14 C7         1.9230    0.2348   11.9929 C.ar      1 RES1    0.0000
     15 H3         1.9604    0.3660   12.9124 H         1 RES1    0.0000
     16 C8         1.4939   -0.9787   11.4875 C.ar      1 RES1    0.0000
     17 H4         1.2530   -1.6651   12.0675 H         1 RES1    0.0000
     18 C9         1.4229   -1.1709   10.1236 C.ar      1 RES1    0.0000
     19 H5         1.1343   -1.9883    9.7877 H         1 RES1    0.0000
     20 C10        1.7824   -0.1455    9.2439 C.ar      1 RES1    0.0000
     21 O4         1.2976   -1.4344    7.3239 O.2       1 RES1    0.0000
     22 C11        1.6836   -0.3703    7.7769 C.2       1 RES1    0.0000
     23 C12        2.0365    0.7564    6.8731 C.ar      1 RES1    0.0000
     24 C13        1.9252    0.5884    5.4969 C.ar      1 RES1    0.0000
     25 H6         1.6887   -0.2418    5.1498 H         1 RES1    0.0000
     26 C14        2.1639    1.6452    4.6406 C.ar      1 RES1    0.0000
     27 H7         2.1039    1.5196    3.7215 H         1 RES1    0.0000
     28 C15        2.5997    4.0609    4.2671 C.2       1 RES1    0.0000
     29 C16        2.2189    6.2376    3.3755 C.3       1 RES1    0.0000
     30 C17        3.0896    5.4101    2.3686 C.3       1 RES1    0.0000
     31 C18        2.8259    7.5466    3.8523 C.3       1 RES1    0.0000
     32 H8         2.2225    7.9767    4.4636 H         1 RES1    0.0000
     33 H9         2.9812    8.1201    3.0979 H         1 RES1    0.0000
     34 H10        3.6586    7.3689    4.2959 H         1 RES1    0.0000
     35 C19        0.7733    6.4469    2.9289 C.3       1 RES1    0.0000
     36 H11        0.3032    6.9558    3.5941 H         1 RES1    0.0000
     37 H12        0.3456    5.5946    2.8185 H         1 RES1    0.0000
     38 H13        0.7616    6.9216    2.0943 H         1 RES1    0.0000
     39 C20        4.5447    5.8438    2.2901 C.3       1 RES1    0.0000
     40 H14        5.0089    5.2950    1.6540 H         1 RES1    0.0000
     41 H15        4.9540    5.7487    3.1538 H         1 RES1    0.0000
     42 H16        4.5908    6.7611    2.0139 H         1 RES1    0.0000
     43 C21        2.5081    5.2599    0.9660 C.3       1 RES1    0.0000
     44 H17        3.1086    4.7428    0.4247 H         1 RES1    0.0000
     45 H18        2.3895    6.1276    0.5744 H         1 RES1    0.0000
     46 H19        1.6594    4.8134    1.0170 H         1 RES1    0.0000
@<TRIPOS>BOND
     1    1    6 ar
     2    2    3 1
     3    3   28 2
     4    4    5 1
     5    5   28 1
     6    6    7 1
     7    8    6 ar
     8    9   10 2
     9   10    8 1
    10   11   10 1
    11   12   11 ar
    12   13   12 1
    13   14   12 ar
    14   15   14 1
    15   16   14 ar
    16   17   16 1
    17   18   16 ar
    18   19   18 1
    19   20   11 ar
    20   21   22 2
    21   22   20 1
    22   23    8 ar
    23   24   23 ar
    24   25   24 1
    25   26    1 ar
    26   27   26 1
    27   28    1 1
    28   29    3 1
    29   30    5 1
    30   31   29 1
    31   32   31 1
    32   33   31 1
    33   34   31 1
    34   35   29 1
    35   36   35 1
    36   37   35 1
    37   38   35 1
    38   39   30 1
    39   40   39 1
    40   41   39 1
    41   42   39 1
    42   43   30 1
    43   44   43 1
    44   45   43 1
    45   46   43 1
    46   18   20 ar
    47   22   23 1
    48   24   26 ar
    49   29   30 1
@<TRIPOS>SUBSTRUCTURE
     1 RES1 1

@<TRIPOS>CRYSIN
   7.3230   21.4026   22.3514  90.0000  90.0000  90.0000  61 1

