# MOL2 file generated by ConQuest
# Please check atom types

@<TRIPOS>MOLECULE
CETRUQ02
    46    49     1
SMALL
USER_CHARGES
****
Generated from CSD

@<TRIPOS>ATOM
      1 C1         2.5380    2.8890    5.1404 C.ar      1 RES1    0.0000
      2 O1         1.6521    5.6481    5.6307 O.2       1 RES1   -1.0000
      3 N1         2.2129    5.2854    4.5328 N.pl3     1 RES1    1.0000
      4 O2         3.6196    2.9955    2.3861 O.2       1 RES1    0.0000
      5 N2         3.1262    4.0178    2.9892 N.3       1 RES1    0.0000
      6 C2         2.6987    3.0592    6.5196 C.ar      1 RES1    0.0000
      7 H1         2.9611    3.9016    6.8718 H         1 RES1    0.0000
      8 C3         2.4695    1.9812    7.3736 C.ar      1 RES1    0.0000
      9 O3         3.2645    3.1584    9.2748 O.2       1 RES1    0.0000
     10 C4         2.6879    2.1690    8.8481 C.2       1 RES1    0.0000
     11 C5         2.2287    1.0765    9.7488 C.ar      1 RES1    0.0000
     12 C6         2.3001    1.2633   11.1365 C.ar      1 RES1    0.0000
     13 H2         2.6201    2.0847   11.4900 H         1 RES1    0.0000
     14 C7         1.9044    0.2508   11.9930 C.ar      1 RES1    0.0000
     15 H3         1.9455    0.3868   12.9315 H         1 RES1    0.0000
     16 C8         1.4445   -0.9682   11.4893 C.ar      1 RES1    0.0000
     17 H4         1.1807   -1.6618   12.0817 H         1 RES1    0.0000
     18 C9         1.3767   -1.1564   10.1170 C.ar      1 RES1    0.0000
     19 H5         1.0675   -1.9848    9.7704 H         1 RES1    0.0000
     20 C10        1.7581   -0.1398    9.2385 C.ar      1 RES1    0.0000
     21 O4         1.2355   -1.4238    7.3160 O.2       1 RES1    0.0000
     22 C11        1.6535   -0.3689    7.7674 C.2       1 RES1    0.0000
     23 C12        2.0478    0.7491    6.8626 C.ar      1 RES1    0.0000
     24 C13        1.9440    0.5765    5.4801 C.ar      1 RES1    0.0000
     25 H6         1.6939   -0.2699    5.1277 H         1 RES1    0.0000
     26 C14        2.2021    1.6299    4.6189 C.ar      1 RES1    0.0000
     27 H7         2.1509    1.5003    3.6795 H         1 RES1    0.0000
     28 C15        2.6490    4.0469    4.2490 C.2       1 RES1    0.0000
     29 C16        2.2756    6.2172    3.3527 C.3       1 RES1    0.0000
     30 C17        3.1398    5.3804    2.3454 C.3       1 RES1    0.0000
     31 C18        2.8861    7.5360    3.8147 C.3       1 RES1    0.0000
     32 H8         2.2749    7.9774    4.4403 H         1 RES1    0.0000
     33 H9         3.0346    8.1177    3.0388 H         1 RES1    0.0000
     34 H10        3.7410    7.3611    4.2601 H         1 RES1    0.0000
     35 C19        0.8289    6.4316    2.9033 C.3       1 RES1    0.0000
     36 H11        0.3496    6.9531    3.5816 H         1 RES1    0.0000
     37 H12        0.3907    5.5634    2.7874 H         1 RES1    0.0000
     38 H13        0.8196    6.9170    2.0511 H         1 RES1    0.0000
     39 C20        4.6031    5.8130    2.2722 C.3       1 RES1    0.0000
     40 H14        5.0774    5.2531    1.6217 H         1 RES1    0.0000
     41 H15        5.0183    5.7121    3.1545 H         1 RES1    0.0000
     42 H16        4.6528    6.7513    1.9932 H         1 RES1    0.0000
     43 C21        2.5596    5.2312    0.9414 C.3       1 RES1    0.0000
     44 H17        3.1723    4.7027    0.3893 H         1 RES1    0.0000
     45 H18        2.4407    6.1180    0.5406 H         1 RES1    0.0000
     46 H19        1.6917    4.7771    0.9922 H         1 RES1    0.0000
@<TRIPOS>BOND
     1    1    6 ar
     2    2    3 1
     3    3   28 2
     4    4    5 1
     5    5   28 1
     6    6    7 1
     7    8    6 ar
     8    9   10 2
     9   10    8 1
    10   11   10 1
    11   12   11 ar
    12   13   12 1
    13   14   12 ar
    14   15   14 1
    15   16   14 ar
    16   17   16 1
    17   18   16 ar
    18   19   18 1
    19   20   11 ar
    20   21   22 2
    21   22   20 1
    22   23    8 ar
    23   24   23 ar
    24   25   24 1
    25   26    1 ar
    26   27   26 1
    27   28    1 1
    28   29    3 1
    29   30    5 1
    30   31   29 1
    31   32   31 1
    32   33   31 1
    33   34   31 1
    34   35   29 1
    35   36   35 1
    36   37   35 1
    37   38   35 1
    38   39   30 1
    39   40   39 1
    40   41   39 1
    41   42   39 1
    42   43   30 1
    43   44   43 1
    44   45   43 1
    45   46   43 1
    46   18   20 ar
    47   22   23 1
    48   24   26 ar
    49   29   30 1
@<TRIPOS>SUBSTRUCTURE
     1 RES1 1

@<TRIPOS>CRYSIN
   7.2081   21.2504   22.2459  90.0000  90.0000  90.0000  61 1

