# MOL2 file generated by ConQuest
# Please check atom types

@<TRIPOS>MOLECULE
CETWUV
   132   140     2
SMALL
NO_CHARGES
****
Generated from CSD

@<TRIPOS>ATOM
      1 C1        -6.5530   12.2327    4.0576 C.3       1 RES1    0.0000
      2 H1        -7.1659   12.2909    4.8445 H         1 RES1    0.0000
      3 C2        -6.9267   10.9265    3.3584 C.ar      1 RES1    0.0000
      4 C3        -7.8271   10.1006    4.0191 C.ar      1 RES1    0.0000
      5 H2        -8.1534   10.3756    4.8680 H         1 RES1    0.0000
      6 C4        -8.2744    8.8914    3.4985 C.ar      1 RES1    0.0000
      7 H3        -8.8904    8.3512    3.9793 H         1 RES1    0.0000
      8 C5        -7.7987    8.4937    2.2596 C.ar      1 RES1    0.0000
      9 C6        -6.8974    9.3058    1.5714 C.ar      1 RES1    0.0000
     10 H4        -6.5816    9.0260    0.7198 H         1 RES1    0.0000
     11 C7        -6.4472   10.5115    2.0931 C.ar      1 RES1    0.0000
     12 C8        -5.4444   11.2946    1.2622 C.3       1 RES1    0.0000
     13 H5        -5.3758   10.8571    0.3760 H         1 RES1    0.0000
     14 H6        -4.5592   11.2125    1.6981 H         1 RES1    0.0000
     15 C9        -5.7185   12.7806    1.0322 C.3       1 RES1    0.0000
     16 H7        -6.6158   12.8571    0.6213 H         1 RES1    0.0000
     17 H8        -5.0657   13.1025    0.3599 H         1 RES1    0.0000
     18 C10       -5.6724   13.7556    2.2216 C.3       1 RES1    0.0000
     19 H9        -5.8399   14.6619    1.8317 H         1 RES1    0.0000
     20 C11       -4.3211   13.8698    2.9697 C.3       1 RES1    0.0000
     21 C12       -4.3739   15.1349    3.8515 C.3       1 RES1    0.0000
     22 H10       -3.5133   15.2259    4.3318 H         1 RES1    0.0000
     23 H11       -4.4783   15.9270    3.2683 H         1 RES1    0.0000
     24 C13       -5.5067   15.1195    4.8690 C.3       1 RES1    0.0000
     25 H12       -5.5790   16.0103    5.2954 H         1 RES1    0.0000
     26 H13       -5.3043   14.4577    5.5760 H         1 RES1    0.0000
     27 C14       -6.8355   14.7651    4.2058 C.3       1 RES1    0.0000
     28 H14       -7.1464   15.5495    3.6884 H         1 RES1    0.0000
     29 H15       -7.5040   14.5932    4.9150 H         1 RES1    0.0000
     30 C15       -6.7958   13.5376    3.2600 C.3       1 RES1    0.0000
     31 C16       -4.0244   12.6411    3.8481 C.3       1 RES1    0.0000
     32 H16       -3.7189   11.8997    3.2683 H         1 RES1    0.0000
     33 H17       -3.2857   12.8629    4.4684 H         1 RES1    0.0000
     34 C17       -5.0606   11.5479    5.8220 C.2       1 RES1    0.0000
     35 C18       -3.7249   11.5436    6.5252 C.ar      1 RES1    0.0000
     36 C19       -3.0423   10.3441    6.6927 C.ar      1 RES1    0.0000
     37 H18       -3.3692    9.5538    6.2796 H         1 RES1    0.0000
     38 C20       -1.8922   10.2955    7.4556 C.ar      1 RES1    0.0000
     39 H19       -1.4035    9.4863    7.5502 H         1 RES1    0.0000
     40 C21       -1.4704   11.4558    8.0765 C.ar      1 RES1    0.0000
     41 C22       -2.1429   12.6586    7.9534 C.ar      1 RES1    0.0000
     42 H20       -1.8401   13.4337    8.4110 H         1 RES1    0.0000
     43 C23       -3.2646   12.7061    7.1493 C.ar      1 RES1    0.0000
     44 H21       -3.7235   13.5275    7.0214 H         1 RES1    0.0000
     45 C24       -9.2253    6.5834    2.2044 C.3       1 RES1    0.0000
     46 H22       -8.9743    6.2803    3.1009 H         1 RES1    0.0000
     47 H23       -9.4262    5.8068    1.6408 H         1 RES1    0.0000
     48 H24      -10.0177    7.1569    2.2651 H         1 RES1    0.0000
     49 C25       -3.1504   14.0226    1.9886 C.3       1 RES1    0.0000
     50 H25       -3.3408   14.7536    1.3646 H         1 RES1    0.0000
     51 H26       -3.0318   13.1878    1.4880 H         1 RES1    0.0000
     52 H27       -2.3307   14.2235    2.4869 H         1 RES1    0.0000
     53 C26       -8.2069   13.4176    2.6277 C.3       1 RES1    0.0000
     54 H28       -8.2245   12.6093    2.0565 H         1 RES1    0.0000
     55 H29       -8.8636   13.2786    3.3565 H         1 RES1    0.0000
     56 C27       -8.6562   14.5867    1.8043 C.2       1 RES1    0.0000
     57 H30       -8.0908   14.8710    1.0943 H         1 RES1    0.0000
     58 C28       -9.7812   15.2494    1.9954 C.2       1 RES1    0.0000
     59 H31      -10.3703   14.9936    2.6955 H         1 RES1    0.0000
     60 H32      -10.0025   15.9818    1.4337 H         1 RES1    0.0000
     61 N1        -5.1877   12.1832    4.6343 N.am      1 RES1    0.0000
     62 N2        -0.2667   11.4141    8.9142 N.pl3     1 RES1    0.0000
     63 O1        -8.1458    7.3211    1.6314 O.3       1 RES1    0.0000
     64 O2        -6.0050   10.9984    6.3945 O.2       1 RES1    0.0000
     65 O3        -0.1091   12.3047    9.7442 O.2       1 RES1    0.0000
     66 O4         0.5386   10.5138    8.7184 O.2       1 RES1    0.0000
     67 C29       -3.1727    5.8895    4.0530 C.3       2 RES2    0.0000
     68 H33       -2.5491    5.8353    4.8327 H         2 RES2    0.0000
     69 C30       -2.8110    7.1900    3.3403 C.ar      2 RES2    0.0000
     70 C31       -1.9042    8.0265    3.9852 C.ar      2 RES2    0.0000
     71 H34       -1.5741    7.7673    4.8371 H         2 RES2    0.0000
     72 C32       -1.4590    9.2287    3.4361 C.ar      2 RES2    0.0000
     73 H35       -0.8479    9.7821    3.9088 H         2 RES2    0.0000
     74 C33       -1.9278    9.5967    2.1882 C.ar      2 RES2    0.0000
     75 C34       -2.8299    8.7728    1.5247 C.ar      2 RES2    0.0000
     76 H36       -3.1374    9.0310    0.6639 H         2 RES2    0.0000
     77 C35       -3.2974    7.5886    2.0734 C.ar      2 RES2    0.0000
     78 C36       -4.3174    6.8057    1.2680 C.3       2 RES2    0.0000
     79 H37       -4.3968    7.2363    0.3804 H         2 RES2    0.0000
     80 H38       -5.1944    6.9017    1.7172 H         2 RES2    0.0000
     81 C37       -4.0689    5.3130    1.0412 C.3       2 RES2    0.0000
     82 H39       -3.1894    5.2236    0.5964 H         2 RES2    0.0000
     83 H40       -4.7517    4.9930    0.3995 H         2 RES2    0.0000
     84 C38       -4.0787    4.3514    2.2417 C.3       2 RES2    0.0000
     85 H41       -3.9115    3.4436    1.8552 H         2 RES2    0.0000
     86 C39       -5.4140    4.2280    3.0216 C.3       2 RES2    0.0000
     87 C40       -5.3357    2.9730    3.9170 C.3       2 RES2    0.0000
     88 H42       -6.1850    2.8829    4.4170 H         2 RES2    0.0000
     89 H43       -5.2384    2.1737    3.3403 H         2 RES2    0.0000
     90 C41       -4.1830    3.0083    4.9066 C.3       2 RES2    0.0000
     91 H44       -4.0931    2.1228    5.3410 H         2 RES2    0.0000
     92 H45       -4.3736    3.6771    5.6112 H         2 RES2    0.0000
     93 C42       -2.8753    3.3660    4.2046 C.3       2 RES2    0.0000
     94 H46       -2.5746    2.5789    3.6855 H         2 RES2    0.0000
     95 H47       -2.1897    3.5463    4.8959 H         2 RES2    0.0000
     96 C43       -2.9391    4.5808    3.2531 C.3       2 RES2    0.0000
     97 C44       -5.7033    5.4696    3.8859 C.3       2 RES2    0.0000
     98 H48       -6.0207    6.2009    3.2992 H         2 RES2    0.0000
     99 H49       -6.4315    5.2554    4.5213 H         2 RES2    0.0000
    100 C45       -4.6483    6.5948    5.8254 C.2       2 RES2    0.0000
    101 C46       -5.9836    6.6055    6.5327 C.ar      2 RES2    0.0000
    102 C47       -6.6651    7.8147    6.6891 C.ar      2 RES2    0.0000
    103 H50       -6.3279    8.6045    6.2825 H         2 RES2    0.0000
    104 C48       -7.8267    7.8645    7.4325 C.ar      2 RES2    0.0000
    105 H51       -8.3162    8.6741    7.5164 H         2 RES2    0.0000
    106 C49       -8.2587    6.7077    8.0520 C.ar      2 RES2    0.0000
    107 C50       -7.5867    5.5066    7.9468 C.ar      2 RES2    0.0000
    108 H52       -7.8971    4.7341    8.4066 H         2 RES2    0.0000
    109 C51       -6.4531    5.4514    7.1595 C.ar      2 RES2    0.0000
    110 H53       -5.9938    4.6276    7.0449 H         2 RES2    0.0000
    111 C52       -0.4993   11.5057    2.0864 C.3       2 RES2    0.0000
    112 H54       -0.7608   11.8475    2.9672 H         2 RES2    0.0000
    113 H55       -0.2878   12.2560    1.4939 H         2 RES2    0.0000
    114 H56        0.2895   10.9312    2.1799 H         2 RES2    0.0000
    115 C53       -6.5991    4.0577    2.0703 C.3       2 RES2    0.0000
    116 H57       -7.4128    3.8897    2.5897 H         2 RES2    0.0000
    117 H58       -6.4309    3.3006    1.4719 H         2 RES2    0.0000
    118 H59       -6.7125    4.8742    1.5394 H         2 RES2    0.0000
    119 C54       -1.5398    4.7093    2.5934 C.3       2 RES2    0.0000
    120 H60       -1.5446    5.5062    2.0065 H         2 RES2    0.0000
    121 H61       -0.8726    4.8714    3.3065 H         2 RES2    0.0000
    122 C55       -1.0869    3.5288    1.7821 C.2       2 RES2    0.0000
    123 H62       -1.6110    3.2842    1.0282 H         2 RES2    0.0000
    124 C56       -0.0196    2.8133    2.0408 C.2       2 RES2    0.0000
    125 H63        0.5278    3.0289    2.7865 H         2 RES2    0.0000
    126 H64        0.2065    2.0794    1.4821 H         2 RES2    0.0000
    127 N3        -4.5318    5.9417    4.6456 N.am      2 RES2    0.0000
    128 N4        -9.4835    6.7557    8.8612 N.pl3     2 RES2    0.0000
    129 O5        -1.5766   10.7484    1.5306 O.3       2 RES2    0.0000
    130 O6        -3.7033    7.1546    6.3779 O.2       2 RES2    0.0000
    131 O7        -9.6467    5.8839    9.7085 O.2       2 RES2    0.0000
    132 O8       -10.2957    7.6418    8.6255 O.2       2 RES2    0.0000
@<TRIPOS>BOND
     1    1    2 1
     2    3    1 1
     3    4    3 ar
     4    5    4 1
     5    6    4 ar
     6    7    6 1
     7    8    6 ar
     8    9    8 ar
     9   10    9 1
    10   11    3 ar
    11   12   11 1
    12   13   12 1
    13   14   12 1
    14   15   12 1
    15   16   15 1
    16   17   15 1
    17   18   15 1
    18   19   18 1
    19   20   18 1
    20   21   20 1
    21   22   21 1
    22   23   21 1
    23   24   21 1
    24   25   24 1
    25   26   24 1
    26   27   24 1
    27   28   27 1
    28   29   27 1
    29   30    1 1
    30   31   20 1
    31   32   31 1
    32   33   31 1
    33   34   35 1
    34   35   36 ar
    35   36   37 1
    36   38   36 ar
    37   39   38 1
    38   40   38 ar
    39   41   40 ar
    40   42   41 1
    41   43   35 ar
    42   44   43 1
    43   45   46 1
    44   47   45 1
    45   48   45 1
    46   49   20 1
    47   50   49 1
    48   51   49 1
    49   52   49 1
    50   53   30 1
    51   54   53 1
    52   55   53 1
    53   56   53 1
    54   57   56 1
    55   58   56 2
    56   59   58 1
    57   60   58 1
    58   61    1 1
    59   62   40 1
    60   63    8 1
    61   64   34 2
    62   65   62 2
    63   66   62 2
    64   67   68 1
    65   69   67 1
    66   70   69 ar
    67   71   70 1
    68   72   70 ar
    69   73   72 1
    70   74   72 ar
    71   75   74 ar
    72   76   75 1
    73   77   69 ar
    74   78   77 1
    75   79   78 1
    76   80   78 1
    77   81   78 1
    78   82   81 1
    79   83   81 1
    80   84   81 1
    81   85   84 1
    82   86   84 1
    83   87   86 1
    84   88   87 1
    85   89   87 1
    86   90   87 1
    87   91   90 1
    88   92   90 1
    89   93   90 1
    90   94   93 1
    91   95   93 1
    92   96   67 1
    93   97   86 1
    94   98   97 1
    95   99   97 1
    96  100  101 1
    97  101  102 ar
    98  102  103 1
    99  104  102 ar
   100  105  104 1
   101  106  104 ar
   102  107  106 ar
   103  108  107 1
   104  109  101 ar
   105  110  109 1
   106  111  112 1
   107  113  111 1
   108  114  111 1
   109  115   86 1
   110  116  115 1
   111  117  115 1
   112  118  115 1
   113  119   96 1
   114  120  119 1
   115  121  119 1
   116  122  119 1
   117  123  122 1
   118  124  122 2
   119  125  124 1
   120  126  124 1
   121  127   67 1
   122  128  106 1
   123  129   74 1
   124  130  100 2
   125  131  128 2
   126  132  128 2
   127    9   11 ar
   128   18   30 1
   129   27   30 1
   130   31   61 1
   131   34   61 1
   132   41   43 ar
   133   45   63 1
   134   75   77 ar
   135   84   96 1
   136   93   96 1
   137   97  127 1
   138  100  127 1
   139  107  109 ar
   140  111  129 1
@<TRIPOS>SUBSTRUCTURE
     1 RES1 1
     2 RES2 67

@<TRIPOS>CRYSIN
  10.5366   15.7550   16.2046 103.7350 106.9000 102.2770   2 1

