# MOL2 file generated by ConQuest
# Please check atom types

@<TRIPOS>MOLECULE
CEVJAR
    66    66     2
SMALL
NO_CHARGES
****
Generated from CSD

@<TRIPOS>ATOM
      1 O1         3.6824    0.4989   11.4373 O.3       1 RES1    0.0000
      2 O2         3.3218    4.5653    5.2674 O.2       1 RES1    0.0000
      3 O3         1.8928    1.6703   12.8644 O.3       1 RES1    0.0000
      4 O4         0.6091    4.4473    9.0848 O.3       1 RES1    0.0000
      5 O5         2.7574    2.8056    4.1386 O.2       1 RES1    0.0000
      6 N1         2.9666    3.3820    5.2034 N.pl3     1 RES1    0.0000
      7 C1         1.1721    3.0963   11.0321 C.ar      1 RES1    0.0000
      8 H1         0.5261    3.5151   11.5549 H         1 RES1    0.0000
      9 C2         2.9447    1.4516   10.7867 C.ar      1 RES1    0.0000
     10 C3         2.3049    2.8343    8.8979 C.ar      1 RES1    0.0000
     11 C4         3.0931    1.8274    9.4646 C.ar      1 RES1    0.0000
     12 H2         3.7316    1.3999    8.9397 H         1 RES1    0.0000
     13 C5         2.7870    2.6201    6.4492 C.2       1 RES1    0.0000
     14 C6         1.9725    2.0999   11.5724 C.ar      1 RES1    0.0000
     15 C7         2.5270    3.3506    7.5414 C.2       1 RES1    0.0000
     16 H3         2.4825    4.2724    7.4297 H         1 RES1    0.0000
     17 C8         1.3454    3.4654    9.6958 C.ar      1 RES1    0.0000
     18 C9         4.5851   -0.2687   10.6247 C.3       1 RES1    0.0000
     19 H4         4.0997   -0.6741    9.9020 H         1 RES1    0.0000
     20 H5         4.9944   -0.9524   11.1593 H         1 RES1    0.0000
     21 H6         5.2645    0.3089   10.2684 H         1 RES1    0.0000
     22 C10       -0.4409    5.0585    9.8355 C.3       1 RES1    0.0000
     23 H7        -1.0859    4.3929   10.0846 H         1 RES1    0.0000
     24 H8        -0.8667    5.7326    9.3009 H         1 RES1    0.0000
     25 H9        -0.0760    5.4620   10.6270 H         1 RES1    0.0000
     26 C11        2.7975    1.1408    6.2805 C.3       1 RES1    0.0000
     27 H10        3.6966    0.8434    6.1227 H         1 RES1    0.0000
     28 H11        2.2451    0.8998    5.5330 H         1 RES1    0.0000
     29 H12        2.4581    0.7258    7.0762 H         1 RES1    0.0000
     30 C12        0.8480    2.2194   13.6731 C.3       1 RES1    0.0000
     31 H13        0.9569    3.1709   13.7324 H         1 RES1    0.0000
     32 H14        0.8896    1.8369   14.5518 H         1 RES1    0.0000
     33 H15       -0.0030    2.0186   13.2767 H         1 RES1    0.0000
     34 O6         0.3599    5.2756    1.3304 O.3       2 RES2    0.0000
     35 O7         3.7309    9.0277    3.5715 O.3       2 RES2    0.0000
     36 O8         1.9784    6.5889   -0.2287 O.3       2 RES2    0.0000
     37 O9         3.1827    7.4290    7.8354 O.2       2 RES2    0.0000
     38 O10        1.1523    7.6135    8.5501 O.2       2 RES2    0.0000
     39 N2         1.9630    7.4643    7.6415 N.pl3     2 RES2    0.0000
     40 C13        2.8858    7.8765    1.6104 C.ar      2 RES2    0.0000
     41 H16        3.4207    8.3804    1.0402 H         2 RES2    0.0000
     42 C14        1.1756    6.1878    1.9488 C.ar      2 RES2    0.0000
     43 C15        2.9350    8.0897    2.9912 C.ar      2 RES2    0.0000
     44 C16        2.1373    7.3343    3.8622 C.ar      2 RES2    0.0000
     45 C17        1.2496    6.3991    3.3083 C.ar      2 RES2    0.0000
     46 H17        0.6973    5.9095    3.8738 H         2 RES2    0.0000
     47 C18        2.3397    7.4796    5.2933 C.2       2 RES2    0.0000
     48 H18        3.1985    7.7158    5.5611 H         2 RES2    0.0000
     49 C19        4.5626    9.8243    2.7233 C.3       2 RES2    0.0000
     50 H19        5.1781    9.2563    2.2541 H         2 RES2    0.0000
     51 H20        5.0510   10.4554    3.2560 H         2 RES2    0.0000
     52 H21        4.0159   10.2957    2.0894 H         2 RES2    0.0000
     53 C20        1.4457    7.3161    6.2760 C.2       2 RES2    0.0000
     54 C21        2.0348    6.9107    1.0967 C.ar      2 RES2    0.0000
     55 C22       -0.4661    4.4914    2.1881 C.3       2 RES2    0.0000
     56 H22        0.0849    3.9990    2.8003 H         2 RES2    0.0000
     57 H23       -0.9848    3.8785    1.6606 H         2 RES2    0.0000
     58 H24       -1.0555    5.0680    2.6804 H         2 RES2    0.0000
     59 C23        3.1091    6.9652   -1.0258 C.3       2 RES2    0.0000
     60 H25        3.1538    7.9214   -1.0862 H         2 RES2    0.0000
     61 H26        3.0181    6.5922   -1.9056 H         2 RES2    0.0000
     62 H27        3.9119    6.6324   -0.6190 H         2 RES2    0.0000
     63 C24       -0.0256    7.0924    6.2050 C.3       2 RES2    0.0000
     64 H28       -0.3369    7.2893    5.3186 H         2 RES2    0.0000
     65 H29       -0.4672    7.6671    6.8337 H         2 RES2    0.0000
     66 H30       -0.2206    6.1763    6.4163 H         2 RES2    0.0000
@<TRIPOS>BOND
     1    1    9 1
     2    2    6 2
     3    3   14 1
     4    4   17 1
     5    5    6 2
     6    6   13 1
     7    7    8 1
     8    9   11 ar
     9   10   11 ar
    10   11   12 1
    11   13   15 2
    12   14    7 ar
    13   15   10 1
    14   16   15 1
    15   17    7 ar
    16   18    1 1
    17   19   18 1
    18   20   18 1
    19   21   18 1
    20   22    4 1
    21   23   22 1
    22   24   22 1
    23   25   22 1
    24   26   13 1
    25   27   26 1
    26   28   26 1
    27   29   26 1
    28   30    3 1
    29   31   30 1
    30   32   30 1
    31   33   30 1
    32   34   42 1
    33   35   43 1
    34   36   54 1
    35   37   39 2
    36   38   39 2
    37   39   53 1
    38   40   41 1
    39   42   45 ar
    40   43   40 ar
    41   44   43 ar
    42   45   44 ar
    43   46   45 1
    44   47   44 1
    45   48   47 1
    46   49   35 1
    47   50   49 1
    48   51   49 1
    49   52   49 1
    50   53   47 2
    51   54   40 ar
    52   55   34 1
    53   56   55 1
    54   57   55 1
    55   58   55 1
    56   59   36 1
    57   60   59 1
    58   61   59 1
    59   62   59 1
    60   63   53 1
    61   64   63 1
    62   65   63 1
    63   66   63 1
    64    9   14 ar
    65   10   17 ar
    66   42   54 ar
@<TRIPOS>SUBSTRUCTURE
     1 RES1 1
     2 RES2 34

@<TRIPOS>CRYSIN
   9.9508    9.5623   12.7917  90.0000  93.7950  90.0000   4 1

