# MOL2 file generated by ConQuest
# Please check atom types

@<TRIPOS>MOLECULE
CEVXEH
    23    24     1
SMALL
USER_CHARGES
****
Generated from CSD

@<TRIPOS>ATOM
      1 O1         2.8535   -3.7493    8.1962 O.2       1 RES1   -1.0000
      2 O2         1.3301    0.4447    9.2613 O.2       1 RES1    0.0000
      3 O3         3.2597    0.2990    8.2011 O.3       1 RES1    0.0000
      4 N1         2.9395   -2.4765    8.2262 N.pl3     1 RES1    1.0000
      5 C1         2.1206   -1.7098    8.8840 C.2       1 RES1    0.0000
      6 C2         2.1987   -0.2607    8.8289 C.2       1 RES1    0.0000
      7 C3         4.4024   -0.5750    8.0366 C.3       1 RES1    0.0000
      8 C4         4.0236   -1.8785    7.4136 C.3       1 RES1    0.0000
      9 C5         3.6053   -1.7941    5.9481 C.ar      1 RES1    0.0000
     10 C6         4.5364   -1.3188    5.0475 C.ar      1 RES1    0.0000
     11 C7         4.2370   -1.2498    3.6981 C.ar      1 RES1    0.0000
     12 C8         2.9892   -1.6254    3.2396 C.ar      1 RES1    0.0000
     13 C9         2.0693   -2.1238    4.1479 C.ar      1 RES1    0.0000
     14 C10        2.3693   -2.2082    5.4838 C.ar      1 RES1    0.0000
     15 H1         1.3982   -1.9605    9.4924 H         1 RES1    0.0000
     16 H2         4.7731   -0.9254    8.9208 H         1 RES1    0.0000
     17 H3         5.1557   -0.2990    7.4253 H         1 RES1    0.0000
     18 H4         4.7774   -2.4527    7.4668 H         1 RES1    0.0000
     19 H5         5.4399   -1.1462    5.4209 H         1 RES1    0.0000
     20 H6         4.9298   -0.7261    3.1864 H         1 RES1    0.0000
     21 H7         2.7326   -1.3632    2.3235 H         1 RES1    0.0000
     22 H8         1.2172   -2.4129    3.8413 H         1 RES1    0.0000
     23 H9         1.7476   -2.6076    6.0990 H         1 RES1    0.0000
@<TRIPOS>BOND
     1    1    4 1
     2    2    6 2
     3    3    6 1
     4    4    5 2
     5    5    6 1
     6    7    3 1
     7    8    4 1
     8    9    8 1
     9   10    9 ar
    10   11   10 ar
    11   12   11 ar
    12   13   12 ar
    13   14    9 ar
    14   15    5 1
    15   16    7 1
    16   17    7 1
    17   18    8 1
    18   19   10 1
    19   20   11 1
    20   21   12 1
    21   22   13 1
    22   23   14 1
    23    7    8 1
    24   13   14 ar
@<TRIPOS>SUBSTRUCTURE
     1 RES1 1

@<TRIPOS>CRYSIN
   6.0290    7.6672   10.0165  90.0000 105.0410  90.0000   4 1

