# MOL2 file generated by ConQuest
# Please check atom types

@<TRIPOS>MOLECULE
CEWKIA
    30    32     1
SMALL
NO_CHARGES
****
Generated from CSD

@<TRIPOS>ATOM
      1 O1         5.8023    2.5271    4.2821 O.2       1 RES1    0.0000
      2 O2         5.4870    3.4911    2.3696 O.2       1 RES1    0.0000
      3 N1         5.1372    2.7341    3.2707 N.pl3     1 RES1    0.0000
      4 C1         3.8364    2.0519    3.1554 C.ar      1 RES1    0.0000
      5 C2         3.1987    1.7513    4.3509 C.ar      1 RES1    0.0000
      6 H1         3.6000    1.9864    5.1687 H         1 RES1    0.0000
      7 C3         1.9508    1.1470    4.3177 C.ar      1 RES1    0.0000
      8 H2         1.4991    0.9567    5.1728 H         1 RES1    0.0000
      9 C4         1.3822    0.8062    3.0973 C.ar      1 RES1    0.0000
     10 H3         0.5289    0.3543    3.0479 H         1 RES1    0.0000
     11 C5         2.0449    1.0939    1.9058 C.ar      1 RES1    0.0000
     12 H4         1.6733    0.8442    1.1013 H         1 RES1    0.0000
     13 C6         3.2745    1.7511    1.9082 C.ar      1 RES1    0.0000
     14 C7         3.9150    2.0688    0.6019 C.3       1 RES1    0.0000
     15 N2         3.1764    2.1803   -0.6354 N.3       1 RES1    0.0000
     16 H5         2.3009    2.2366   -0.5028 H         1 RES1    0.0000
     17 C8         3.9123    3.3738   -0.1271 C.3       1 RES1    0.0000
     18 C9         5.2736    3.5149   -0.7475 C.3       1 RES1    0.0000
     19 H6         5.7794    4.2438   -0.3451 H         1 RES1    0.0000
     20 H7         5.2565    3.6289   -1.7023 H         1 RES1    0.0000
     21 C10        5.9612    2.2086   -0.4131 C.2       1 RES1    0.0000
     22 O3         5.1803    1.4374    0.4134 O.3       1 RES1    0.0000
     23 O4         7.0361    1.8190   -0.7798 O.2       1 RES1    0.0000
     24 C11        3.2306    4.5748    0.4283 C.2       1 RES1    0.0000
     25 O5         3.7943    5.6212    0.6223 O.2       1 RES1    0.0000
     26 O6         1.9407    4.3474    0.6958 O.3       1 RES1    0.0000
     27 C12        1.2067    5.4711    1.2532 C.3       1 RES1    0.0000
     28 H8         0.3781    5.0901    1.5520 H         1 RES1    0.0000
     29 H9         1.0812    6.1323    0.6026 H         1 RES1    0.0000
     30 H10        1.7349    5.8884    1.9813 H         1 RES1    0.0000
@<TRIPOS>BOND
     1    1    3 2
     2    2    3 2
     3    3    4 1
     4    4    5 ar
     5    5    6 1
     6    7    5 ar
     7    8    7 1
     8    9    7 ar
     9   10    9 1
    10   11    9 ar
    11   12   11 1
    12   13    4 ar
    13   14   13 1
    14   15   14 1
    15   16   15 1
    16   17   14 1
    17   18   17 1
    18   19   18 1
    19   20   18 1
    20   21   18 1
    21   22   14 1
    22   23   21 2
    23   24   17 1
    24   25   24 2
    25   26   24 1
    26   27   26 1
    27   28   27 1
    28   29   27 1
    29   30   27 1
    30   11   13 ar
    31   15   17 1
    32   21   22 1
@<TRIPOS>SUBSTRUCTURE
     1 RES1 1

@<TRIPOS>CRYSIN
   6.8882   20.8439    8.2554  90.0000  90.0280  90.0000  14 1

