# MOL2 file generated by ConQuest
# Please check atom types

@<TRIPOS>MOLECULE
CEXGAO
    90    94     2
SMALL
NO_CHARGES
****
Generated from CSD

@<TRIPOS>ATOM
      1 C1         5.4601   -0.5867   -7.0595 C.ar      1 RES1    0.0000
      2 H1         6.2101   -0.7196   -6.5241 H         1 RES1    0.0000
      3 C2         5.6014    0.1171   -8.2807 C.ar      1 RES1    0.0000
      4 H2         6.4338    0.4274   -8.5575 H         1 RES1    0.0000
      5 C3         4.4769    0.3320   -9.0538 C.ar      1 RES1    0.0000
      6 H3         4.5414    0.8016   -9.8539 H         1 RES1    0.0000
      7 C4         3.2681   -0.1509   -8.6327 C.ar      1 RES1    0.0000
      8 H4         2.5134    0.0181   -9.1500 H         1 RES1    0.0000
      9 C5         3.1230   -0.8825   -7.4638 C.ar      1 RES1    0.0000
     10 H5         2.2982   -1.2387   -7.2250 H         1 RES1    0.0000
     11 C6         4.2513   -1.0733   -6.6448 C.ar      1 RES1    0.0000
     12 C7         4.1441   -1.8930   -5.3829 C.3       1 RES1    0.0000
     13 C8         3.9232   -3.3660   -5.7252 C.3       1 RES1    0.0000
     14 H6         3.2065   -3.4384   -6.3737 H         1 RES1    0.0000
     15 H7         4.7282   -3.7245   -6.1301 H         1 RES1    0.0000
     16 C9         3.2852   -1.3099   -4.2354 C.3       1 RES1    0.0000
     17 H8         3.0434   -1.9679   -3.6937 H         1 RES1    0.0000
     18 C10        2.1266   -0.3755   -4.4499 C.ar      1 RES1    0.0000
     19 C11        0.8552   -0.9055   -4.4664 C.ar      1 RES1    0.0000
     20 H9         0.7367   -1.8182   -4.3344 H         1 RES1    0.0000
     21 C12       -0.2541   -0.0942   -4.6782 C.ar      1 RES1    0.0000
     22 H10       -1.1074   -0.4636   -4.6893 H         1 RES1    0.0000
     23 C13       -0.0815    1.2399   -4.8668 C.ar      1 RES1    0.0000
     24 H11       -0.8144    1.7844   -5.0442 H         1 RES1    0.0000
     25 C14        1.1557    1.7747   -4.7952 C.ar      1 RES1    0.0000
     26 H12        1.2572    2.6959   -4.8758 H         1 RES1    0.0000
     27 C15        2.2698    0.9876   -4.6069 C.ar      1 RES1    0.0000
     28 H13        3.1155    1.3739   -4.5840 H         1 RES1    0.0000
     29 C16        4.8638   -0.9610   -2.2806 C.3       1 RES1    0.0000
     30 C17        4.8742   -2.4231   -1.8469 C.3       1 RES1    0.0000
     31 H14        5.5530   -2.8975   -2.3341 H         1 RES1    0.0000
     32 H15        4.0171   -2.8166   -2.0273 H         1 RES1    0.0000
     33 H16        5.0581   -2.4774   -0.9054 H         1 RES1    0.0000
     34 C18        6.2527   -0.3682   -2.0318 C.3       1 RES1    0.0000
     35 H17        6.9079   -0.8705   -2.5206 H         1 RES1    0.0000
     36 H18        6.4537   -0.4069   -1.0949 H         1 RES1    0.0000
     37 H19        6.2669    0.5457   -2.3251 H         1 RES1    0.0000
     38 C19        3.8142   -0.1835   -1.5006 C.3       1 RES1    0.0000
     39 H20        2.9486   -0.5674   -1.6604 H         1 RES1    0.0000
     40 H21        3.8161    0.7328   -1.7867 H         1 RES1    0.0000
     41 H22        4.0162   -0.2258   -0.5625 H         1 RES1    0.0000
     42 O1         3.5942   -4.1326   -4.5816 O.3       1 RES1    0.0000
     43 O2         5.3235   -1.7024   -4.5603 O.3       1 RES1    0.0000
     44 N1         4.5518   -0.7275   -3.7105 N.3       1 RES1    0.0000
     45 H23        3.9157   -4.8413   -4.5419 H         1 RES1    0.0000
     46 C20       -0.7499    2.4991    4.6039 C.ar      2 RES2    0.0000
     47 H24       -1.5008    2.3373    4.0817 H         2 RES2    0.0000
     48 C21       -0.8808    3.1921    5.7722 C.ar      2 RES2    0.0000
     49 H25       -1.7170    3.4903    6.0489 H         2 RES2    0.0000
     50 C22        0.2560    3.4480    6.5422 C.ar      2 RES2    0.0000
     51 H26        0.1811    3.9612    7.3152 H         2 RES2    0.0000
     52 C23        1.4838    2.9518    6.1731 C.ar      2 RES2    0.0000
     53 H27        2.2290    3.0810    6.7136 H         2 RES2    0.0000
     54 C24        1.5900    2.2673    4.9988 C.ar      2 RES2    0.0000
     55 H28        2.4214    1.9474    4.7314 H         2 RES2    0.0000
     56 C25        0.4712    2.0367    4.1900 C.ar      2 RES2    0.0000
     57 C26        0.6191    1.2182    2.9159 C.3       2 RES2    0.0000
     58 C27        0.8580   -0.2704    3.2515 C.3       2 RES2    0.0000
     59 H29        1.5748   -0.3344    3.9012 H         2 RES2    0.0000
     60 H30        0.0559   -0.6338    3.6576 H         2 RES2    0.0000
     61 C28        1.4752    1.8061    1.7647 C.3       2 RES2    0.0000
     62 H31        1.8109    1.0866    1.2814 H         2 RES2    0.0000
     63 C29        2.6101    2.7804    1.9909 C.ar      2 RES2    0.0000
     64 C30        2.4290    4.1338    2.0950 C.ar      2 RES2    0.0000
     65 H32        1.5729    4.4924    2.0454 H         2 RES2    0.0000
     66 C31        3.5222    4.9753    2.2767 C.ar      2 RES2    0.0000
     67 H33        3.3914    5.8940    2.3221 H         2 RES2    0.0000
     68 C32        4.7879    4.4646    2.3877 C.ar      2 RES2    0.0000
     69 H34        5.5151    5.0320    2.5086 H         2 RES2    0.0000
     70 C33        4.9718    3.1028    2.3197 C.ar      2 RES2    0.0000
     71 H35        5.8204    2.7394    2.4364 H         2 RES2    0.0000
     72 C34        3.8901    2.2770    2.0761 C.ar      2 RES2    0.0000
     73 H36        4.0294    1.3642    1.9672 H         2 RES2    0.0000
     74 C35       -0.1166    2.1309   -0.2202 C.3       2 RES2    0.0000
     75 C36       -0.0303    0.6640   -0.6211 C.3       2 RES2    0.0000
     76 H37        0.8637    0.3453   -0.4783 H         2 RES2    0.0000
     77 H38       -0.2588    0.5723   -1.5491 H         2 RES2    0.0000
     78 H39       -0.6419    0.1509   -0.0872 H         2 RES2    0.0000
     79 C37        0.9035    2.9760   -0.9752 C.3       2 RES2    0.0000
     80 H40        0.8201    3.8935   -0.7069 H         2 RES2    0.0000
     81 H41        0.7443    2.9023   -1.9190 H         2 RES2    0.0000
     82 H42        1.7891    2.6633   -0.7760 H         2 RES2    0.0000
     83 C38       -1.5113    2.6681   -0.4235 C.3       2 RES2    0.0000
     84 H43       -1.5369    3.5953   -0.1745 H         2 RES2    0.0000
     85 H44       -2.1275    2.1731    0.1233 H         2 RES2    0.0000
     86 H45       -1.7578    2.5776   -1.3475 H         2 RES2    0.0000
     87 O3         1.1880   -1.0349    2.1434 O.3       2 RES2    0.0000
     88 O4        -0.5537    1.3728    2.0806 O.3       2 RES2    0.0000
     89 N2         0.1972    2.3603    1.2378 N.3       2 RES2    0.0000
     90 H46        0.5878   -1.9075    1.9672 H         2 RES2    0.0000
@<TRIPOS>BOND
     1    1    2 1
     2    3    1 ar
     3    4    3 1
     4    5    3 ar
     5    6    5 1
     6    7    5 ar
     7    8    7 1
     8    9    7 ar
     9   10    9 1
    10   11    1 ar
    11   12   11 1
    12   13   12 1
    13   14   13 1
    14   15   13 1
    15   16   12 1
    16   17   16 1
    17   18   16 1
    18   19   18 ar
    19   20   19 1
    20   21   19 ar
    21   22   21 1
    22   23   21 ar
    23   24   23 1
    24   25   23 ar
    25   26   25 1
    26   27   18 ar
    27   28   27 1
    28   29   30 1
    29   30   31 1
    30   32   30 1
    31   33   30 1
    32   34   29 1
    33   35   34 1
    34   36   34 1
    35   37   34 1
    36   38   29 1
    37   39   38 1
    38   40   38 1
    39   41   38 1
    40   42   13 1
    41   43   12 1
    42   44   16 1
    43   45   42 1
    44   46   47 1
    45   48   46 ar
    46   49   48 1
    47   50   48 ar
    48   51   50 1
    49   52   50 ar
    50   53   52 1
    51   54   52 ar
    52   55   54 1
    53   56   46 ar
    54   57   56 1
    55   58   57 1
    56   59   58 1
    57   60   58 1
    58   61   57 1
    59   62   61 1
    60   63   61 1
    61   64   63 ar
    62   65   64 1
    63   66   64 ar
    64   67   66 1
    65   68   66 ar
    66   69   68 1
    67   70   68 ar
    68   71   70 1
    69   72   63 ar
    70   73   72 1
    71   74   75 1
    72   75   76 1
    73   77   75 1
    74   78   75 1
    75   79   74 1
    76   80   79 1
    77   81   79 1
    78   82   79 1
    79   83   74 1
    80   84   83 1
    81   85   83 1
    82   86   83 1
    83   87   58 1
    84   88   57 1
    85   89   61 1
    86   90   87 1
    87    9   11 ar
    88   25   27 ar
    89   29   44 1
    90   43   44 1
    91   54   56 ar
    92   70   72 ar
    93   74   89 1
    94   88   89 1
@<TRIPOS>SUBSTRUCTURE
     1 RES1 1
     2 RES2 46

@<TRIPOS>CRYSIN
   9.4810   12.0730   30.0790  90.0000  90.0000  90.0000  29 5

