# MOL2 file generated by ConQuest
# Please check atom types

@<TRIPOS>MOLECULE
CEXYAG
    26    27     1
SMALL
NO_CHARGES
****
Generated from CSD

@<TRIPOS>ATOM
      1 N1         2.3959    4.6562   -0.1535 N.2       1 RES1    0.0000
      2 N2         2.8920    5.8220   -0.6169 N.3       1 RES1    0.0000
      3 N3         1.7189    2.5106    1.8112 N.am      1 RES1    0.0000
      4 O1         0.9051    4.2292    3.0011 O.2       1 RES1    0.0000
      5 O2         2.7129    2.0771    0.9359 O.3       1 RES1    0.0000
      6 C1         1.5904    3.8300    2.0463 C.2       1 RES1    0.0000
      7 C2         2.2193    4.8254    1.1568 C.2       1 RES1    0.0000
      8 C3         2.5857    6.1469    1.5588 C.ar      1 RES1    0.0000
      9 C4         3.0160    6.7586    0.3658 C.ar      1 RES1    0.0000
     10 C5         2.5800    6.8839    2.7607 C.ar      1 RES1    0.0000
     11 H1         2.3054    6.4976    3.5606 H         1 RES1    0.0000
     12 C6         3.4397    8.0950    0.3120 C.ar      1 RES1    0.0000
     13 H2         3.7218    8.4862   -0.4835 H         1 RES1    0.0000
     14 C7         2.9963    8.1995    2.7080 C.ar      1 RES1    0.0000
     15 H3         3.0005    8.7051    3.4891 H         1 RES1    0.0000
     16 C8         2.1085    1.5475   -0.2583 C.3       1 RES1    0.0000
     17 H4         1.5848    0.7740   -0.0357 H         1 RES1    0.0000
     18 H5         2.7953    1.3007   -0.8815 H         1 RES1    0.0000
     19 H6         1.5427    2.2145   -0.6532 H         1 RES1    0.0000
     20 C9         3.4165    8.7998    1.4970 C.ar      1 RES1    0.0000
     21 H7         3.6835    9.6907    1.5003 H         1 RES1    0.0000
     22 C10        1.2467    1.5106    2.7515 C.3       1 RES1    0.0000
     23 H8         1.8628    1.4456    3.4853 H         1 RES1    0.0000
     24 H9         1.1835    0.6605    2.3104 H         1 RES1    0.0000
     25 H10        0.3817    1.7647    3.0809 H         1 RES1    0.0000
     26 H11        2.8855    5.9871   -1.4811 H         1 RES1    0.0000
@<TRIPOS>BOND
     1    1    2 1
     2    2    9 1
     3    3    5 1
     4    4    6 2
     5    5   16 1
     6    6    3 1
     7    7    1 2
     8    8    7 1
     9    9    8 ar
    10   10    8 ar
    11   11   10 1
    12   12    9 ar
    13   13   12 1
    14   14   10 ar
    15   15   14 1
    16   16   17 1
    17   18   16 1
    18   19   16 1
    19   20   12 ar
    20   21   20 1
    21   22    3 1
    22   23   22 1
    23   24   22 1
    24   25   22 1
    25   26    2 1
    26    6    7 1
    27   14   20 ar
@<TRIPOS>SUBSTRUCTURE
     1 RES1 1

@<TRIPOS>CRYSIN
   7.5143   10.1304   12.7574  90.0000  90.0000  90.0000  19 1

