# MOL2 file generated by ConQuest
# Please check atom types

@<TRIPOS>MOLECULE
CEYGET
    80    86     2
SMALL
NO_CHARGES
****
Generated from CSD

@<TRIPOS>ATOM
      1 C1         0.5130    1.6487    8.0064 C.3       1 RES1    0.0000
      2 C2        -4.7273    5.0901   14.2111 C.3       2 RES2    0.0000
      3 C3         1.6919    2.0949    8.8031 C.3       1 RES1    0.0000
      4 C4        -5.0559    3.6566   14.4569 C.3       2 RES2    0.0000
      5 C5         1.8329    0.9067    7.8777 C.3       1 RES1    0.0000
      6 C6        -4.8545    4.1397   13.0456 C.3       2 RES2    0.0000
      7 N1         2.5378    1.2020    6.6529 N.3       1 RES1    0.0000
      8 N2        -3.5826    3.7628   12.4759 N.3       2 RES2    0.0000
      9 O1         2.1047    0.2463    5.6538 O.3       1 RES1    0.0000
     10 O2        -3.2678    4.7004   11.4203 O.3       2 RES2    0.0000
     11 C7         2.5594   -1.0781    5.9979 C.3       1 RES1    0.0000
     12 C8        -4.1997    4.5429   10.3214 C.3       2 RES2    0.0000
     13 C9         2.3102   -1.4130    7.4251 C.2       1 RES1    0.0000
     14 C10       -5.6024    4.4560   10.7841 C.2       2 RES2    0.0000
     15 C11        1.9373   -0.5161    8.3274 C.2       1 RES1    0.0000
     16 C12       -5.9504    4.3067   12.0522 C.2       2 RES2    0.0000
     17 C13        3.9732    1.3061    6.6761 C.ar      1 RES1    0.0000
     18 C14       -3.3817    2.4154   12.0305 C.ar      2 RES2    0.0000
     19 C15        4.6415    1.3859    5.4528 C.ar      1 RES1    0.0000
     20 C16       -2.2037    2.1093   11.3625 C.ar      2 RES2    0.0000
     21 C17        6.0069    1.6120    5.4325 C.ar      1 RES1    0.0000
     22 C18       -1.9054    0.7948   11.0444 C.ar      2 RES2    0.0000
     23 C19        6.7181    1.7513    6.6125 C.ar      1 RES1    0.0000
     24 C20       -2.7798   -0.2242   11.3827 C.ar      2 RES2    0.0000
     25 C21        6.0583    1.6515    7.8155 C.ar      1 RES1    0.0000
     26 C22       -3.9562    0.0821   12.0146 C.ar      2 RES2    0.0000
     27 C23        4.6853    1.4231    7.8589 C.ar      1 RES1    0.0000
     28 C24       -4.2675    1.3911   12.3472 C.ar      2 RES2    0.0000
     29 C25       -7.3720    4.3085   12.5164 C.ar      2 RES2    0.0000
     30 C26        1.6557   -0.9031    9.7473 C.ar      1 RES1    0.0000
     31 C27       -8.1118    5.4947   12.6292 C.ar      2 RES2    0.0000
     32 C28        0.5671   -1.7295   10.0712 C.ar      1 RES1    0.0000
     33 C29       -9.4668    5.4226   13.0210 C.ar      2 RES2    0.0000
     34 C30        0.4165   -2.1362   11.4001 C.ar      1 RES1    0.0000
     35 C31      -10.0425    4.2000   13.2668 C.ar      2 RES2    0.0000
     36 C32        1.2936   -1.7245   12.3819 C.ar      1 RES1    0.0000
     37 C33       -9.3180    3.0366   13.1801 C.ar      2 RES2    0.0000
     38 C34        2.3459   -0.8925   12.0739 C.ar      1 RES1    0.0000
     39 C35       -8.0041    3.0763   12.8027 C.ar      2 RES2    0.0000
     40 C36        2.5266   -0.4920   10.7581 C.ar      1 RES1    0.0000
     41 C37       -7.5018    6.8316   12.3414 C.3       2 RES2    0.0000
     42 C38       -0.4349   -2.1578    9.0374 C.3       1 RES1    0.0000
     43 H1         0.2276    2.2180    7.2487 H         1 RES1    0.0000
     44 H2        -0.2243    1.1965    8.4879 H         1 RES1    0.0000
     45 H3        -3.8194    5.4031   14.4525 H         2 RES2    0.0000
     46 H4        -5.4461    5.7580   14.3427 H         2 RES2    0.0000
     47 H5         1.6813    1.9189    9.7777 H         1 RES1    0.0000
     48 H6         2.1332    2.9404    8.5385 H         1 RES1    0.0000
     49 H7        -5.9789    3.4378   14.7432 H         2 RES2    0.0000
     50 H8        -4.3525    3.0840   14.8531 H         2 RES2    0.0000
     51 H9         3.5299   -1.1443    5.8143 H         1 RES1    0.0000
     52 H10        2.0959   -1.7384    5.4239 H         1 RES1    0.0000
     53 H11       -3.9719    3.7224    9.8167 H         2 RES2    0.0000
     54 H12       -4.1087    5.3133    9.7054 H         2 RES2    0.0000
     55 H13        2.4238   -2.3146    7.7042 H         1 RES1    0.0000
     56 H14       -6.2926    4.5088   10.1334 H         2 RES2    0.0000
     57 H15        4.1607    1.2857    4.6401 H         1 RES1    0.0000
     58 H16       -1.6012    2.8038   11.1239 H         2 RES2    0.0000
     59 H17        6.4607    1.6717    4.5997 H         1 RES1    0.0000
     60 H18       -1.0963    0.5921   10.5903 H         2 RES2    0.0000
     61 H19        7.6541    1.9147    6.5908 H         1 RES1    0.0000
     62 H20       -2.5646   -1.1269   11.1774 H         2 RES2    0.0000
     63 H21        6.5452    1.7386    8.6267 H         1 RES1    0.0000
     64 H22       -4.5676   -0.6134   12.2272 H         2 RES2    0.0000
     65 H23        4.2396    1.3471    8.6947 H         1 RES1    0.0000
     66 H24       -5.0840    1.5879   12.7911 H         2 RES2    0.0000
     67 H25       -9.9789    6.2169   13.1121 H         2 RES2    0.0000
     68 H26       -0.3047   -2.7080   11.6314 H         1 RES1    0.0000
     69 H27      -10.9615    4.1590   13.5011 H         2 RES2    0.0000
     70 H28        1.1697   -2.0164   13.2784 H         1 RES1    0.0000
     71 H29       -9.7301    2.2045   13.3840 H         2 RES2    0.0000
     72 H30        2.9414   -0.5971   12.7521 H         1 RES1    0.0000
     73 H31       -7.5107    2.2676   12.7333 H         2 RES2    0.0000
     74 H32        3.2582    0.0736   10.5397 H         1 RES1    0.0000
     75 H33       -6.5629    6.7144   12.0855 H         2 RES2    0.0000
     76 H34       -7.5543    7.3937   13.1425 H         2 RES2    0.0000
     77 H35       -7.9893    7.2617   11.6083 H         2 RES2    0.0000
     78 H36       -1.2049   -2.5718    9.4798 H         1 RES1    0.0000
     79 H37       -0.0211   -2.8047    8.4286 H         1 RES1    0.0000
     80 H38       -0.7331   -1.3751    8.5269 H         1 RES1    0.0000
@<TRIPOS>BOND
     1    1    3 1
     2    2    4 1
     3    3    5 1
     4    4    6 1
     5    5    1 1
     6    6    2 1
     7    7    5 1
     8    8    6 1
     9    9    7 1
    10   10    8 1
    11   11    9 1
    12   12   10 1
    13   13   11 1
    14   14   12 1
    15   15    5 1
    16   16    6 1
    17   17    7 1
    18   18    8 1
    19   19   17 ar
    20   20   18 ar
    21   21   19 ar
    22   22   20 ar
    23   23   21 ar
    24   24   22 ar
    25   25   23 ar
    26   26   24 ar
    27   27   17 ar
    28   28   18 ar
    29   29   16 1
    30   30   15 1
    31   31   29 ar
    32   32   30 ar
    33   33   31 ar
    34   34   32 ar
    35   35   33 ar
    36   36   34 ar
    37   37   35 ar
    38   38   36 ar
    39   39   29 ar
    40   40   30 ar
    41   41   31 1
    42   42   32 1
    43   43    1 1
    44   44    1 1
    45   45    2 1
    46   46    2 1
    47   47    3 1
    48   48    3 1
    49   49    4 1
    50   50    4 1
    51   51   11 1
    52   52   11 1
    53   53   12 1
    54   54   12 1
    55   55   13 1
    56   56   14 1
    57   57   19 1
    58   58   20 1
    59   59   21 1
    60   60   22 1
    61   61   23 1
    62   62   24 1
    63   63   25 1
    64   64   26 1
    65   65   27 1
    66   66   28 1
    67   67   33 1
    68   68   34 1
    69   69   35 1
    70   70   36 1
    71   71   37 1
    72   72   38 1
    73   73   39 1
    74   74   40 1
    75   75   41 1
    76   76   41 1
    77   77   41 1
    78   78   42 1
    79   79   42 1
    80   80   42 1
    81   13   15 2
    82   14   16 2
    83   25   27 ar
    84   26   28 ar
    85   37   39 ar
    86   38   40 ar
@<TRIPOS>SUBSTRUCTURE
     1 RES1 1
     2 RES2 2

@<TRIPOS>CRYSIN
   9.9510   10.7639   14.9542 100.8840  96.4440 106.1210   2 1

