# MOL2 file generated by ConQuest
# Please check atom types

@<TRIPOS>MOLECULE
CEYJOH
    42    44     2
SMALL
NO_CHARGES
****
Generated from CSD

@<TRIPOS>ATOM
      1 O1         2.4063   -2.3007   10.7264 O.3       1 RES1    0.0000
      2 O2         4.0052   -3.0282    9.2666 O.2       1 RES1    0.0000
      3 N1         3.3763   -2.0543    9.7012 N.pl3     1 RES1    0.0000
      4 N2         1.8691   -1.0813   11.0818 N.2       1 RES1    0.0000
      5 C1         4.2661   -0.2204    8.3854 C.3       1 RES1    0.0000
      6 C2         0.7982    1.5798   10.9289 C.ar      1 RES1    0.0000
      7 C3         2.0773    1.2440   10.4912 C.ar      1 RES1    0.0000
      8 C4         2.4414   -0.1738   10.3306 C.2       1 RES1    0.0000
      9 C5         3.3893   -0.7615    9.4467 C.2       1 RES1    0.0000
     10 C6         3.0001    2.2642   10.2719 C.ar      1 RES1    0.0000
     11 C7         0.4556    2.9055   11.1438 C.ar      1 RES1    0.0000
     12 C8         1.3778    3.9005   10.9195 C.ar      1 RES1    0.0000
     13 C9         2.6442    3.5836   10.4795 C.ar      1 RES1    0.0000
     14 H1         5.0995    0.0589    8.7704 H         1 RES1    0.0000
     15 H2         3.8379    0.5316    7.9693 H         1 RES1    0.0000
     16 H3         4.4301   -0.9002    7.7272 H         1 RES1    0.0000
     17 H4         0.1707    0.9108   11.0774 H         1 RES1    0.0000
     18 H5         3.8599    2.0570    9.9844 H         1 RES1    0.0000
     19 H6        -0.3999    3.1222   11.4405 H         1 RES1    0.0000
     20 H7         1.1461    4.7895   11.0649 H         1 RES1    0.0000
     21 H8         3.2627    4.2607   10.3213 H         1 RES1    0.0000
     22 O3         4.7971    4.0106   13.4693 O.3       2 RES2    0.0000
     23 O4         2.7941    4.7466   14.2814 O.2       2 RES2    0.0000
     24 N3         5.3561    2.7867   13.1606 N.2       2 RES2    0.0000
     25 N4         3.4699    3.7633   13.9496 N.pl3     2 RES2    0.0000
     26 C10        5.5879    0.0996   12.1315 C.ar      2 RES2    0.0000
     27 C11        3.2555    2.4683   13.9176 C.2       2 RES2    0.0000
     28 C12        4.7224    0.4557   13.1608 C.ar      2 RES2    0.0000
     29 C13        1.9355    1.9298   14.3063 C.3       2 RES2    0.0000
     30 C14        4.4489    1.8781   13.4237 C.2       2 RES2    0.0000
     31 C15        5.8569   -1.2356   11.8842 C.ar      2 RES2    0.0000
     32 C16        4.1411   -0.5486   13.9289 C.ar      2 RES2    0.0000
     33 C17        5.2691   -2.2196   12.6412 C.ar      2 RES2    0.0000
     34 C18        4.4157   -1.8779   13.6612 C.ar      2 RES2    0.0000
     35 H9         5.9852    0.7584   11.6102 H         2 RES2    0.0000
     36 H10        1.6611    1.2659   13.6702 H         2 RES2    0.0000
     37 H11        1.2916    2.6417   14.3240 H         2 RES2    0.0000
     38 H12        1.9955    1.5322   15.1787 H         2 RES2    0.0000
     39 H13        6.4415   -1.4685   11.1984 H         2 RES2    0.0000
     40 H14        3.5665   -0.3252   14.6247 H         2 RES2    0.0000
     41 H15        5.4484   -3.1145   12.4637 H         2 RES2    0.0000
     42 H16        4.0193   -2.5443   14.1756 H         2 RES2    0.0000
@<TRIPOS>BOND
     1    1    3 1
     2    2    3 1
     3    3    9 2
     4    4    1 1
     5    5    9 1
     6    6    7 ar
     7    7    8 1
     8    8    4 2
     9    9    8 1
    10   10    7 ar
    11   11    6 ar
    12   12   11 ar
    13   13   10 ar
    14   14    5 1
    15   15    5 1
    16   16    5 1
    17   17    6 1
    18   18   10 1
    19   19   11 1
    20   20   12 1
    21   21   13 1
    22   22   24 1
    23   23   25 1
    24   24   30 2
    25   25   22 1
    26   26   28 ar
    27   27   25 2
    28   28   30 1
    29   29   27 1
    30   30   27 1
    31   31   26 ar
    32   32   28 ar
    33   33   31 ar
    34   34   32 ar
    35   35   26 1
    36   36   29 1
    37   37   29 1
    38   38   29 1
    39   39   31 1
    40   40   32 1
    41   41   33 1
    42   42   34 1
    43   12   13 ar
    44   33   34 ar
@<TRIPOS>SUBSTRUCTURE
     1 RES1 1
     2 RES2 22

@<TRIPOS>CRYSIN
  14.0590    9.6484   14.1900  90.0000 118.4410  90.0000 231 1

