# MOL2 file generated by ConQuest
# Please check atom types

@<TRIPOS>MOLECULE
CEYJUN
    22    24     1
SMALL
NO_CHARGES
****
Generated from CSD

@<TRIPOS>ATOM
      1 C1        -0.1180    0.8623    3.2580 C.ar      1 RES1    0.0000
      2 O1         1.7879   -1.6482    4.9243 O.3       1 RES1    0.0000
      3 C2         0.6865   -0.0040    4.0971 C.2       1 RES1    0.0000
      4 N1         1.0862   -1.2142    3.8296 N.2       1 RES1    0.0000
      5 C3        -0.3699    2.1376    3.7454 C.ar      1 RES1    0.0000
      6 C4         1.1258    0.4205    5.3474 C.2       1 RES1    0.0000
      7 N2         1.7947   -0.5587    5.8896 N.pl3     1 RES1    0.0000
      8 C5        -1.1970    2.9599    2.9777 C.ar      1 RES1    0.0000
      9 H1        -1.3918    3.8180    3.2778 H         1 RES1    0.0000
     10 C6        -0.6532    0.4506    2.0577 C.ar      1 RES1    0.0000
     11 H2        -0.4666   -0.4020    1.7362 H         1 RES1    0.0000
     12 C7         0.8532    1.7444    5.9182 C.3       1 RES1    0.0000
     13 H3         0.2683    1.6432    6.6858 H         1 RES1    0.0000
     14 H4         1.6865    2.1316    6.2302 H         1 RES1    0.0000
     15 C8        -1.7289    2.5242    1.7838 C.ar      1 RES1    0.0000
     16 H5        -2.2773    3.0867    1.2868 H         1 RES1    0.0000
     17 C9        -1.4559    1.2884    1.3376 C.ar      1 RES1    0.0000
     18 H6        -1.8163    0.9997    0.5303 H         1 RES1    0.0000
     19 C10        0.2595    2.6186    5.0068 C.3       1 RES1    0.0000
     20 H7         0.9383    3.2635    4.7536 H         1 RES1    0.0000
     21 H8        -0.4223    3.1083    5.4919 H         1 RES1    0.0000
     22 O2         2.3862   -0.7663    6.9383 O.2       1 RES1    0.0000
@<TRIPOS>BOND
     1    1    3 1
     2    2    4 1
     3    3    4 2
     4    5    1 ar
     5    6    3 1
     6    7    2 1
     7    8    5 ar
     8    9    8 1
     9   10    1 ar
    10   11   10 1
    11   12    6 1
    12   13   12 1
    13   14   12 1
    14   15    8 ar
    15   16   15 1
    16   17   10 ar
    17   18   17 1
    18   19    5 1
    19   20   19 1
    20   21   19 1
    21   22    7 1
    22    6    7 2
    23   12   19 1
    24   15   17 ar
@<TRIPOS>SUBSTRUCTURE
     1 RES1 1

@<TRIPOS>CRYSIN
   8.3500   13.4910    8.5460  90.0000 111.7330  90.0000  14 1

