# MOL2 file generated by ConQuest
# Please check atom types

@<TRIPOS>MOLECULE
CEYKEX
    48    52     1
SMALL
NO_CHARGES
****
Generated from CSD

@<TRIPOS>ATOM
      1 O1        11.3421    4.1624    4.0501 O.2       1 RES1    0.0000
      2 O2        11.0195    4.3505    6.1567 O.2       1 RES1    0.0000
      3 N1         5.7415    2.2078    2.3611 N.3       1 RES1    0.0000
      4 N2        11.3095    3.7063    5.1686 N.pl3     1 RES1    0.0000
      5 N3        11.0159    0.0498    4.8250 N.ar      1 RES1    0.0000
      6 C1         7.2814    2.8423    4.2319 C.ar      1 RES1    0.0000
      7 H1         6.7044    3.4875    4.6186 H         1 RES1    0.0000
      8 C2         8.5267    2.6058    4.7582 C.ar      1 RES1    0.0000
      9 H2         8.7890    3.0658    5.5234 H         1 RES1    0.0000
     10 C3         9.4190    1.6886    4.1761 C.ar      1 RES1    0.0000
     11 C4         9.0339    1.0126    3.0298 C.ar      1 RES1    0.0000
     12 H3         9.6108    0.3983    2.6387 H         1 RES1    0.0000
     13 C5         7.7929    1.2491    2.4651 C.ar      1 RES1    0.0000
     14 C6         7.0939    0.7143    1.3186 C.ar      1 RES1    0.0000
     15 C7         7.4154   -0.2104    0.3392 C.ar      1 RES1    0.0000
     16 H4         8.2473   -0.6255    0.3371 H         1 RES1    0.0000
     17 C8         6.4893   -0.5049   -0.6284 C.ar      1 RES1    0.0000
     18 H5         6.7019   -1.1154   -1.2966 H         1 RES1    0.0000
     19 C9         5.2404    0.0972   -0.6202 C.ar      1 RES1    0.0000
     20 H6         4.6257   -0.1215   -1.2829 H         1 RES1    0.0000
     21 C10        4.8929    1.0042    0.3380 C.ar      1 RES1    0.0000
     22 H7         4.0498    1.3987    0.3416 H         1 RES1    0.0000
     23 C11        5.8338    1.3174    1.3046 C.ar      1 RES1    0.0000
     24 C12        6.9145    2.1645    3.0803 C.ar      1 RES1    0.0000
     25 C13       10.7144    1.3295    4.7956 C.ar      1 RES1    0.0000
     26 C14       11.6231    2.2776    5.3384 C.ar      1 RES1    0.0000
     27 C15       12.7824    1.9326    5.9710 C.ar      1 RES1    0.0000
     28 C16       13.0671    0.5488    6.0557 C.ar      1 RES1    0.0000
     29 C17       14.1890    0.0122    6.7320 C.ar      1 RES1    0.0000
     30 H8        14.7927    0.6077    7.1875 H         1 RES1    0.0000
     31 C18       14.4242   -1.3211    6.7364 C.ar      1 RES1    0.0000
     32 H9        15.1690   -1.6558    7.1829 H         1 RES1    0.0000
     33 C19       13.5651   -2.1944    6.0810 C.ar      1 RES1    0.0000
     34 H10       13.7483   -3.1060    6.0776 H         1 RES1    0.0000
     35 C20       12.4577   -1.7288    5.4448 C.ar      1 RES1    0.0000
     36 H11       11.8271   -2.3374    5.0209 H         1 RES1    0.0000
     37 C21       12.1725   -0.3544    5.4292 C.ar      1 RES1    0.0000
     38 C22        4.5433    2.9414    2.7494 C.3       1 RES1    0.0000
     39 H12        4.0311    3.1584    1.9540 H         1 RES1    0.0000
     40 H13        4.8055    3.7754    3.1717 H         1 RES1    0.0000
     41 C23        3.6750    2.1663    3.6936 C.3       1 RES1    0.0000
     42 H14        3.4109    1.3408    3.2810 H         1 RES1    0.0000
     43 H15        2.8942    2.6815    3.9065 H         1 RES1    0.0000
     44 H16        4.1638    1.9794    4.4986 H         1 RES1    0.0000
     45 C24       13.7558    2.9461    6.5158 C.3       1 RES1    0.0000
     46 H17       13.4380    3.8306    6.3205 H         1 RES1    0.0000
     47 H18       14.6162    2.8162    6.1080 H         1 RES1    0.0000
     48 H19       13.8332    2.8367    7.4668 H         1 RES1    0.0000
@<TRIPOS>BOND
     1    1    4 2
     2    2    4 2
     3    3   23 1
     4    4   26 1
     5    5   25 ar
     6    6    7 1
     7    8    6 ar
     8    9    8 1
     9   10    8 ar
    10   11   10 ar
    11   12   11 1
    12   13   11 ar
    13   14   13 1
    14   15   14 ar
    15   16   15 1
    16   17   15 ar
    17   18   17 1
    18   19   17 ar
    19   20   19 1
    20   21   19 ar
    21   22   21 1
    22   23   14 ar
    23   24    3 1
    24   25   10 1
    25   26   25 ar
    26   27   26 ar
    27   28   27 ar
    28   29   28 ar
    29   30   29 1
    30   31   29 ar
    31   32   31 1
    32   33   31 ar
    33   34   33 1
    34   35   33 ar
    35   36   35 1
    36   37    5 ar
    37   38    3 1
    38   39   38 1
    39   40   38 1
    40   41   38 1
    41   42   41 1
    42   43   41 1
    43   44   41 1
    44   45   27 1
    45   46   45 1
    46   47   45 1
    47   48   45 1
    48    6   24 ar
    49   13   24 ar
    50   21   23 ar
    51   28   37 ar
    52   35   37 ar
@<TRIPOS>SUBSTRUCTURE
     1 RES1 1

@<TRIPOS>CRYSIN
  26.8340    9.3498   15.3302  90.0000  97.9560  90.0000  15 1

