# MOL2 file generated by ConQuest
# Please check atom types

@<TRIPOS>MOLECULE
CEYSOO
    22    21     1
SMALL
NO_CHARGES
****
Generated from CSD

@<TRIPOS>ATOM
      1 O1         5.6777   -0.2752   -0.4145 O.3       1 RES1    0.0000
      2 N1         4.7920    0.5441    0.3138 N.2       1 RES1    0.0000
      3 C1         3.9310   -0.0989    0.9832 C.2       1 RES1    0.0000
      4 C2         3.8413   -1.5860    1.0133 C.3       1 RES1    0.0000
      5 C3         2.9540    0.7544    1.8057 C.3       1 RES1    0.0000
      6 C4         3.1596    2.2445    1.5429 C.3       1 RES1    0.0000
      7 C5         3.1256    0.4730    3.3014 C.3       1 RES1    0.0000
      8 N2         1.5443    0.4158    1.4683 N.2       1 RES1    0.0000
      9 C6         1.2289    0.4065    0.0196 C.2       1 RES1    0.0000
     10 H1         6.2450    0.3246   -0.7322 H         1 RES1    0.0000
     11 H2         4.5910   -1.9941    0.9806 H         1 RES1    0.0000
     12 H3         3.1380   -1.9168    1.4121 H         1 RES1    0.0000
     13 H4         3.6790   -1.9168    0.1961 H         1 RES1    0.0000
     14 H5         3.9109    2.5351    1.5952 H         1 RES1    0.0000
     15 H6         2.4733    2.8597    1.9090 H         1 RES1    0.0000
     16 H7         3.0452    2.3342    0.6668 H         1 RES1    0.0000
     17 H8         3.1534   -0.4947    3.3995 H         1 RES1    0.0000
     18 H9         2.4269    1.0666    3.7525 H         1 RES1    0.0000
     19 H10        3.9727    0.6338    3.6218 H         1 RES1    0.0000
     20 H11        1.2985   -0.4328    1.7390 H         1 RES1    0.0000
     21 H12        2.1177    0.0927   -0.5099 H         1 RES1    0.0000
     22 H13        0.9739    1.4221   -0.2615 H         1 RES1    0.0000
@<TRIPOS>BOND
     1    1    2 1
     2    2    3 1
     3    3    4 1
     4    4   11 1
     5    5    3 1
     6    6    5 1
     7    7    5 1
     8    8    5 1
     9    9    8 1
    10   10    1 1
    11   12    4 1
    12   13    4 1
    13   14    6 1
    14   15    6 1
    15   16    6 1
    16   17    7 1
    17   18    7 1
    18   19    7 1
    19   20    8 1
    20   21    9 1
    21   22    9 1
@<TRIPOS>SUBSTRUCTURE
     1 RES1 1

@<TRIPOS>CRYSIN
  15.4580   15.4580   13.0750  90.0000  90.0000  90.0000 110 1

