# MOL2 file generated by ConQuest
# Please check atom types

@<TRIPOS>MOLECULE
CEZBEP
    60    57     2
SMALL
NO_CHARGES
****
Generated from CSD

@<TRIPOS>ATOM
      1 C1         8.2994    7.8572    2.2048 C.3       1 RES1    0.0000
      2 H1         9.0104    8.3868    1.8348 H         1 RES1    0.0000
      3 H2         7.5822    8.4337    2.4799 H         1 RES1    0.0000
      4 H3         7.9803    7.2417    1.5426 H         1 RES1    0.0000
      5 C2         9.8496    6.3353    3.0871 C.ar      1 RES1    0.0000
      6 C3        10.5521    6.2450    1.8803 C.ar      1 RES1    0.0000
      7 H4        10.2885    6.7477    1.1441 H         1 RES1    0.0000
      8 C4        11.6303    5.4063    1.7968 C.ar      1 RES1    0.0000
      9 H5        12.1016    5.3481    0.9961 H         1 RES1    0.0000
     10 C5        12.0339    4.6475    2.8746 C.ar      1 RES1    0.0000
     11 C6        11.3062    4.6657    4.0870 C.ar      1 RES1    0.0000
     12 C7        10.2115    5.5087    4.1762 C.ar      1 RES1    0.0000
     13 C8         9.3701    5.5287    5.4512 C.3       1 RES1    0.0000
     14 H6         9.9493    5.7449    6.1988 H         1 RES1    0.0000
     15 H7         8.7136    6.2380    5.3753 H         1 RES1    0.0000
     16 C9        11.6365    3.7836    5.2482 C.3       1 RES1    0.0000
     17 H8        12.4636    3.3113    5.0661 H         1 RES1    0.0000
     18 H9        11.7738    4.3323    6.0375 H         1 RES1    0.0000
     19 C10        7.4788    3.9633    5.2254 C.2       1 RES1    0.0000
     20 C11       10.3679    1.7746    4.6486 C.2       1 RES1    0.0000
     21 C12        9.4089    3.1368    6.2387 C.3       1 RES1    0.0000
     22 C13        9.6722    3.3790    7.7755 C.2       1 RES1    0.0000
     23 C14       10.6600    2.4310    9.6957 C.3       1 RES1    0.0000
     24 H10       10.7521    3.3547    9.9765 H         1 RES1    0.0000
     25 H11       11.5059    1.9847    9.8589 H         1 RES1    0.0000
     26 H12       10.9465    1.5758    9.9974 Du        2 SUP2    0.0000
     27 H13        9.8896    2.7244   10.1833 Du        2 SUP2    0.0000
     28 C15        9.5600    1.7538   10.5401 C.3       1 RES1    0.0000
     29 H14        8.7292    2.2148   10.4129 H         1 RES1    0.0000
     30 H15        9.8045    1.7824   11.4679 H         1 RES1    0.0000
     31 H16        9.4629    0.8378   10.2649 H         1 RES1    0.0000
     32 C16       11.8140    3.4294    9.9272 Du        2 SUP2    0.0000
     33 H17       12.0883    3.8036    9.0866 Du        2 SUP2    0.0000
     34 H18       12.5562    2.9736   10.3313 Du        2 SUP2    0.0000
     35 H19       11.5157    4.1326   10.5078 Du        2 SUP2    0.0000
     36 C17        8.4116    1.9682    5.9408 C.3       1 RES1    0.0000
     37 C18        7.9717    1.1399    7.1608 C.2       1 RES1    0.0000
     38 C19        7.9423   -1.0175    8.1816 C.3       1 RES1    0.0000
     39 H20        8.6253   -1.6817    8.3637 H         1 RES1    0.0000
     40 H21        7.8233   -0.4784    8.9785 H         1 RES1    0.0000
     41 C20        6.6773   -1.6843    7.8382 C.3       1 RES1    0.0000
     42 H22        5.9778   -1.0340    7.7736 H         1 RES1    0.0000
     43 H23        6.4586   -2.3242    8.5231 H         1 RES1    0.0000
     44 H24        6.7723   -2.1392    6.9976 H         1 RES1    0.0000
     45 N1        13.2057    3.8400    2.6355 N.pl3     1 RES1    0.0000
     46 N2         8.6932    4.3123    5.7396 N.am      1 RES1    0.0000
     47 N3        10.5569    2.7930    5.5252 N.am      1 RES1    0.0000
     48 N4         7.2818    2.6758    5.4436 N.am      1 RES1    0.0000
     49 H25        6.5255    2.2929    5.2975 H         1 RES1    0.0000
     50 N5         9.1077    1.2650    4.9162 N.am      1 RES1    0.0000
     51 H26        8.7771    0.5878    4.5006 H         1 RES1    0.0000
     52 O1         8.7712    7.1522    3.3034 O.3       1 RES1    0.0000
     53 O2        13.3905    3.4033    1.4895 O.2       1 RES1    0.0000
     54 O3        13.9440    3.5379    3.5424 O.2       1 RES1    0.0000
     55 O4         6.7303    4.7265    4.6657 O.2       1 RES1    0.0000
     56 O5        11.1535    1.3692    3.7967 O.2       1 RES1    0.0000
     57 O6         9.3071    4.3080    8.3599 O.2       1 RES1    0.0000
     58 O7        10.3652    2.3910    8.2461 O.3       1 RES1    0.0000
     59 O8         7.2997    1.5923    8.0298 O.2       1 RES1    0.0000
     60 O9         8.3733   -0.1571    7.0564 O.3       1 RES1    0.0000
@<TRIPOS>BOND
     1    1    2 1
     2    3    1 1
     3    4    1 1
     4    5    6 ar
     5    6    7 1
     6    8    6 ar
     7    9    8 1
     8   10    8 ar
     9   11   10 ar
    10   12    5 ar
    11   13   12 1
    12   14   13 1
    13   15   13 1
    14   16   11 1
    15   17   16 1
    16   18   16 1
    17   19   46 1
    18   20   47 1
    19   21   22 1
    20   22   57 2
    21   23   24 1
    22   25   23 1
    23   28   23 1
    24   29   28 1
    25   30   28 1
    26   31   28 1
    27   36   21 1
    28   37   36 1
    29   38   39 1
    30   40   38 1
    31   41   38 1
    32   42   41 1
    33   43   41 1
    34   44   41 1
    35   45   10 1
    36   46   13 1
    37   47   16 1
    38   48   19 1
    39   49   48 1
    40   50   20 1
    41   51   50 1
    42   52    1 1
    43   53   45 2
    44   54   45 2
    45   55   19 2
    46   56   20 2
    47   58   22 1
    48   59   37 2
    49   60   37 1
    50    5   52 1
    51   11   12 ar
    52   21   46 1
    53   21   47 1
    54   23   58 1
    55   36   48 1
    56   36   50 1
    57   38   60 1
@<TRIPOS>SUBSTRUCTURE
     1 RES1 1
     2 SUP2 26

@<TRIPOS>CRYSIN
  12.6260    8.6820   18.9740  90.0000  90.0230  90.0000  14 1

