# MOL2 file generated by ConQuest
# Please check atom types

@<TRIPOS>MOLECULE
CHMDIM
    24    24     1
SMALL
NO_CHARGES
****
Generated from CSD

@<TRIPOS>ATOM
      1 N1         0.3062    1.7310    0.2041 N.2       1 RES1    0.0000
      2 N2        -0.9393    1.7310    0.0653 N.pl3     1 RES1    0.0000
      3 O1        -1.4308    1.7310   -1.0925 O.2       1 RES1    0.0000
      4 C1        -1.9577    1.7310    1.1829 C.3       1 RES1    0.0000
      5 C2        -4.6986    1.7310    2.1438 C.3       1 RES1    0.0000
      6 C3         0.8372    1.7310    1.5666 C.3       1 RES1    0.0000
      7 C4        -2.7950    2.9849    1.0875 C.3       1 RES1    0.0000
      8 C5        -3.8488    2.9794    2.1895 C.3       1 RES1    0.0000
      9 H1        -1.4537    1.7310    2.1237 H         1 RES1    0.0000
     10 H2        -5.3650    1.7310    2.9419 H         1 RES1    0.0000
     11 H3        -5.2609    1.7310    1.2677 H         1 RES1    0.0000
     12 H4         1.8744    1.7310    1.5320 H         1 RES1    0.0000
     13 H5         0.5040    2.5750    2.0646 H         1 RES1    0.0000
     14 H6        -3.2740    3.0175    0.1601 H         1 RES1    0.0000
     15 H7        -2.1889    3.8241    1.1929 H         1 RES1    0.0000
     16 H8        -3.4094    3.0133    3.1387 H         1 RES1    0.0000
     17 H9        -4.4903    3.7930    2.1226 H         1 RES1    0.0000
     18 C4B       -2.7950    0.4771    1.0875 C.3       1 RES1    0.0000
     19 H5B        0.5040    0.8870    2.0646 H         1 RES1    0.0000
     20 C5B       -3.8488    0.4826    2.1895 C.3       1 RES1    0.0000
     21 H6B       -3.2740    0.4445    0.1601 H         1 RES1    0.0000
     22 H7B       -2.1889   -0.3621    1.1929 H         1 RES1    0.0000
     23 H8B       -3.4094    0.4487    3.1387 H         1 RES1    0.0000
     24 H9B       -4.4903   -0.3310    2.1226 H         1 RES1    0.0000
@<TRIPOS>BOND
     1    1    2 2
     2    2    3 1
     3    4    2 1
     4    5    8 1
     5    6    1 1
     6    7    4 1
     7    8    7 1
     8    9    4 1
     9   10    5 1
    10   11    5 1
    11   12    6 1
    12   13    6 1
    13   14    7 1
    14   15    7 1
    15   16    8 1
    16   17    8 1
    17   18    4 1
    18   19    6 1
    19   20    5 1
    20   21   18 1
    21   22   18 1
    22   23   20 1
    23   24   20 1
    24   18   20 1
@<TRIPOS>SUBSTRUCTURE
     1 RES1 1

@<TRIPOS>CRYSIN
  20.8270    6.9240    5.5770  90.0000  90.0000  90.0000  62 1

