# MOL2 file generated by ConQuest
# Please check atom types

@<TRIPOS>MOLECULE
CIBRAG
    26    26     1
SMALL
NO_CHARGES
****
Generated from CSD

@<TRIPOS>ATOM
      1 C1        -1.0390    1.2777    9.7756 C.2       1 RES1    0.0000
      2 C2        -2.0671    0.4407   10.4301 C.2       1 RES1    0.0000
      3 C3        -2.4970    0.8289   11.6161 C.2       1 RES1    0.0000
      4 C4        -2.0500    2.0540   12.3523 C.3       1 RES1    0.0000
      5 C5        -1.8564    3.1599   11.2978 C.3       1 RES1    0.0000
      6 C6        -1.0246    2.8243   10.0399 C.3       1 RES1    0.0000
      7 C7        -2.4740   -0.9077    9.8199 C.3       1 RES1    0.0000
      8 C8        -2.7820   -0.7602    8.3087 C.3       1 RES1    0.0000
      9 C9        -3.7262   -1.4576   10.5090 C.3       1 RES1    0.0000
     10 C10       -1.3069   -1.8822   10.0067 C.3       1 RES1    0.0000
     11 C11       -3.0505    2.4645   13.4262 C.3       1 RES1    0.0000
     12 C12       -1.5191    3.5764    8.7418 C.3       1 RES1    0.0000
     13 C13       -2.8451    2.8850    8.3073 C.3       1 RES1    0.0000
     14 C14       -1.8508    5.0401    9.0075 C.3       1 RES1    0.0000
     15 C15       -0.5561    3.4510    7.5642 C.3       1 RES1    0.0000
     16 N1        -0.7398    1.7023   13.1300 N.pl3     1 RES1    0.0000
     17 N2        -1.4680    4.4841   11.9704 N.pl3     1 RES1    0.0000
     18 N3         0.4585    3.1417   10.3167 N.pl3     1 RES1    0.0000
     19 O1        -0.2178    0.8269    9.0103 O.2       1 RES1    0.0000
     20 O2        -0.1637    0.6934   12.8671 O.2       1 RES1    0.0000
     21 O3        -0.3774    2.4887   13.9382 O.2       1 RES1    0.0000
     22 O4        -2.3953    5.2079   12.2679 O.2       1 RES1    0.0000
     23 O5        -0.3333    4.6964   12.2305 O.2       1 RES1    0.0000
     24 O6         0.9191    4.1930    9.9292 O.2       1 RES1    0.0000
     25 O7         1.0888    2.3310   10.9629 O.2       1 RES1    0.0000
     26 H1        -3.0797    0.3235   12.1364 H         1 RES1    0.0000
@<TRIPOS>BOND
     1    1    2 1
     2    2    3 2
     3    3    4 1
     4    4    5 1
     5    5    6 1
     6    6    1 1
     7    7    2 1
     8    8    7 1
     9    9    7 1
    10   10    7 1
    11   11    4 1
    12   12    6 1
    13   13   12 1
    14   14   12 1
    15   15   12 1
    16   16    4 1
    17   17    5 1
    18   18    6 1
    19   19    1 2
    20   20   16 2
    21   21   16 2
    22   22   17 2
    23   23   17 2
    24   24   18 2
    25   25   18 2
    26   26    3 1
@<TRIPOS>SUBSTRUCTURE
     1 RES1 1

@<TRIPOS>CRYSIN
   6.3850   20.2170   13.8980  90.0000  95.3000  90.0000 231 1

