# MOL2 file generated by ConQuest
# Please check atom types

@<TRIPOS>MOLECULE
CICMAD
    30    31     1
SMALL
NO_CHARGES
****
Generated from CSD

@<TRIPOS>ATOM
      1 O1         5.5148    5.4500    1.7341 O.3       1 RES1    0.0000
      2 O2        10.6245    8.8311    0.6092 O.2       1 RES1    0.0000
      3 O3        10.0980    8.2658   -1.4076 O.2       1 RES1    0.0000
      4 N1         3.9987    4.5021   -1.6895 N.3       1 RES1    0.0000
      5 N2         4.8245    5.0063   -0.7468 N.2       1 RES1    0.0000
      6 N3         9.9031    8.2522   -0.1922 N.pl3     1 RES1    0.0000
      7 C1         2.4238    3.6351   -0.0371 C.ar      1 RES1    0.0000
      8 H1         2.8659    4.0730    0.6544 H         1 RES1    0.0000
      9 C2         1.3072    2.8663    0.2302 C.ar      1 RES1    0.0000
     10 H2         1.0071    2.7848    1.1063 H         1 RES1    0.0000
     11 C3         0.6280    2.2159   -0.7868 C.ar      1 RES1    0.0000
     12 H3        -0.1128    1.6877   -0.5946 H         1 RES1    0.0000
     13 C4         1.0631    2.3597   -2.0876 C.ar      1 RES1    0.0000
     14 H4         0.6003    1.9402   -2.7773 H         1 RES1    0.0000
     15 C5         2.1769    3.1188   -2.3757 C.ar      1 RES1    0.0000
     16 H5         2.4608    3.2115   -3.2568 H         1 RES1    0.0000
     17 C6         2.8822    3.7517   -1.3441 C.ar      1 RES1    0.0000
     18 C7         5.9011    5.5976   -1.1338 C.2       1 RES1    0.0000
     19 H6         6.1037    5.6424   -2.0401 H         1 RES1    0.0000
     20 C8         6.8025    6.1969   -0.1599 C.ar      1 RES1    0.0000
     21 C9         7.9074    6.9081   -0.6078 C.ar      1 RES1    0.0000
     22 H7         8.0753    6.9848   -1.5192 H         1 RES1    0.0000
     23 C10        8.7605    7.5051    0.3092 C.ar      1 RES1    0.0000
     24 C11        8.5499    7.4211    1.6730 C.ar      1 RES1    0.0000
     25 H8         9.1345    7.8303    2.2701 H         1 RES1    0.0000
     26 C12        7.4574    6.7195    2.1295 C.ar      1 RES1    0.0000
     27 H9         7.3052    6.6484    3.0441 H         1 RES1    0.0000
     28 C13        6.5745    6.1122    1.2319 C.ar      1 RES1    0.0000
     29 H10        4.3040    4.5069   -2.4783 H         1 RES1    0.0000
     30 H11        5.1124    5.1861    1.0350 H         1 RES1    0.0000
@<TRIPOS>BOND
     1    1   28 1
     2    2    6 2
     3    3    6 2
     4    4    5 1
     5    5   18 2
     6    6   23 1
     7    7    8 1
     8    9    7 ar
     9   10    9 1
    10   11    9 ar
    11   12   11 1
    12   13   11 ar
    13   14   13 1
    14   15   13 ar
    15   16   15 1
    16   17    4 1
    17   18   19 1
    18   20   18 1
    19   21   20 ar
    20   22   21 1
    21   23   21 ar
    22   24   23 ar
    23   25   24 1
    24   26   24 ar
    25   27   26 1
    26   28   20 ar
    27   29    4 1
    28   30    1 1
    29    7   17 ar
    30   15   17 ar
    31   26   28 ar
@<TRIPOS>SUBSTRUCTURE
     1 RES1 1

@<TRIPOS>CRYSIN
  12.9019    7.9909   12.5323  90.0000 113.4180  90.0000  14 1

