# MOL2 file generated by ConQuest
# Please check atom types

@<TRIPOS>MOLECULE
CIDQIP
    64    64     2
SMALL
NO_CHARGES
****
Generated from CSD

@<TRIPOS>ATOM
      1 N1         6.7720    4.4593   13.0073 N.am      1 RES1    0.0000
      2 H1         7.2850    4.2301   13.6630 H         1 RES1    0.0000
      3 N2         6.7645    1.6781   12.6358 N.3       1 RES1    0.0000
      4 H2         7.4700    2.1376   12.9872 H         1 RES1    0.0000
      5 N3         1.8972    4.4597   12.9081 N.pl3     1 RES1    0.0000
      6 O1         6.5627    5.6345   11.0853 O.2       1 RES1    0.0000
      7 O2         0.8451    3.8371   12.7148 O.2       1 RES1    0.0000
      8 O3         1.9141    5.6569   13.1627 O.2       1 RES1    0.0000
      9 C1         5.5426    3.7454   12.8920 C.ar      1 RES1    0.0000
     10 C2         5.5656    2.3301   12.7121 C.ar      1 RES1    0.0000
     11 C3         4.3285    1.6716   12.5944 C.ar      1 RES1    0.0000
     12 H3         4.3038    0.7170   12.4701 H         1 RES1    0.0000
     13 C4         3.1402    2.3620   12.6420 C.ar      1 RES1    0.0000
     14 H4         2.3306    1.8960   12.5429 H         1 RES1    0.0000
     15 C5         3.1518    3.7375   12.8404 C.ar      1 RES1    0.0000
     16 C6         4.3474    4.4266   12.9753 C.ar      1 RES1    0.0000
     17 H5         4.3571    5.3360   13.1010 H         1 RES1    0.0000
     18 C7         7.1755    5.3998   12.1302 C.2       1 RES1    0.0000
     19 C8         8.4193    6.1512   12.5019 C.3       1 RES1    0.0000
     20 H6         8.9849    6.2667   11.7176 H         1 RES1    0.0000
     21 H7         8.1443    7.0103   12.8550 H         1 RES1    0.0000
     22 H8         8.9298    5.7224   13.2253 H         1 RES1    0.0000
     23 C9         6.9093    0.2151   12.6764 C.3       1 RES1    0.0000
     24 H9         6.3751   -0.1474   13.4065 H         1 RES1    0.0000
     25 C10        6.4956   -0.4395   11.3685 C.3       1 RES1    0.0000
     26 H10        7.1699   -0.2921   10.6993 H         1 RES1    0.0000
     27 H11        5.6409   -0.1062   10.9902 H         1 RES1    0.0000
     28 H12        6.4979   -1.3941   11.5721 H         1 RES1    0.0000
     29 C11        8.3568   -0.1235   12.9965 C.3       1 RES1    0.0000
     30 H13        8.4717   -1.0754   13.1195 H         1 RES1    0.0000
     31 H14        8.8920    0.1460   12.2334 H         1 RES1    0.0000
     32 H15        8.6813    0.3186   13.8336 H         1 RES1    0.0000
     33 N4         4.1656    4.9749    9.7251 N.am      2 RES2    0.0000
     34 H16        4.8296    5.1103   10.2337 H         2 RES2    0.0000
     35 N5         4.7355    7.7024    9.8729 N.3       2 RES2    0.0000
     36 H17        5.3387    7.1165   10.0393 H         2 RES2    0.0000
     37 N6        -0.6003    6.0282    9.9560 N.pl3     2 RES2    0.0000
     38 O4         3.2241    3.5803    8.2072 O.2       2 RES2    0.0000
     39 O5        -1.4661    6.8115   10.3620 O.2       2 RES2    0.0000
     40 O6        -0.8667    4.9080    9.5222 O.2       2 RES2    0.0000
     41 C12        3.1040    5.9162    9.8413 C.ar      2 RES2    0.0000
     42 C13        3.4335    7.2970    9.9409 C.ar      2 RES2    0.0000
     43 C14        2.3773    8.2211   10.0605 C.ar      2 RES2    0.0000
     44 H18        2.5771    9.1160   10.1240 H         2 RES2    0.0000
     45 C15        1.0670    7.8055   10.0909 C.ar      2 RES2    0.0000
     46 H19        0.3644    8.4521   10.1544 H         2 RES2    0.0000
     47 C16        0.7783    6.4659    9.9600 C.ar      2 RES2    0.0000
     48 C17        1.7862    5.5113    9.8343 C.ar      2 RES2    0.0000
     49 H20        1.5686    4.5832    9.7378 H         2 RES2    0.0000
     50 C18        4.1720    3.8809    8.9429 C.2       2 RES2    0.0000
     51 C19        5.4127    3.0418    8.9985 C.3       2 RES2    0.0000
     52 H21        5.8049    2.9475    8.1468 H         2 RES2    0.0000
     53 H22        6.0674    3.3989    9.6148 H         2 RES2    0.0000
     54 H23        5.2210    2.1642    9.2180 H         2 RES2    0.0000
     55 C20        5.1627    9.1014    9.8330 C.3       2 RES2    0.0000
     56 H24        4.6666    9.5754   10.5260 H         2 RES2    0.0000
     57 C21        4.8723    9.7294    8.4734 C.3       2 RES2    0.0000
     58 H25        5.1424   10.7013    8.5171 H         2 RES2    0.0000
     59 H26        5.4587    9.2939    7.7897 H         2 RES2    0.0000
     60 H27        3.9331    9.6789    8.2394 H         2 RES2    0.0000
     61 C22        6.6475    9.1558   10.1597 C.3       2 RES2    0.0000
     62 H28        7.1244    8.6168    9.5090 H         2 RES2    0.0000
     63 H29        6.8426    8.8159   11.0696 H         2 RES2    0.0000
     64 H30        6.9862   10.0905   10.1041 H         2 RES2    0.0000
@<TRIPOS>BOND
     1    1    2 1
     2    3    4 1
     3    5    7 2
     4    6   18 2
     5    8    5 2
     6    9    1 1
     7   10    3 1
     8   11   10 ar
     9   12   11 1
    10   13   11 ar
    11   14   13 1
    12   15    5 1
    13   16    9 ar
    14   17   16 1
    15   18    1 1
    16   19   18 1
    17   20   19 1
    18   21   19 1
    19   22   19 1
    20   23    3 1
    21   24   23 1
    22   25   23 1
    23   26   25 1
    24   27   25 1
    25   28   25 1
    26   29   23 1
    27   30   29 1
    28   31   29 1
    29   32   29 1
    30   33   34 1
    31   35   36 1
    32   37   39 2
    33   38   50 2
    34   40   37 2
    35   41   33 1
    36   42   35 1
    37   43   42 ar
    38   44   43 1
    39   45   43 ar
    40   46   45 1
    41   47   37 1
    42   48   41 ar
    43   49   48 1
    44   50   33 1
    45   51   50 1
    46   52   51 1
    47   53   51 1
    48   54   51 1
    49   55   35 1
    50   56   55 1
    51   57   55 1
    52   58   57 1
    53   59   57 1
    54   60   57 1
    55   61   55 1
    56   62   61 1
    57   63   61 1
    58   64   61 1
    59    9   10 ar
    60   13   15 ar
    61   15   16 ar
    62   41   42 ar
    63   45   47 ar
    64   47   48 ar
@<TRIPOS>SUBSTRUCTURE
     1 RES1 1
     2 RES2 33

@<TRIPOS>CRYSIN
  13.4080   13.2770   13.5770  90.0000 103.0700  90.0000 231 1

