# MOL2 file generated by ConQuest
# Please check atom types

@<TRIPOS>MOLECULE
CIDQUE
    54    57     1
SMALL
NO_CHARGES
****
Generated from CSD

@<TRIPOS>ATOM
      1 O1        12.2148    2.7858   10.9815 O.3       1 RES1    0.0000
      2 O2        14.4519    1.9983    6.0308 O.3       1 RES1    0.0000
      3 O3        10.0000    3.0010    7.1098 O.2       1 RES1    0.0000
      4 N1        12.0119    3.4737    8.0211 N.am      1 RES1    0.0000
      5 N2        14.0252    2.8129    7.0920 N.2       1 RES1    0.0000
      6 C1        10.6430    3.5822    7.9628 C.2       1 RES1    0.0000
      7 C2         9.9607    4.4226    9.0028 C.3       1 RES1    0.0000
      8 H1        10.3175    5.3239    8.9713 H         1 RES1    0.0000
      9 H2        10.1485    4.0580    9.8823 H         1 RES1    0.0000
     10 C3        12.7263    2.7387    7.0710 C.2       1 RES1    0.0000
     11 C4        13.2170    3.2096   10.1581 C.2       1 RES1    0.0000
     12 C5        12.2715    1.8871    6.0395 C.2       1 RES1    0.0000
     13 H3        11.3922    1.6715    5.8272 H         1 RES1    0.0000
     14 C6        12.8241    4.1336    9.0695 C.3       1 RES1    0.0000
     15 H4        13.6253    4.5026    8.6635 H         1 RES1    0.0000
     16 H5        12.3169    4.8690    9.4464 H         1 RES1    0.0000
     17 C7        13.3835    1.4598    5.4386 C.2       1 RES1    0.0000
     18 C8        14.3686    2.6720   10.5691 C.2       1 RES1    0.0000
     19 H6        15.2035    2.8000   10.1794 H         1 RES1    0.0000
     20 C9        12.8106    1.9761   11.9089 C.2       1 RES1    0.0000
     21 H7        12.3598    1.5492   12.6028 H         1 RES1    0.0000
     22 C10       14.0939    1.8827   11.6918 C.2       1 RES1    0.0000
     23 H8        14.7082    1.3873   12.1847 H         1 RES1    0.0000
     24 C11       13.6510    0.5718    4.2698 C.3       1 RES1    0.0000
     25 H9        14.5987    0.4971    4.1351 H         1 RES1    0.0000
     26 H10       13.2828   -0.2984    4.4376 H         1 RES1    0.0000
     27 H11       13.2433    0.9449    3.4839 H         1 RES1    0.0000
     28 O1D        6.2150    6.1074    6.8116 O.3       1 RES1    0.0000
     29 O2D        3.9779    6.8949   11.7623 O.3       1 RES1    0.0000
     30 O3D        8.4298    5.8922   10.6833 O.2       1 RES1    0.0000
     31 N1D        6.4179    5.4195    9.7720 N.am      1 RES1    0.0000
     32 N2D        4.4046    6.0803   10.7011 N.2       1 RES1    0.0000
     33 C1D        7.7868    5.3110    9.8303 C.2       1 RES1    0.0000
     34 C2D        8.4691    4.4706    8.7903 C.3       1 RES1    0.0000
     35 H1D        8.1123    3.5693    8.8218 H         1 RES1    0.0000
     36 H2D        8.2813    4.8352    7.9108 H         1 RES1    0.0000
     37 C3D        5.7035    6.1545   10.7221 C.2       1 RES1    0.0000
     38 C4D        5.2128    5.6836    7.6350 C.2       1 RES1    0.0000
     39 C5D        6.1583    7.0061   11.7536 C.2       1 RES1    0.0000
     40 H3D        7.0376    7.2217   11.9659 H         1 RES1    0.0000
     41 C6D        5.6057    4.7596    8.7236 C.3       1 RES1    0.0000
     42 H4D        4.8045    4.3906    9.1296 H         1 RES1    0.0000
     43 H5D        6.1129    4.0242    8.3467 H         1 RES1    0.0000
     44 C7D        5.0463    7.4334   12.3545 C.2       1 RES1    0.0000
     45 C8D        4.0612    6.2212    7.2240 C.2       1 RES1    0.0000
     46 H6D        3.2263    6.0932    7.6137 H         1 RES1    0.0000
     47 C9D        5.6192    6.9171    5.8842 C.2       1 RES1    0.0000
     48 H7D        6.0700    7.3440    5.1902 H         1 RES1    0.0000
     49 C10D       4.3359    7.0105    6.1013 C.2       1 RES1    0.0000
     50 H8D        3.7216    7.5059    5.6084 H         1 RES1    0.0000
     51 C11D       4.7788    8.3214   13.5233 C.3       1 RES1    0.0000
     52 H9D        3.8311    8.3961   13.6580 H         1 RES1    0.0000
     53 H10D       5.1470    9.1916   13.3555 H         1 RES1    0.0000
     54 H11D       5.1865    7.9483   14.3092 H         1 RES1    0.0000
@<TRIPOS>BOND
     1    1   11 1
     2    2    5 1
     3    3    6 2
     4    4    6 1
     5    5   10 2
     6    6    7 1
     7    7    8 1
     8    9    7 1
     9   10    4 1
    10   11   14 1
    11   12   10 1
    12   13   12 1
    13   14    4 1
    14   15   14 1
    15   16   14 1
    16   17    2 1
    17   18   11 2
    18   19   18 1
    19   20    1 1
    20   21   20 1
    21   22   18 1
    22   23   22 1
    23   24   17 1
    24   25   24 1
    25   26   24 1
    26   27   24 1
    27   28   38 1
    28   29   32 1
    29   30   33 2
    30   31   33 1
    31   32   37 2
    32   33   34 1
    33   34    7 1
    34   35   34 1
    35   36   34 1
    36   37   31 1
    37   38   41 1
    38   39   37 1
    39   40   39 1
    40   41   31 1
    41   42   41 1
    42   43   41 1
    43   44   29 1
    44   45   38 2
    45   46   45 1
    46   47   28 1
    47   48   47 1
    48   49   45 1
    49   50   49 1
    50   51   44 1
    51   52   51 1
    52   53   51 1
    53   54   51 1
    54   12   17 2
    55   20   22 2
    56   39   44 2
    57   47   49 2
@<TRIPOS>SUBSTRUCTURE
     1 RES1 1

@<TRIPOS>CRYSIN
  26.4910    4.4466   19.5340  90.0000 114.3730  90.0000  15 1

