# MOL2 file generated by ConQuest
# Please check atom types

@<TRIPOS>MOLECULE
CIDSIR
    42    44     1
SMALL
NO_CHARGES
****
Generated from CSD

@<TRIPOS>ATOM
      1 N1         8.5730   -0.4740    1.1120 N.am      1 RES1    0.0000
      2 O1         8.8712    0.0540    2.4090 O.3       1 RES1    0.0000
      3 C1         8.0955    1.1575    2.7399 C.2       1 RES1    0.0000
      4 O2         7.2714    1.6268    2.0219 O.2       1 RES1    0.0000
      5 C2         8.4940    1.6451    4.0838 C.ar      1 RES1    0.0000
      6 C3         9.3075    0.9140    4.9357 C.ar      1 RES1    0.0000
      7 C4         9.6785    1.4324    6.1569 C.ar      1 RES1    0.0000
      8 C5         9.2482    2.6932    6.5236 C.ar      1 RES1    0.0000
      9 C6         8.4217    3.4138    5.7058 C.ar      1 RES1    0.0000
     10 C7         8.0402    2.9014    4.4897 C.ar      1 RES1    0.0000
     11 C8         9.2034    0.2428    0.1023 C.2       1 RES1    0.0000
     12 O3         9.8513    1.2446    0.3275 O.2       1 RES1    0.0000
     13 C9         8.9312   -0.2512   -1.2723 C.ar      1 RES1    0.0000
     14 C10        9.9400   -0.1402   -2.2172 C.ar      1 RES1    0.0000
     15 C11        9.7087   -0.5356   -3.5159 C.ar      1 RES1    0.0000
     16 C12        8.4777   -1.0188   -3.8766 C.ar      1 RES1    0.0000
     17 C13        7.4649   -1.1111   -2.9625 C.ar      1 RES1    0.0000
     18 C14        7.6839   -0.7366   -1.6509 C.ar      1 RES1    0.0000
     19 C15        8.5986   -1.9239    1.1785 C.ar      1 RES1    0.0000
     20 C16        9.7835   -2.5996    0.8690 C.ar      1 RES1    0.0000
     21 C17        9.8407   -3.9691    0.9926 C.ar      1 RES1    0.0000
     22 C18        8.7314   -4.6558    1.4267 C.ar      1 RES1    0.0000
     23 C19        7.5871   -4.0043    1.7243 C.ar      1 RES1    0.0000
     24 C20        7.4782   -2.6059    1.6117 C.ar      1 RES1    0.0000
     25 C21        6.2201   -1.9045    1.9110 C.3       1 RES1    0.0000
     26 H1        10.8228    0.2092   -1.9357 H         1 RES1    0.0000
     27 H2         6.7681   -4.3816    1.9699 H         1 RES1    0.0000
     28 H3        10.5306   -2.1444    0.6055 H         1 RES1    0.0000
     29 H4         8.8210   -5.6615    1.5094 H         1 RES1    0.0000
     30 H5         6.5911   -1.3929   -3.1893 H         1 RES1    0.0000
     31 H6         6.9797   -0.8061   -0.9977 H         1 RES1    0.0000
     32 H7        10.4203   -0.4766   -4.1273 H         1 RES1    0.0000
     33 H8         9.6424    0.0889    4.6816 H         1 RES1    0.0000
     34 H9         7.5190    3.3787    3.9056 H         1 RES1    0.0000
     35 H10        8.3620   -1.2653   -4.6901 H         1 RES1    0.0000
     36 H11       10.2523    0.9427    6.7282 H         1 RES1    0.0000
     37 H12        9.5195    3.0087    7.2910 H         1 RES1    0.0000
     38 H13        8.1500    4.2627    5.9778 H         1 RES1    0.0000
     39 H14       10.6732   -4.4643    0.7589 H         1 RES1    0.0000
     40 H15        6.0404   -1.0498    1.5605 H         1 RES1    0.0000
     41 H16        5.6294   -2.5412    2.0637 H         1 RES1    0.0000
     42 H17        6.2228   -1.4365    2.6606 H         1 RES1    0.0000
@<TRIPOS>BOND
     1    1    2 1
     2    2    3 1
     3    3    4 2
     4    5    3 1
     5    6    5 ar
     6    7    6 ar
     7    8    7 ar
     8    9    8 ar
     9   10    5 ar
    10   11    1 1
    11   12   11 2
    12   13   11 1
    13   14   13 ar
    14   15   14 ar
    15   16   15 ar
    16   17   16 ar
    17   18   13 ar
    18   19    1 1
    19   20   19 ar
    20   21   20 ar
    21   22   21 ar
    22   23   22 ar
    23   24   19 ar
    24   25   24 1
    25   26   14 1
    26   27   23 1
    27   28   20 1
    28   29   22 1
    29   30   17 1
    30   31   18 1
    31   32   15 1
    32   33    6 1
    33   34   10 1
    34   35   16 1
    35   36    7 1
    36   37    8 1
    37   38    9 1
    38   39   21 1
    39   40   25 1
    40   41   25 1
    41   42   25 1
    42    9   10 ar
    43   17   18 ar
    44   23   24 ar
@<TRIPOS>SUBSTRUCTURE
     1 RES1 1

@<TRIPOS>CRYSIN
  11.2680    9.7900    8.8010 104.3000  83.7100 113.2500   2 1

