# MOL2 file generated by ConQuest
# Please check atom types

@<TRIPOS>MOLECULE
CIDTUE
    48    62     2
SMALL
NO_CHARGES
****
Generated from CSD

@<TRIPOS>ATOM
      1 C1        -0.6912    7.5755    3.7037 C.3       1 RES1    0.0000
      2 C2         0.7131    7.4137    4.1508 C.3       1 RES1    0.0000
      3 C3         1.0005    8.5708    5.1356 C.3       1 RES1    0.0000
      4 C4         2.4546    8.6668    5.5890 C.3       1 RES1    0.0000
      5 C5         3.3050    8.9869    4.3528 C.3       1 RES1    0.0000
      6 C6         2.4413    8.8860    3.0896 C.3       1 RES1    0.0000
      7 C7         1.7266    7.5829    2.9337 C.3       1 RES1    0.0000
      8 C8         0.8766    7.9518    1.6737 C.3       1 RES1    0.0000
      9 N1        -0.2225    7.0465    1.4000 N.am      1 RES1    0.0000
     10 C9        -0.1479    5.9372    0.6221 C.2       1 RES1    0.0000
     11 N2        -0.9240    4.9784    1.2393 N.am      1 RES1    0.0000
     12 C10       -1.3709    5.4386    2.4580 C.2       1 RES1    0.0000
     13 N3        -0.9977    6.7292    2.5264 N.am      1 RES1    0.0000
     14 C11       -0.8606    9.0114    3.1564 C.3       1 RES1    0.0000
     15 O1        -0.6378    9.9288    4.2096 O.3       1 RES1    0.0000
     16 N4         0.7285    9.8709    4.4721 N.3       1 RES1    0.0000
     17 N5         1.3324    9.8716    3.1135 N.3       1 RES1    0.0000
     18 C12        0.3289    9.2816    2.1907 C.3       1 RES1    0.0000
     19 C13        1.0359    6.0340    4.6965 C.3       1 RES1    0.0000
     20 O2         1.6252    5.3324    3.5876 O.3       1 RES1    0.0000
     21 C14        2.4336    6.2741    2.8764 C.3       1 RES1    0.0000
     22 O3         0.4390    5.8151   -0.4502 O.2       1 RES1    0.0000
     23 C15       -1.2301    3.6581    0.6809 C.3       1 RES1    0.0000
     24 O4        -2.0344    4.7977    3.2917 O.2       1 RES1    0.0000
     25 C16        0.0430    5.6536   12.5398 C.3       2 RES2    0.0000
     26 C17        1.1958    6.1297   11.5853 C.3       2 RES2    0.0000
     27 C18        0.7640    5.6373   10.1932 C.3       2 RES2    0.0000
     28 C19        1.7410    6.1178    9.0748 C.3       2 RES2    0.0000
     29 C20        1.6108    7.6916    8.9904 C.3       2 RES2    0.0000
     30 C21        0.8242    8.1843   10.1948 C.3       2 RES2    0.0000
     31 C22        1.2725    7.6884   11.5678 C.3       2 RES2    0.0000
     32 C23        0.1438    8.2443   12.4444 C.3       2 RES2    0.0000
     33 N6         0.1774    7.6908   13.7903 N.am      2 RES2    0.0000
     34 C24        0.9467    8.1448   14.8372 C.2       2 RES2    0.0000
     35 N7         1.2579    7.0192   15.5674 N.am      2 RES2    0.0000
     36 C25        0.8763    5.8707   14.9215 C.2       2 RES2    0.0000
     37 N8         0.1508    6.2862   13.8317 N.am      2 RES2    0.0000
     38 C26       -1.2465    6.2461   11.9273 C.3       2 RES2    0.0000
     39 O5        -1.5154    5.7091   10.6434 O.3       2 RES2    0.0000
     40 N9        -0.5394    6.2634    9.8432 N.3       2 RES2    0.0000
     41 N10       -0.5983    7.6913   10.1614 N.3       2 RES2    0.0000
     42 C27       -1.0256    7.7615   11.5996 C.3       2 RES2    0.0000
     43 C28        2.5642    5.6989   12.1087 C.3       2 RES2    0.0000
     44 O6         3.0864    6.8334   12.8055 O.3       2 RES2    0.0000
     45 C29        2.7095    7.9672   12.0419 C.3       2 RES2    0.0000
     46 O7         1.2601    9.3066   15.0726 O.2       2 RES2    0.0000
     47 C30        2.0098    7.0323   16.8067 C.3       2 RES2    0.0000
     48 O8         1.1118    4.7169   15.2588 O.2       2 RES2    0.0000
@<TRIPOS>BOND
     1    1    2 1
     2    2    3 1
     3    3    4 1
     4    4    5 1
     5    5    6 1
     6    6    7 1
     7    7    2 1
     8    8    7 1
     9    9    8 1
    10   10    9 1
    11   11   10 1
    12   12   11 1
    13   13    1 1
    14   14    1 1
    15   15   14 1
    16   16    3 1
    17   17    6 1
    18   18    8 1
    19   19    2 1
    20   20   19 1
    21   21    7 1
    22   22   10 2
    23   23   11 1
    24   24   12 2
    25   25   26 1
    26   26   27 1
    27   27   28 1
    28   28   29 1
    29   29   30 1
    30   30   31 1
    31   31   26 1
    32   32   31 1
    33   33   32 1
    34   34   33 1
    35   35   34 1
    36   36   35 1
    37   37   25 1
    38   38   25 1
    39   39   38 1
    40   40   27 1
    41   41   30 1
    42   42   32 1
    43   43   26 1
    44   44   43 1
    45   45   31 1
    46   46   34 2
    47   47   35 1
    48   48   36 2
    49    9   13 1
    50   12   13 1
    51   14   18 1
    52   15   16 1
    53   16   17 1
    54   17   18 1
    55   20   21 1
    56   33   37 1
    57   36   37 1
    58   38   42 1
    59   39   40 1
    60   40   41 1
    61   41   42 1
    62   44   45 1
@<TRIPOS>SUBSTRUCTURE
     1 RES1 1
     2 RES2 25

@<TRIPOS>CRYSIN
   7.5860   13.6520   16.7610 106.7400  93.1400 103.7300   2 1

