# MOL2 file generated by ConQuest
# Please check atom types

@<TRIPOS>MOLECULE
CIDTUE01
    82    96     2
SMALL
NO_CHARGES
****
Generated from CSD

@<TRIPOS>ATOM
      1 C1        -0.7220    7.5763    3.6718 C.3       1 RES1    0.0000
      2 H1        -1.3585    7.4092    4.3989 H         1 RES1    0.0000
      3 C2         0.7108    7.4155    4.1523 C.3       1 RES1    0.0000
      4 C3         1.0138    8.5774    5.1466 C.3       1 RES1    0.0000
      5 H2         0.4377    8.4834    5.9341 H         1 RES1    0.0000
      6 C4         2.4186    8.6547    5.5841 C.3       1 RES1    0.0000
      7 H3         2.6942    7.8043    5.9627 H         1 RES1    0.0000
      8 H4         2.5152    9.3376    6.2666 H         1 RES1    0.0000
      9 C5         3.3074    8.9998    4.3607 C.3       1 RES1    0.0000
     10 H5         3.6517    9.9038    4.4434 H         1 RES1    0.0000
     11 H6         4.0583    8.3892    4.3098 H         1 RES1    0.0000
     12 C6         2.4547    8.8820    3.1134 C.3       1 RES1    0.0000
     13 H7         3.0226    9.0272    2.3275 H         1 RES1    0.0000
     14 C7         1.6936    7.5747    2.9336 C.3       1 RES1    0.0000
     15 C8         0.8666    7.9656    1.6880 C.3       1 RES1    0.0000
     16 H8         1.4436    8.0981    0.9084 H         1 RES1    0.0000
     17 N1        -0.2197    7.0314    1.3889 N.am      1 RES1    0.0000
     18 C9        -0.1491    5.9244    0.5918 C.2       1 RES1    0.0000
     19 N2        -0.9345    4.9730    1.2473 N.am      1 RES1    0.0000
     20 C10       -1.3759    5.4206    2.4595 C.2       1 RES1    0.0000
     21 N3        -0.9909    6.7227    2.5375 N.am      1 RES1    0.0000
     22 C11       -0.8576    9.0116    3.1389 C.3       1 RES1    0.0000
     23 H9        -1.7222    9.1502    2.6982 H         1 RES1    0.0000
     24 O1        -0.6664    9.9309    4.2143 O.3       1 RES1    0.0000
     25 N4         0.7334    9.8829    4.4911 N.3       1 RES1    0.0000
     26 N5         1.3440    9.8818    3.0975 N.3       1 RES1    0.0000
     27 C12        0.3002    9.2917    2.1875 C.3       1 RES1    0.0000
     28 H10        0.0514    9.8949    1.4573 H         1 RES1    0.0000
     29 C13        1.0353    6.0330    4.6900 C.3       1 RES1    0.0000
     30 H11        1.4511    6.1032    5.5634 H         1 RES1    0.0000
     31 H12        0.2238    5.5090    4.7759 H         1 RES1    0.0000
     32 O2         1.8765    5.4480    3.8214 O.3       1 RES1    0.0000
     33 C14        2.4449    6.2431    2.8811 C.3       1 RES1    0.0000
     34 H13        2.3626    5.8416    2.0030 H         1 RES1    0.0000
     35 H14        3.3864    6.3760    3.0752 H         1 RES1    0.0000
     36 O3         0.4232    5.8015   -0.4614 O.2       1 RES1    0.0000
     37 C15       -1.2506    3.6569    0.7048 C.3       1 RES1    0.0000
     38 H15       -0.8397    3.5592   -0.1575 H         1 RES1    0.0000
     39 H16       -2.2029    3.5674    0.6173 H         1 RES1    0.0000
     40 H17       -0.9184    2.9796    1.2966 H         1 RES1    0.0000
     41 O4        -2.0235    4.7869    3.2916 O.2       1 RES1    0.0000
     42 C16        0.0562    5.6728   12.5348 C.3       2 RES2    0.0000
     43 H18        0.0117    4.6956   12.6032 H         2 RES2    0.0000
     44 C17        1.1949    6.1135   11.5914 C.3       2 RES2    0.0000
     45 C18        0.7645    5.6450   10.1914 C.3       2 RES2    0.0000
     46 H19        0.7026    4.6672   10.1723 H         2 RES2    0.0000
     47 C19        1.7263    6.1260    9.1000 C.3       2 RES2    0.0000
     48 H20        1.4877    5.7326    8.2457 H         2 RES2    0.0000
     49 H21        2.6351    5.8644    9.3164 H         2 RES2    0.0000
     50 C20        1.6163    7.6719    9.0284 C.3       2 RES2    0.0000
     51 H22        2.5032    8.0653    9.0459 H         2 RES2    0.0000
     52 H23        1.1869    7.9311    8.1980 H         2 RES2    0.0000
     53 C21        0.8192    8.1721   10.1850 C.3       2 RES2    0.0000
     54 H24        0.8196    9.1518   10.1739 H         2 RES2    0.0000
     55 C22        1.2815    7.6911   11.5564 C.3       2 RES2    0.0000
     56 C23        0.1653    8.2306   12.4425 C.3       2 RES2    0.0000
     57 H25        0.1859    9.2105   12.4552 H         2 RES2    0.0000
     58 N6         0.1691    7.7058   13.8059 N.am      2 RES2    0.0000
     59 C24        0.9475    8.1462   14.8209 C.2       2 RES2    0.0000
     60 N7         1.2663    7.0223   15.5702 N.am      2 RES2    0.0000
     61 C25        0.8951    5.8706   14.9100 C.2       2 RES2    0.0000
     62 N8         0.1415    6.2823   13.8441 N.am      2 RES2    0.0000
     63 C26       -1.2352    6.2473   11.9127 C.3       2 RES2    0.0000
     64 H26       -1.9892    6.1000   12.5221 H         2 RES2    0.0000
     65 O5        -1.5351    5.7120   10.6480 O.3       2 RES2    0.0000
     66 N9        -0.5506    6.2356    9.8732 N.3       2 RES2    0.0000
     67 N10       -0.5829    7.6883   10.1802 N.3       2 RES2    0.0000
     68 C27       -1.0523    7.7378   11.6693 C.3       2 RES2    0.0000
     69 H27       -1.8617    8.2690   11.8173 H         2 RES2    0.0000
     70 C28        2.5681    5.6867   12.1227 C.3       2 RES2    0.0000
     71 H28        2.4816    4.9357   12.7289 H         2 RES2    0.0000
     72 H29        3.1549    5.4344   11.3925 H         2 RES2    0.0000
     73 O6         3.0834    6.8404   12.8132 O.3       2 RES2    0.0000
     74 C29        2.7224    7.9605   12.0352 C.3       2 RES2    0.0000
     75 H30        3.3209    8.0579   11.2780 H         2 RES2    0.0000
     76 H31        2.7592    8.7705   12.5682 H         2 RES2    0.0000
     77 O7         1.2602    9.2988   15.0723 O.2       2 RES2    0.0000
     78 C30        2.0167    7.0518   16.8080 C.3       2 RES2    0.0000
     79 H32        2.1571    7.9631   17.0752 H         2 RES2    0.0000
     80 H33        2.8647    6.6217   16.6791 H         2 RES2    0.0000
     81 H34        1.5244    6.5902   17.4905 H         2 RES2    0.0000
     82 O8         1.1219    4.7197   15.2505 O.2       2 RES2    0.0000
@<TRIPOS>BOND
     1    1    2 1
     2    3    1 1
     3    4    3 1
     4    5    4 1
     5    6    4 1
     6    7    6 1
     7    8    6 1
     8    9    6 1
     9   10    9 1
    10   11    9 1
    11   12    9 1
    12   13   12 1
    13   14    3 1
    14   15   14 1
    15   16   15 1
    16   17   15 1
    17   18   17 1
    18   19   18 1
    19   20   19 1
    20   21    1 1
    21   22    1 1
    22   23   22 1
    23   24   22 1
    24   25    4 1
    25   26   12 1
    26   27   15 1
    27   28   27 1
    28   29    3 1
    29   30   29 1
    30   31   29 1
    31   32   29 1
    32   33   14 1
    33   34   33 1
    34   35   33 1
    35   36   18 2
    36   37   19 1
    37   38   37 1
    38   39   37 1
    39   40   37 1
    40   41   20 2
    41   42   43 1
    42   44   42 1
    43   45   44 1
    44   46   45 1
    45   47   45 1
    46   48   47 1
    47   49   47 1
    48   50   47 1
    49   51   50 1
    50   52   50 1
    51   53   50 1
    52   54   53 1
    53   55   44 1
    54   56   55 1
    55   57   56 1
    56   58   56 1
    57   59   58 1
    58   60   59 1
    59   61   60 1
    60   62   42 1
    61   63   42 1
    62   64   63 1
    63   65   63 1
    64   66   45 1
    65   67   53 1
    66   68   56 1
    67   69   68 1
    68   70   44 1
    69   71   70 1
    70   72   70 1
    71   73   70 1
    72   74   55 1
    73   75   74 1
    74   76   74 1
    75   77   59 2
    76   78   60 1
    77   79   78 1
    78   80   78 1
    79   81   78 1
    80   82   61 2
    81   12   14 1
    82   17   21 1
    83   20   21 1
    84   22   27 1
    85   24   25 1
    86   25   26 1
    87   26   27 1
    88   32   33 1
    89   53   55 1
    90   58   62 1
    91   61   62 1
    92   63   68 1
    93   65   66 1
    94   66   67 1
    95   67   68 1
    96   73   74 1
@<TRIPOS>SUBSTRUCTURE
     1 RES1 1
     2 RES2 42

@<TRIPOS>CRYSIN
   7.5860   13.6520   16.7610 106.7440  93.1390 103.7310   2 1

