# MOL2 file generated by ConQuest
# Please check atom types

@<TRIPOS>MOLECULE
CIDVIX
    53    57     1
SMALL
NO_CHARGES
****
Generated from CSD

@<TRIPOS>ATOM
      1 O1         5.0094    6.7974   15.6128 O.3       1 RES1    0.0000
      2 O2         6.9554    4.2486   14.0898 O.3       1 RES1    0.0000
      3 O3         6.8566    4.1154   16.9528 O.2       1 RES1    0.0000
      4 N1         6.1689    5.0006   14.9528 N.am      1 RES1    0.0000
      5 C1         5.3725    6.0925   14.4306 C.3       1 RES1    0.0000
      6 C2         5.6286    6.7754   13.1743 C.2       1 RES1    0.0000
      7 C3         6.5710    7.6266   12.4874 C.ar      1 RES1    0.0000
      8 C4         7.6421    8.1568   13.2011 C.ar      1 RES1    0.0000
      9 H1         7.7286    7.9697   14.1281 H         1 RES1    0.0000
     10 C5         8.5841    8.9548   12.5713 C.ar      1 RES1    0.0000
     11 H2         9.3127    9.3129   13.0640 H         1 RES1    0.0000
     12 C6         8.4554    9.2251   11.2242 C.ar      1 RES1    0.0000
     13 H3         9.0950    9.7796   10.7932 H         1 RES1    0.0000
     14 C7         7.4024    8.6943   10.4932 C.ar      1 RES1    0.0000
     15 H4         7.3271    8.8740    9.5633 H         1 RES1    0.0000
     16 C8         6.4615    7.9030   11.1265 C.ar      1 RES1    0.0000
     17 H5         5.7347    7.5454   10.6293 H         1 RES1    0.0000
     18 C9         4.5120    6.0640   13.2456 C.2       1 RES1    0.0000
     19 C10        3.2124    5.7142   12.6889 C.ar      1 RES1    0.0000
     20 C11        2.6390    6.5125   11.7096 C.ar      1 RES1    0.0000
     21 H6         3.1242    7.2471   11.3522 H         1 RES1    0.0000
     22 C12        1.3645    6.2403   11.2555 C.ar      1 RES1    0.0000
     23 H7         0.9712    6.7974   10.5946 H         1 RES1    0.0000
     24 C13        0.6597    5.1678   11.7543 C.ar      1 RES1    0.0000
     25 H8        -0.2169    4.9850   11.4370 H         1 RES1    0.0000
     26 C14        1.2276    4.3619   12.7114 C.ar      1 RES1    0.0000
     27 H9         0.7480    3.6139   13.0467 H         1 RES1    0.0000
     28 C15        2.4957    4.6369   13.1884 C.ar      1 RES1    0.0000
     29 H10        2.8779    4.0855   13.8602 H         1 RES1    0.0000
     30 C16        5.2206    5.9557   16.7752 C.3       1 RES1    0.0000
     31 C17        6.2067    4.9080   16.2815 C.2       1 RES1    0.0000
     32 C18        5.7889    6.8105   17.8819 C.3       1 RES1    0.0000
     33 H11        6.6021    7.2568   17.5652 H         1 RES1    0.0000
     34 H12        6.0057    6.2458   18.6524 H         1 RES1    0.0000
     35 H13        5.1282    7.4847   18.1454 H         1 RES1    0.0000
     36 C19        3.9254    5.2620   17.1758 C.3       1 RES1    0.0000
     37 H14        3.2749    5.9318   17.4746 H         1 RES1    0.0000
     38 H15        4.1037    4.6334   17.9064 H         1 RES1    0.0000
     39 H16        3.5643    4.7752   16.4067 H         1 RES1    0.0000
     40 C20        6.2695    3.0003   13.7792 C.3       1 RES1    0.0000
     41 H17        5.3772    3.1835   13.3898 H         1 RES1    0.0000
     42 H18        6.1518    2.4561   14.5985 H         1 RES1    0.0000
     43 C21        7.1341    2.2812   12.7926 C.ar      1 RES1    0.0000
     44 C22        7.0790    2.6010   11.4498 C.ar      1 RES1    0.0000
     45 H19        6.4881    3.2841   11.1537 H         1 RES1    0.0000
     46 C23        7.8747    1.9360   10.5283 C.ar      1 RES1    0.0000
     47 H20        7.8251    2.1579    9.6057 H         1 RES1    0.0000
     48 C24        8.7311    0.9614   10.9586 C.ar      1 RES1    0.0000
     49 H21        9.2861    0.5116   10.3325 H         1 RES1    0.0000
     50 C25        8.7954    0.6243   12.2972 C.ar      1 RES1    0.0000
     51 H22        9.3853   -0.0618   12.5860 H         1 RES1    0.0000
     52 C26        7.9978    1.2913   13.2215 C.ar      1 RES1    0.0000
     53 H23        8.0465    1.0668   14.1435 H         1 RES1    0.0000
@<TRIPOS>BOND
     1    1    5 1
     2    2    4 1
     3    3   31 2
     4    4    5 1
     5    5    6 1
     6    6    7 1
     7    7    8 ar
     8    8    9 1
     9   10    8 ar
    10   11   10 1
    11   12   10 ar
    12   13   12 1
    13   14   12 ar
    14   15   14 1
    15   16    7 ar
    16   17   16 1
    17   18    5 1
    18   19   18 1
    19   20   19 ar
    20   21   20 1
    21   22   20 ar
    22   23   22 1
    23   24   22 ar
    24   25   24 1
    25   26   24 ar
    26   27   26 1
    27   28   19 ar
    28   29   28 1
    29   30    1 1
    30   31    4 1
    31   32   30 1
    32   33   32 1
    33   34   32 1
    34   35   32 1
    35   36   30 1
    36   37   36 1
    37   38   36 1
    38   39   36 1
    39   40    2 1
    40   41   40 1
    41   42   40 1
    42   43   40 1
    43   44   43 ar
    44   45   44 1
    45   46   44 ar
    46   47   46 1
    47   48   46 ar
    48   49   48 1
    49   50   48 ar
    50   51   50 1
    51   52   43 ar
    52   53   52 1
    53    6   18 2
    54   14   16 ar
    55   26   28 ar
    56   30   31 1
    57   50   52 ar
@<TRIPOS>SUBSTRUCTURE
     1 RES1 1

@<TRIPOS>CRYSIN
   9.1887   12.1230   19.2770  90.0000  90.0000  90.0000  19 1

