# MOL2 file generated by ConQuest
# Please check atom types

@<TRIPOS>MOLECULE
CIFKEI
   103   110     1
SMALL
NO_CHARGES
****
Generated from CSD

@<TRIPOS>ATOM
      1 O1         8.4208   10.7753    7.1550 O.3       1 RES1    0.0000
      2 O2         6.9182    9.1948    6.3156 O.3       1 RES1    0.0000
      3 O3         6.2221   12.6188    2.2500 O.3       1 RES1    0.0000
      4 O4         8.3546   12.1431    1.7315 O.2       1 RES1    0.0000
      5 O5         2.4979    6.3133   -3.0484 O.3       1 RES1    0.0000
      6 O6         4.2462    5.5255   -4.2019 O.2       1 RES1    0.0000
      7 O7         7.7080   19.3079    1.9642 O.2       1 RES1    0.0000
      8 O8         9.6852   18.8439    1.1865 O.2       1 RES1    0.0000
      9 O9        -1.6512    5.4040   -8.3817 O.2       1 RES1    0.0000
     10 O10       -0.1011    4.4632   -9.4904 O.2       1 RES1    0.0000
     11 N1         8.5755   18.5415    1.6006 N.pl3     1 RES1    0.0000
     12 N2        -0.4987    5.0263   -8.4859 N.pl3     1 RES1    0.0000
     13 C1         9.0406   10.0950    8.2838 C.3       1 RES1    0.0000
     14 C2         7.9329    9.4819    9.1152 C.3       1 RES1    0.0000
     15 H1         8.0273    9.7195   10.0719 H         1 RES1    0.0000
     16 H2         7.9202    8.4953    9.0253 H         1 RES1    0.0000
     17 C3         6.6866   10.1078    8.5116 C.3       1 RES1    0.0000
     18 H3         5.9236    9.4776    8.5556 H         1 RES1    0.0000
     19 H4         6.4436   10.9374    8.9931 H         1 RES1    0.0000
     20 C4         7.0494   10.4048    7.0860 C.3       1 RES1    0.0000
     21 C5         6.2442   11.4239    6.2758 C.3       1 RES1    0.0000
     22 H5         5.2703   11.2747    6.4462 H         1 RES1    0.0000
     23 C6         6.5634   11.0193    4.8162 C.3       1 RES1    0.0000
     24 H6         7.2870   11.6078    4.4549 H         1 RES1    0.0000
     25 C7         5.3694   10.9893    3.8232 C.3       1 RES1    0.0000
     26 C8         5.9162   11.1811    2.4033 C.3       1 RES1    0.0000
     27 H7         6.7622   10.6573    2.3080 H         1 RES1    0.0000
     28 C9         4.9758   10.8111    1.2726 C.3       1 RES1    0.0000
     29 H8         5.4155   10.9840    0.4026 H         1 RES1    0.0000
     30 H9         4.1592   11.3681    1.3231 H         1 RES1    0.0000
     31 C10        4.5889    9.3039    1.3738 C.3       1 RES1    0.0000
     32 H10        5.4403    8.7796    1.3553 H         1 RES1    0.0000
     33 C11        3.7161    8.7949    0.1994 C.3       1 RES1    0.0000
     34 C12        4.5555    8.8307   -1.0992 C.3       1 RES1    0.0000
     35 H11        4.7676    9.7726   -1.3204 H         1 RES1    0.0000
     36 H12        5.4102    8.3553   -0.9447 H         1 RES1    0.0000
     37 C13        3.8346    8.1876   -2.2913 C.3       1 RES1    0.0000
     38 H13        3.0394    8.7287   -2.5254 H         1 RES1    0.0000
     39 H14        4.4397    8.1813   -3.0755 H         1 RES1    0.0000
     40 C14        3.4056    6.7822   -1.9819 C.3       1 RES1    0.0000
     41 H15        4.2054    6.1848   -1.9269 H         1 RES1    0.0000
     42 C15        2.5863    6.6764   -0.6967 C.3       1 RES1    0.0000
     43 H16        2.3949    5.7243   -0.4992 H         1 RES1    0.0000
     44 H17        1.7235    7.1480   -0.8105 H         1 RES1    0.0000
     45 C16        3.3701    7.3016    0.4710 C.3       1 RES1    0.0000
     46 H18        4.2402    6.8107    0.5287 H         1 RES1    0.0000
     47 C17        2.6639    7.0971    1.8051 C.3       1 RES1    0.0000
     48 H19        2.4792    6.1317    1.9376 H         1 RES1    0.0000
     49 H20        1.7992    7.5766    1.7981 H         1 RES1    0.0000
     50 C18        3.5300    7.6141    2.9588 C.3       1 RES1    0.0000
     51 H21        3.0260    7.5299    3.8082 H         1 RES1    0.0000
     52 H22        4.3440    7.0547    3.0326 H         1 RES1    0.0000
     53 C19        3.9357    9.0650    2.7580 C.3       1 RES1    0.0000
     54 H23        3.1097    9.6262    2.8098 H         1 RES1    0.0000
     55 C20        4.8888    9.4969    3.9182 C.3       1 RES1    0.0000
     56 H24        4.3761    9.4055    4.7716 H         1 RES1    0.0000
     57 C21        6.1739    8.7077    4.0782 C.3       1 RES1    0.0000
     58 H25        6.5889    8.5356    3.1963 H         1 RES1    0.0000
     59 H26        5.9979    7.8397    4.5220 H         1 RES1    0.0000
     60 C22        7.0822    9.5731    4.9361 C.3       1 RES1    0.0000
     61 H27        8.0366    9.5010    4.6482 H         1 RES1    0.0000
     62 C23        9.9610    9.0257    7.7148 C.3       1 RES1    0.0000
     63 H28       10.6537    9.4501    7.1655 H         1 RES1    0.0000
     64 H29        9.4396    8.4083    7.1628 H         1 RES1    0.0000
     65 H30       10.3820    8.5335    8.4483 H         1 RES1    0.0000
     66 C24        9.8211   11.1826    9.0564 C.3       1 RES1    0.0000
     67 H31        9.1993   11.8730    9.3661 H         1 RES1    0.0000
     68 H32       10.4897   11.5866    8.4644 H         1 RES1    0.0000
     69 H33       10.2695   10.7761    9.8277 H         1 RES1    0.0000
     70 C25        6.5916   12.8813    6.6295 C.3       1 RES1    0.0000
     71 H34        6.0139   13.4876    6.1215 H         1 RES1    0.0000
     72 H35        7.5293   13.0569    6.4033 H         1 RES1    0.0000
     73 H36        6.4530   13.0272    7.5895 H         1 RES1    0.0000
     74 C26        4.2523   11.9872    4.1321 C.3       1 RES1    0.0000
     75 H37        3.8346   11.7563    4.9890 H         1 RES1    0.0000
     76 H38        3.5789   11.9537    3.4217 H         1 RES1    0.0000
     77 H39        4.6271   12.8914    4.1866 H         1 RES1    0.0000
     78 C27        2.4477    9.6622   -0.0083 C.3       1 RES1    0.0000
     79 H40        2.6994   10.5173   -0.4160 H         1 RES1    0.0000
     80 H41        2.0194    9.8277    0.8588 H         1 RES1    0.0000
     81 H42        1.8219    9.1912   -0.5985 H         1 RES1    0.0000
     82 C28        7.4878   12.9424    1.8947 C.2       1 RES1    0.0000
     83 C29        7.6739   14.4212    1.7949 C.ar      1 RES1    0.0000
     84 C30        6.7475   15.3393    2.2267 C.ar      1 RES1    0.0000
     85 H43        5.9209   15.0386    2.5871 H         1 RES1    0.0000
     86 C31        7.0079   16.7063    2.1437 C.ar      1 RES1    0.0000
     87 H44        6.3707   17.3513    2.4287 H         1 RES1    0.0000
     88 C32        8.2308   17.0861    1.6279 C.ar      1 RES1    0.0000
     89 C33        9.1738   16.1907    1.1951 C.ar      1 RES1    0.0000
     90 H45       10.0085   16.4856    0.8480 H         1 RES1    0.0000
     91 C34        8.8706   14.8498    1.2780 C.ar      1 RES1    0.0000
     92 H46        9.5018   14.2090    0.9715 H         1 RES1    0.0000
     93 C35        3.0789    5.7774   -4.1254 C.2       1 RES1    0.0000
     94 C36        2.0983    5.5504   -5.2297 C.ar      1 RES1    0.0000
     95 C37        0.8039    5.9683   -5.1240 C.ar      1 RES1    0.0000
     96 H47        0.4920    6.3672   -4.3208 H         1 RES1    0.0000
     97 C38       -0.0636    5.8005   -6.2173 C.ar      1 RES1    0.0000
     98 H48       -0.9625    6.1041   -6.1806 H         1 RES1    0.0000
     99 C39        0.4297    5.1876   -7.3319 C.ar      1 RES1    0.0000
    100 C40        1.7101    4.7399   -7.4776 C.ar      1 RES1    0.0000
    101 H49        2.0154    4.3368   -8.2819 H         1 RES1    0.0000
    102 C41        2.5435    4.9115   -6.3703 C.ar      1 RES1    0.0000
    103 H50        3.4337    4.5829   -6.4006 H         1 RES1    0.0000
@<TRIPOS>BOND
     1    1   13 1
     2    2   20 1
     3    3   26 1
     4    4   82 2
     5    5   40 1
     6    6   93 2
     7    7   11 2
     8    8   11 2
     9    9   12 2
    10   10   12 2
    11   11   88 1
    12   12   99 1
    13   13   14 1
    14   14   15 1
    15   16   14 1
    16   17   14 1
    17   18   17 1
    18   19   17 1
    19   20    1 1
    20   21   20 1
    21   22   21 1
    22   23   21 1
    23   24   23 1
    24   25   23 1
    25   26   25 1
    26   27   26 1
    27   28   26 1
    28   29   28 1
    29   30   28 1
    30   31   28 1
    31   32   31 1
    32   33   31 1
    33   34   33 1
    34   35   34 1
    35   36   34 1
    36   37   34 1
    37   38   37 1
    38   39   37 1
    39   40   37 1
    40   41   40 1
    41   42   40 1
    42   43   42 1
    43   44   42 1
    44   45   33 1
    45   46   45 1
    46   47   45 1
    47   48   47 1
    48   49   47 1
    49   50   47 1
    50   51   50 1
    51   52   50 1
    52   53   31 1
    53   54   53 1
    54   55   25 1
    55   56   55 1
    56   57   55 1
    57   58   57 1
    58   59   57 1
    59   60    2 1
    60   61   60 1
    61   62   13 1
    62   63   62 1
    63   64   62 1
    64   65   62 1
    65   66   13 1
    66   67   66 1
    67   68   66 1
    68   69   66 1
    69   70   21 1
    70   71   70 1
    71   72   70 1
    72   73   70 1
    73   74   25 1
    74   75   74 1
    75   76   74 1
    76   77   74 1
    77   78   33 1
    78   79   78 1
    79   80   78 1
    80   81   78 1
    81   82    3 1
    82   83   82 1
    83   84   83 ar
    84   85   84 1
    85   86   84 ar
    86   87   86 1
    87   88   86 ar
    88   89   88 ar
    89   90   89 1
    90   91   83 ar
    91   92   91 1
    92   93    5 1
    93   94   93 1
    94   95   94 ar
    95   96   95 1
    96   97   95 ar
    97   98   97 1
    98   99   97 ar
    99  100   99 ar
   100  101  100 1
   101  102   94 ar
   102  103  102 1
   103   17   20 1
   104   23   60 1
   105   42   45 1
   106   50   53 1
   107   53   55 1
   108   57   60 1
   109   89   91 ar
   110  100  102 ar
@<TRIPOS>SUBSTRUCTURE
     1 RES1 1

@<TRIPOS>CRYSIN
   6.6933   21.2170   26.8370  90.0000  90.0000  90.0000  19 1

