# MOL2 file generated by ConQuest
# Please check atom types

@<TRIPOS>MOLECULE
CIFNEL
   102   102     2
SMALL
NO_CHARGES
****
Generated from CSD

@<TRIPOS>ATOM
      1 O1         8.7104    7.9369   10.5302 O.2       1 RES1    0.0000
      2 O2        10.0070    9.3044   11.5969 O.2       1 RES1    0.0000
      3 O3        13.0544   12.1122    9.1539 O.2       1 RES1    0.0000
      4 O4        13.2190   11.9096    7.0152 O.2       1 RES1    0.0000
      5 O5         8.9685    7.4297    5.7751 O.2       1 RES1    0.0000
      6 O6         8.5797   10.0965    2.6708 O.2       1 RES1    0.0000
      7 O7         7.6469   10.9677   10.3863 O.2       2 RES2    0.0000
      8 O8         5.5674   10.3716   10.1176 O.2       2 RES2    0.0000
      9 O9         5.2527    7.6715    5.9125 O.2       2 RES2    0.0000
     10 O10        5.7086    8.8099    4.1219 O.2       2 RES2    0.0000
     11 O11        9.5533   13.2351    6.4117 O.2       2 RES2    0.0000
     12 O12       11.8740   11.0791    3.9285 O.2       2 RES2    0.0000
     13 N1         9.5808    8.7976   10.5710 N.pl3     1 RES1    0.0000
     14 N2        12.7117   11.6266    8.0887 N.pl3     1 RES1    0.0000
     15 N3        10.1990    8.8166    4.4834 N.am      1 RES1    0.0000
     16 N4         7.8331    8.1713    1.7770 N.am      1 RES1    0.0000
     17 N5         6.6816   10.6610    9.7045 N.pl3     2 RES2    0.0000
     18 N6         5.7346    8.6361    5.3369 N.pl3     2 RES2    0.0000
     19 N7         9.4040   12.1518    4.4456 N.am      2 RES2    0.0000
     20 H1         9.0229   11.4984    3.9953 H         2 RES2    0.0000
     21 N8        12.8578   13.1151    3.9947 N.am      2 RES2    0.0000
     22 C1        10.1583    9.2527    9.2870 C.ar      1 RES1    0.0000
     23 C2        11.1101   10.2356    9.3043 C.ar      1 RES1    0.0000
     24 H2        11.3884   10.6437   10.1167 H         1 RES1    0.0000
     25 C3        11.6415   10.6031    8.0931 C.ar      1 RES1    0.0000
     26 C4        11.2639   10.0345    6.8994 C.ar      1 RES1    0.0000
     27 H3        11.6673   10.3059    6.0843 H         1 RES1    0.0000
     28 C5        10.2841    9.0603    6.9115 C.ar      1 RES1    0.0000
     29 C6         9.7333    8.6386    8.1194 C.ar      1 RES1    0.0000
     30 H4         9.0819    7.9480    8.1423 H         1 RES1    0.0000
     31 C7         9.7544    8.3537    5.6677 C.2       1 RES1    0.0000
     32 C8         9.8320    8.1379    3.2430 C.3       1 RES1    0.0000
     33 H5         9.5765    7.1908    3.4352 H         1 RES1    0.0000
     34 C9        11.0168    8.1700    2.2756 C.3       1 RES1    0.0000
     35 H6        10.7438    7.7260    1.4329 H         1 RES1    0.0000
     36 H7        11.2207    9.1146    2.0611 H         1 RES1    0.0000
     37 C10       12.2920    7.5065    2.7732 C.3       1 RES1    0.0000
     38 H8        12.5163    7.9023    3.6642 H         1 RES1    0.0000
     39 C11       12.1208    6.0131    2.9580 C.3       1 RES1    0.0000
     40 H9        11.4541    5.8454    3.6549 H         1 RES1    0.0000
     41 H10       12.9779    5.6160    3.2216 H         1 RES1    0.0000
     42 H11       11.8202    5.6123    2.1168 H         1 RES1    0.0000
     43 C12       13.4305    7.8308    1.8182 C.3       1 RES1    0.0000
     44 H12       13.1920    7.5336    0.9160 H         1 RES1    0.0000
     45 H13       14.2442    7.3684    2.1106 H         1 RES1    0.0000
     46 H14       13.5886    8.7976    1.8135 H         1 RES1    0.0000
     47 C13        8.6661    8.8667    2.5609 C.2       1 RES1    0.0000
     48 C14        7.8127    6.7172    1.6223 C.3       1 RES1    0.0000
     49 H15        8.6457    6.3399    2.0023 H         1 RES1    0.0000
     50 H16        7.7901    6.4940    0.6592 H         1 RES1    0.0000
     51 C15        6.6453    6.0957    2.2926 C.3       1 RES1    0.0000
     52 H17        6.6696    6.3029    3.2495 H         1 RES1    0.0000
     53 H18        6.6758    5.1239    2.1694 H         1 RES1    0.0000
     54 H19        5.8191    6.4484    1.9033 H         1 RES1    0.0000
     55 C16        6.8227    8.9284    1.0259 C.3       1 RES1    0.0000
     56 H20        6.5611    9.7287    1.5443 H         1 RES1    0.0000
     57 H21        6.0164    8.3660    0.9037 H         1 RES1    0.0000
     58 C17        7.3379    9.3563   -0.3215 C.3       1 RES1    0.0000
     59 H22        8.1612    9.8742   -0.2073 H         1 RES1    0.0000
     60 H23        6.6623    9.9088   -0.7675 H         1 RES1    0.0000
     61 H24        7.5241    8.5633   -0.8665 H         1 RES1    0.0000
     62 C18        6.8917   10.6290    8.2333 C.ar      2 RES2    0.0000
     63 C19        6.1854    9.6856    7.5168 C.ar      2 RES2    0.0000
     64 H25        5.5746    9.0899    7.9349 H         2 RES2    0.0000
     65 C20        6.4191    9.6597    6.1585 C.ar      2 RES2    0.0000
     66 C21        7.2792   10.5352    5.5383 C.ar      2 RES2    0.0000
     67 H26        7.3774   10.5192    4.5926 H         2 RES2    0.0000
     68 C22        8.0049   11.4429    6.2975 C.ar      2 RES2    0.0000
     69 C23        7.7907   11.4947    7.6682 C.ar      2 RES2    0.0000
     70 H27        8.2600   12.1224    8.2073 H         2 RES2    0.0000
     71 C24        9.0441   12.3579    5.7212 C.2       2 RES2    0.0000
     72 C25       10.4003   12.9733    3.7867 C.3       2 RES2    0.0000
     73 H28       10.4068   13.8908    4.1872 H         2 RES2    0.0000
     74 C26       10.0866   13.0559    2.2873 C.3       2 RES2    0.0000
     75 H29       10.8434   13.4998    1.8290 H         2 RES2    0.0000
     76 H30       10.0166   12.1359    1.9280 H         2 RES2    0.0000
     77 C27        8.8007   13.8118    1.9484 C.3       2 RES2    0.0000
     78 H31        8.0994   13.5455    2.6089 H         2 RES2    0.0000
     79 C28        9.0002   15.3065    2.0459 C.3       2 RES2    0.0000
     80 H32        9.6682   15.5901    1.3895 H         2 RES2    0.0000
     81 H33        9.3103   15.5359    2.9462 H         2 RES2    0.0000
     82 H34        8.1507   15.7615    1.8661 H         2 RES2    0.0000
     83 C29        8.3103   13.4382    0.5601 C.3       2 RES2    0.0000
     84 H35        8.9979   13.6614   -0.0990 H         2 RES2    0.0000
     85 H36        7.4906   13.9352    0.3590 H         2 RES2    0.0000
     86 H37        8.1253   12.4763    0.5261 H         2 RES2    0.0000
     87 C30       11.7818   12.3209    3.9430 C.2       2 RES2    0.0000
     88 C31       14.1824   12.4985    4.0609 C.3       2 RES2    0.0000
     89 H38       14.0938   11.5859    4.4348 H         2 RES2    0.0000
     90 H39       14.7533   13.0238    4.6762 H         2 RES2    0.0000
     91 C32       14.8608   12.4134    2.7181 C.3       2 RES2    0.0000
     92 H40       14.2821   11.9337    2.0890 H         2 RES2    0.0000
     93 H41       15.7096   11.9337    2.8100 H         2 RES2    0.0000
     94 H42       15.0321   13.3173    2.3799 H         2 RES2    0.0000
     95 C33       12.8039   14.5764    4.1491 C.3       2 RES2    0.0000
     96 H43       12.0083   14.9242    3.6735 H         2 RES2    0.0000
     97 H44       13.6064   14.9772    3.7323 H         2 RES2    0.0000
     98 C34       12.7374   14.9920    5.6064 C.3       2 RES2    0.0000
     99 H45       11.8990   14.6738    5.9976 H         2 RES2    0.0000
    100 H46       12.7765   15.9699    5.6696 H         2 RES2    0.0000
    101 H47       13.4930   14.6023    6.0935 H         2 RES2    0.0000
    102 H48       10.6977    9.6005    4.3636 H         1 RES1    0.0000
@<TRIPOS>BOND
     1    1   13 2
     2    2   13 2
     3    3   14 2
     4    4   14 2
     5    5   31 2
     6    6   47 2
     7    7   17 2
     8    8   17 2
     9    9   18 2
    10   10   18 2
    11   11   71 2
    12   12   87 2
    13   13   22 1
    14   14   25 1
    15   15   31 1
    16   16   47 1
    17   17   62 1
    18   18   65 1
    19   19   20 1
    20   21   87 1
    21   22   23 ar
    22   23   24 1
    23   25   23 ar
    24   26   25 ar
    25   27   26 1
    26   28   26 ar
    27   29   22 ar
    28   30   29 1
    29   31   28 1
    30   32   15 1
    31   33   32 1
    32   34   32 1
    33   35   34 1
    34   36   34 1
    35   37   34 1
    36   38   37 1
    37   39   37 1
    38   40   39 1
    39   41   39 1
    40   42   39 1
    41   43   37 1
    42   44   43 1
    43   45   43 1
    44   46   43 1
    45   47   32 1
    46   48   16 1
    47   49   48 1
    48   50   48 1
    49   51   48 1
    50   52   51 1
    51   53   51 1
    52   54   51 1
    53   55   16 1
    54   56   55 1
    55   57   55 1
    56   58   55 1
    57   59   58 1
    58   60   58 1
    59   61   58 1
    60   62   63 ar
    61   63   64 1
    62   65   63 ar
    63   66   65 ar
    64   67   66 1
    65   68   66 ar
    66   69   62 ar
    67   70   69 1
    68   71   19 1
    69   72   19 1
    70   73   72 1
    71   74   72 1
    72   75   74 1
    73   76   74 1
    74   77   74 1
    75   78   77 1
    76   79   77 1
    77   80   79 1
    78   81   79 1
    79   82   79 1
    80   83   77 1
    81   84   83 1
    82   85   83 1
    83   86   83 1
    84   87   72 1
    85   88   21 1
    86   89   88 1
    87   90   88 1
    88   91   88 1
    89   92   91 1
    90   93   91 1
    91   94   91 1
    92   95   21 1
    93   96   95 1
    94   97   95 1
    95   98   95 1
    96   99   98 1
    97  100   98 1
    98  101   98 1
    99  102   15 1
   100   28   29 ar
   101   68   69 ar
   102   68   71 1
@<TRIPOS>SUBSTRUCTURE
     1 RES1 1
     2 RES2 7

