# MOL2 file generated by ConQuest
# Please check atom types

@<TRIPOS>MOLECULE
CIFNEL01
   102   102     2
SMALL
NO_CHARGES
****
Generated from CSD

@<TRIPOS>ATOM
      1 O1         4.9984    7.3419    3.0864 O.2       1 RES1    0.0000
      2 O2         1.9502   10.0294    2.4379 O.2       1 RES1    0.0000
      3 O3         7.5672   11.7859   -0.5600 O.2       1 RES1    0.0000
      4 O4         9.5469   11.9743    0.2855 O.2       1 RES1    0.0000
      5 O5        10.8436    9.2050    3.9950 O.2       1 RES1    0.0000
      6 O6         9.4057    7.8561    4.8892 O.2       1 RES1    0.0000
      7 N1         4.1817    8.7271    1.5014 N.am      1 RES1    0.0000
      8 H1         4.2714    9.4410    1.0198 H         1 RES1    0.0000
      9 N2         0.8631    8.1165    2.8684 N.am      1 RES1    0.0000
     10 N3         8.4233   11.5023    0.2658 N.pl3     1 RES1    0.0000
     11 N4         9.7279    8.7083    4.0705 N.pl3     1 RES1    0.0000
     12 C1         6.8200    9.9241    1.2610 C.ar      1 RES1    0.0000
     13 H2         6.1791   10.1995    0.6142 H         1 RES1    0.0000
     14 C2         8.0788   10.4855    1.2879 C.ar      1 RES1    0.0000
     15 C3         9.0489   10.1340    2.1986 C.ar      1 RES1    0.0000
     16 H3         9.9017   10.5506    2.2072 H         1 RES1    0.0000
     17 C4         8.7111    9.1427    3.0975 C.ar      1 RES1    0.0000
     18 C5         7.4707    8.5459    3.1197 C.ar      1 RES1    0.0000
     19 H4         7.2757    7.8689    3.7573 H         1 RES1    0.0000
     20 C6         6.5055    8.9443    2.2010 C.ar      1 RES1    0.0000
     21 C7         5.1570    8.2702    2.2955 C.2       1 RES1    0.0000
     22 C8         2.8899    8.0699    1.4392 C.3       1 RES1    0.0000
     23 H5         2.9784    7.1202    1.7393 H         1 RES1    0.0000
     24 C9         1.8773    8.7998    2.3236 C.2       1 RES1    0.0000
     25 C10       -0.1602    8.8769    3.5935 C.3       1 RES1    0.0000
     26 H6         0.2607    9.6600    4.0264 H         1 RES1    0.0000
     27 H7        -0.5467    8.3069    4.3052 H         1 RES1    0.0000
     28 C11       -1.2601    9.3474    2.6857 C.3       1 RES1    0.0000
     29 H8        -1.9210    9.8520    3.2055 H         1 RES1    0.0000
     30 H9        -1.6963    8.5736    2.2716 H         1 RES1    0.0000
     31 H10       -0.8843    9.9242    1.9888 H         1 RES1    0.0000
     32 C12        0.7027    6.6593    2.8456 C.3       1 RES1    0.0000
     33 H11        1.2856    6.2773    2.1409 H         1 RES1    0.0000
     34 H12       -0.2349    6.4375    2.6186 H         1 RES1    0.0000
     35 C13        1.0492    6.0414    4.1594 C.3       1 RES1    0.0000
     36 H13        0.9269    5.0698    4.1064 H         1 RES1    0.0000
     37 H14        0.4650    6.4057    4.8570 H         1 RES1    0.0000
     38 H15        1.9823    6.2418    4.3793 H         1 RES1    0.0000
     39 C14        2.3562    8.1125    0.0105 C.3       1 RES1    0.0000
     40 H16        2.2167    9.0593   -0.2437 H         1 RES1    0.0000
     41 H17        1.4713    7.6670   -0.0058 H         1 RES1    0.0000
     42 C15        3.2476    7.4569   -1.0406 C.3       1 RES1    0.0000
     43 H18        4.1654    7.8432   -0.9496 H         1 RES1    0.0000
     44 C16        3.3508    5.9539   -0.8332 C.3       1 RES1    0.0000
     45 H19        3.9388    5.5689   -1.5170 H         1 RES1    0.0000
     46 H20        2.4612    5.5518   -0.9047 H         1 RES1    0.0000
     47 H21        3.7233    5.7720    0.0546 H         1 RES1    0.0000
     48 C17        2.7303    7.8064   -2.4301 C.3       1 RES1    0.0000
     49 H22        2.6798    8.7803   -2.5250 H         1 RES1    0.0000
     50 H23        1.8383    7.4199   -2.5543 H         1 RES1    0.0000
     51 H24        3.3413    7.4444   -3.1061 H         1 RES1    0.0000
     52 O7         5.8705   13.0895    2.6797 O.2       2 RES2    0.0000
     53 O8         4.2332   10.9697   -0.2915 O.2       2 RES2    0.0000
     54 O9         2.3872    8.7445    5.6075 O.2       2 RES2    0.0000
     55 O10        3.9149    7.5856    6.6181 O.2       2 RES2    0.0000
     56 O11        8.0053   10.2660    7.7036 O.2       2 RES2    0.0000
     57 O12        8.9583   10.8234    5.8302 O.2       2 RES2    0.0000
     58 N5         3.9283   12.0494    2.2177 N.am      2 RES2    0.0000
     59 H25        3.3934   11.3715    2.3535 H         2 RES2    0.0000
     60 N6         4.6302   12.9932   -1.2071 N.am      2 RES2    0.0000
     61 N7         3.5447    8.5527    5.9700 N.pl3     2 RES2    0.0000
     62 N8         7.9767   10.5402    6.5123 N.pl3     2 RES2    0.0000
     63 C18        4.2473   10.4343    4.5689 C.ar      2 RES2    0.0000
     64 H26        3.3873   10.4185    4.1629 H         2 RES2    0.0000
     65 C19        4.5550    9.5674    5.5964 C.ar      2 RES2    0.0000
     66 C20        5.7554    9.5798    6.2658 C.ar      2 RES2    0.0000
     67 H27        5.9379    8.9822    6.9804 H         2 RES2    0.0000
     68 C21        6.6759   10.5100    5.8392 C.ar      2 RES2    0.0000
     69 C22        6.4490   11.3725    4.7794 C.ar      2 RES2    0.0000
     70 H28        7.1213   11.9795    4.4983 H         2 RES2    0.0000
     71 C23        5.2214   11.3332    4.1376 C.ar      2 RES2    0.0000
     72 C24        5.0273   12.2423    2.9462 C.2       2 RES2    0.0000
     73 C25        3.6356   12.8636    1.0515 C.3       2 RES2    0.0000
     74 H29        4.0211   13.7779    1.1699 H         2 RES2    0.0000
     75 C26        4.2211   12.2089   -0.2030 C.2       2 RES2    0.0000
     76 C27        5.1269   12.3726   -2.4408 C.3       2 RES2    0.0000
     77 H30        5.4338   11.4522   -2.2404 H         2 RES2    0.0000
     78 H31        5.9043   12.8873   -2.7727 H         2 RES2    0.0000
     79 C28        4.0775   12.3194   -3.5159 C.3       2 RES2    0.0000
     80 H32        4.4551   11.9074   -4.3208 H         2 RES2    0.0000
     81 H33        3.7755   13.2286   -3.7242 H         2 RES2    0.0000
     82 H34        3.3153   11.7875   -3.2036 H         2 RES2    0.0000
     83 C29        4.7579   14.4577   -1.1126 C.3       2 RES2    0.0000
     84 H35        4.0488   14.8093   -0.5187 H         2 RES2    0.0000
     85 H36        4.6295   14.8557   -2.0103 H         2 RES2    0.0000
     86 C30        6.1149   14.8702   -0.5725 C.3       2 RES2    0.0000
     87 H37        6.1635   15.8479   -0.5226 H         2 RES2    0.0000
     88 H38        6.8177   14.5389   -1.1699 H         2 RES2    0.0000
     89 H39        6.2403   14.4899    0.3217 H         2 RES2    0.0000
     90 C31        2.1180   12.9590    0.8640 C.3       2 RES2    0.0000
     91 H40        1.7435   12.0419    0.8345 H         2 RES2    0.0000
     92 H41        1.9328   13.3840   -0.0117 H         2 RES2    0.0000
     93 C32        1.3892   13.7466    1.9520 C.3       2 RES2    0.0000
     94 H42        1.8075   13.5222    2.8331 H         2 RES2    0.0000
     95 C33        1.5248   15.2470    1.7297 C.3       2 RES2    0.0000
     96 H43        1.0556   15.7268    2.4451 H         2 RES2    0.0000
     97 H44        1.1319   15.4858    0.8638 H         2 RES2    0.0000
     98 H45        2.4742   15.4944    1.7373 H         2 RES2    0.0000
     99 C34       -0.0768   13.3571    2.0113 C.3       2 RES2    0.0000
    100 H46       -0.5209   13.8660    2.7200 H         2 RES2    0.0000
    101 H47       -0.1519   12.3992    2.2014 H         2 RES2    0.0000
    102 H48       -0.5034   13.5540    1.1504 H         2 RES2    0.0000
@<TRIPOS>BOND
     1    1   21 2
     2    2   24 2
     3    3   10 2
     4    4   10 2
     5    5   11 2
     6    6   11 2
     7    7    8 1
     8    9   24 1
     9   10   14 1
    10   11   17 1
    11   12   13 1
    12   14   12 ar
    13   15   14 ar
    14   16   15 1
    15   17   15 ar
    16   18   17 ar
    17   19   18 1
    18   20   12 ar
    19   21    7 1
    20   22    7 1
    21   23   22 1
    22   24   22 1
    23   25    9 1
    24   26   25 1
    25   27   25 1
    26   28   25 1
    27   29   28 1
    28   30   28 1
    29   31   28 1
    30   32    9 1
    31   33   32 1
    32   34   32 1
    33   35   32 1
    34   36   35 1
    35   37   35 1
    36   38   35 1
    37   39   22 1
    38   40   39 1
    39   41   39 1
    40   42   39 1
    41   43   42 1
    42   44   42 1
    43   45   44 1
    44   46   44 1
    45   47   44 1
    46   48   42 1
    47   49   48 1
    48   50   48 1
    49   51   48 1
    50   52   72 2
    51   53   75 2
    52   54   61 2
    53   55   61 2
    54   56   62 2
    55   57   62 2
    56   58   59 1
    57   60   75 1
    58   61   65 1
    59   62   68 1
    60   63   64 1
    61   65   63 ar
    62   66   65 ar
    63   67   66 1
    64   68   66 ar
    65   69   68 ar
    66   70   69 1
    67   71   63 ar
    68   72   58 1
    69   73   58 1
    70   74   73 1
    71   75   73 1
    72   76   60 1
    73   77   76 1
    74   78   76 1
    75   79   76 1
    76   80   79 1
    77   81   79 1
    78   82   79 1
    79   83   60 1
    80   84   83 1
    81   85   83 1
    82   86   83 1
    83   87   86 1
    84   88   86 1
    85   89   86 1
    86   90   73 1
    87   91   90 1
    88   92   90 1
    89   93   90 1
    90   94   93 1
    91   95   93 1
    92   96   95 1
    93   97   95 1
    94   98   95 1
    95   99   93 1
    96  100   99 1
    97  101   99 1
    98  102   99 1
    99   18   20 ar
   100   20   21 1
   101   69   71 ar
   102   71   72 1
@<TRIPOS>SUBSTRUCTURE
     1 RES1 1
     2 RES2 52

@<TRIPOS>CRYSIN
  32.3644   12.2340   20.5370  90.0000 108.3000  90.0000  15 1

