# MOL2 file generated by ConQuest
# Please check atom types

@<TRIPOS>MOLECULE
CIFROY
    10    10     1
SMALL
NO_CHARGES
****
Generated from CSD

@<TRIPOS>ATOM
      1 N1        10.1166    7.0036    0.3815 N.3       1 RES1    0.0000
      2 N2         9.2487    7.3051    1.3785 N.2       1 RES1    0.0000
      3 C1         8.2809    6.4647    1.1249 C.2       1 RES1    0.0000
      4 N3         8.4295    5.6643    0.0617 N.2       1 RES1    0.0000
      5 C2         9.6172    6.0410   -0.3758 C.2       1 RES1    0.0000
      6 N4         7.0876    6.4312    1.9456 N.pl3     1 RES1    0.0000
      7 O1         6.1961    5.6732    1.6156 O.2       1 RES1    0.0000
      8 O2         7.0443    7.1768    2.9086 O.2       1 RES1    0.0000
      9 H1        10.9281    7.5321    0.2306 H         1 RES1    0.0000
     10 H2        10.0744    5.5768   -1.1974 H         1 RES1    0.0000
@<TRIPOS>BOND
     1    1    2 1
     2    2    3 2
     3    3    4 1
     4    4    5 2
     5    5    1 1
     6    6    3 1
     7    7    6 2
     8    8    6 2
     9    9    1 1
    10   10    5 1
@<TRIPOS>SUBSTRUCTURE
     1 RES1 1

@<TRIPOS>CRYSIN
   6.8730    6.8730   19.2200  90.0000  90.0000  90.0000  92 1

