# MOL2 file generated by ConQuest
# Please check atom types

@<TRIPOS>MOLECULE
CIFROY01
    20    20     2
SMALL
NO_CHARGES
****
Generated from CSD

@<TRIPOS>ATOM
      1 O1         4.9034   -0.4084    4.9289 O.2       1 RES1    0.0000
      2 O2         5.3852    0.1692    6.9717 O.2       1 RES1    0.0000
      3 N1         7.0162    2.1544    6.1078 N.2       1 RES1    0.0000
      4 N2         7.5392    2.4553    4.0029 N.3       1 RES1    0.0000
      5 N3         6.6581    1.4286    3.9812 N.2       1 RES1    0.0000
      6 N4         5.4878    0.2833    5.7524 N.pl3     1 RES1    0.0000
      7 C1         7.7413    2.8793    5.2561 C.2       1 RES1    0.0000
      8 H1         8.3054    3.5778    5.4972 H         1 RES1    0.0000
      9 C2         6.3903    1.3102    5.2676 C.2       1 RES1    0.0000
     10 H2         7.8906    2.7418    3.2432 H         1 RES1    0.0000
     11 O3         5.1761    4.1902    4.8297 O.2       2 RES2    0.0000
     12 O4         4.2222    5.8863    5.8009 O.2       2 RES2    0.0000
     13 N5         2.3983    4.2888    6.9909 N.2       2 RES2    0.0000
     14 N6         2.4377    2.0984    6.8746 N.3       2 RES2    0.0000
     15 N7         3.4808    2.4893    6.1051 N.2       2 RES2    0.0000
     16 N8         4.3385    4.6798    5.5757 N.pl3     2 RES2    0.0000
     17 C3         1.8102    3.1651    7.3939 C.2       2 RES2    0.0000
     18 H3         1.0700    3.1245    7.9551 H         2 RES2    0.0000
     19 C4         3.3945    3.7984    6.2296 C.2       2 RES2    0.0000
     20 H4         2.2651    1.2681    6.9983 H         2 RES2    0.0000
@<TRIPOS>BOND
     1    1    6 2
     2    2    6 2
     3    3    7 2
     4    4    5 1
     5    5    9 2
     6    6    9 1
     7    7    4 1
     8    8    7 1
     9    9    3 1
    10   10    4 1
    11   11   16 2
    12   12   16 2
    13   13   17 2
    14   14   15 1
    15   15   19 2
    16   16   19 1
    17   17   14 1
    18   18   17 1
    19   19   13 1
    20   20   14 1
@<TRIPOS>SUBSTRUCTURE
     1 RES1 1
     2 RES2 11

@<TRIPOS>CRYSIN
   8.7818   10.0726    9.9703  90.0000 107.0810  90.0000  14 1

