# MOL2 file generated by ConQuest
# Please check atom types

@<TRIPOS>MOLECULE
CIFROY03
    20    20     2
SMALL
NO_CHARGES
****
Generated from CSD

@<TRIPOS>ATOM
      1 O1         1.2985    0.8502    1.0366 O.2       1 RES1    0.0000
      2 N1        -0.5284   -0.7477    2.2216 N.2       1 RES1    0.0000
      3 N2         1.4146   -0.3558    0.8131 N.pl3     1 RES1    0.0000
      4 O2         2.2511   -0.8425    0.0702 O.2       1 RES1    0.0000
      5 N3        -0.4868   -2.9314    2.1090 N.pl3     1 RES1    0.0000
      6 H1        -0.7204   -3.7685    2.2498 H         1 RES1    0.0000
      7 C1        -1.1126   -1.8696    2.6243 C.2       1 RES1    0.0000
      8 H2        -1.8686   -1.9114    3.1975 H         1 RES1    0.0000
      9 N4         0.5565   -2.5423    1.3396 N.2       1 RES1    0.0000
     10 C2         0.4687   -1.2371    1.4654 C.2       1 RES1    0.0000
     11 O3         0.9973   -0.1682    6.9678 O.2       2 RES2    0.0000
     12 O4         0.5159    0.4067    4.9267 O.2       2 RES2    0.0000
     13 N5         1.1018   -0.2857    5.7495 N.pl3     2 RES2    0.0000
     14 N6         3.1465   -2.4525    4.0050 N.pl3     2 RES2    0.0000
     15 H3         3.5314   -2.7966    3.2928 H         2 RES2    0.0000
     16 N7         2.6258   -2.1529    6.1009 N.2       2 RES2    0.0000
     17 C3         2.0033   -1.3093    5.2619 C.2       2 RES2    0.0000
     18 N8         2.2682   -1.4273    3.9812 N.2       2 RES2    0.0000
     19 C4         3.3514   -2.8739    5.2524 C.2       2 RES2    0.0000
     20 H4         3.9311   -3.5852    5.4987 H         2 RES2    0.0000
@<TRIPOS>BOND
     1    1    3 2
     2    2    7 2
     3    3    4 2
     4    5    6 1
     5    7    5 1
     6    8    7 1
     7    9    5 1
     8   10    2 1
     9   11   13 2
    10   12   13 2
    11   13   17 1
    12   14   15 1
    13   16   17 1
    14   17   18 2
    15   18   14 1
    16   19   14 1
    17   20   19 1
    18    3   10 1
    19    9   10 2
    20   16   19 2
@<TRIPOS>SUBSTRUCTURE
     1 RES1 1
     2 RES2 11

@<TRIPOS>CRYSIN
   8.7895   10.0707    9.9645  90.0000 107.0820  90.0000  14 1

