# MOL2 file generated by ConQuest
# Please check atom types

@<TRIPOS>MOLECULE
CIFWAR
    70    70     2
SMALL
NO_CHARGES
****
Generated from CSD

@<TRIPOS>ATOM
      1 N1         2.1656   12.9206    3.0295 N.am      1 RES1    0.0000
      2 C1         2.3235   14.3082    3.4771 C.3       1 RES1    0.0000
      3 H1         3.0366   14.3851    4.1598 H         1 RES1    0.0000
      4 H2         1.4777   14.6621    3.8522 H         1 RES1    0.0000
      5 C2         2.7058   15.0389    2.1997 C.3       1 RES1    0.0000
      6 H3         2.3964   15.9791    2.2201 H         1 RES1    0.0000
      7 H4         3.6853   15.0232    2.0591 H         1 RES1    0.0000
      8 C3         1.9852   14.2499    1.1204 C.3       1 RES1    0.0000
      9 H5         1.0309   14.5084    1.0694 H         1 RES1    0.0000
     10 H6         2.4048   14.3938    0.2352 H         1 RES1    0.0000
     11 C4         2.1347   12.8086    1.5635 C.3       1 RES1    0.0000
     12 H7         1.3674   12.2602    1.2630 H         1 RES1    0.0000
     13 H8         2.9731   12.4125    1.2159 H         1 RES1    0.0000
     14 C5         2.1114   11.8319    3.8187 C.2       1 RES1    0.0000
     15 O1         2.1403   10.6851    3.3327 O.2       1 RES1    0.0000
     16 N2         2.0487   12.0594    5.1534 N.am      1 RES1    0.0000
     17 H9         1.8693   12.8331    5.4372 H         1 RES1    0.0000
     18 C6         2.1889   10.9829    6.1172 C.3       1 RES1    0.0000
     19 H10        2.0814   10.1180    5.6272 H         1 RES1    0.0000
     20 C7         3.5769   10.9723    6.7954 C.3       1 RES1    0.0000
     21 H11        3.6245   10.1557    7.3715 H         1 RES1    0.0000
     22 C8         4.6601   10.8519    5.7392 C.3       1 RES1    0.0000
     23 H12        4.6255   11.6322    5.1459 H         1 RES1    0.0000
     24 H13        4.5162   10.0368    5.2147 H         1 RES1    0.0000
     25 H14        5.5368   10.8113    6.1737 H         1 RES1    0.0000
     26 C9         3.8264   12.1780    7.6852 C.3       1 RES1    0.0000
     27 H15        4.7470   12.1529    8.0193 H         1 RES1    0.0000
     28 H16        3.2039   12.1602    8.4427 H         1 RES1    0.0000
     29 H17        3.6890   12.9999    7.1688 H         1 RES1    0.0000
     30 C10        1.0926   11.0655    7.1553 C.3       1 RES1    0.0000
     31 H18        1.2889   10.4255    7.8836 H         1 RES1    0.0000
     32 H19        1.0851   11.9760    7.5452 H         1 RES1    0.0000
     33 N3        -0.2645   10.7634    6.5887 N.pl3     1 RES1    0.0000
     34 O2        -0.3580    9.9911    5.6475 O.2       1 RES1    0.0000
     35 O3        -1.2122   11.2867    7.1361 O.2       1 RES1    0.0000
     36 N4        -1.6972    9.3396    2.4791 N.am      2 RES2    0.0000
     37 C11       -1.2590   10.7347    2.4905 C.3       2 RES2    0.0000
     38 H20       -0.8421   10.9868    1.6285 H         2 RES2    0.0000
     39 H21       -0.6159   10.9027    3.2244 H         2 RES2    0.0000
     40 C12       -2.5600   11.4946    2.7150 C.3       2 RES2    0.0000
     41 H22       -2.7441   11.6047    3.6821 H         2 RES2    0.0000
     42 H23       -2.5273   12.3879    2.2889 H         2 RES2    0.0000
     43 C13       -3.6114   10.6168    2.0564 C.3       2 RES2    0.0000
     44 H24       -3.6301   10.7576    1.0766 H         2 RES2    0.0000
     45 H25       -4.5106   10.7982    2.4264 H         2 RES2    0.0000
     46 C14       -3.1516    9.2054    2.3984 C.3       2 RES2    0.0000
     47 H26       -3.5311    8.9055    3.2623 H         2 RES2    0.0000
     48 H27       -3.4124    8.5646    1.6900 H         2 RES2    0.0000
     49 C15       -0.8935    8.2567    2.4103 C.2       2 RES2    0.0000
     50 O4        -1.3768    7.1158    2.2911 O.2       2 RES2    0.0000
     51 N5         0.4416    8.4792    2.4617 N.am      2 RES2    0.0000
     52 H28        0.7103    9.2463    2.6526 H         2 RES2    0.0000
     53 C16        1.3898    7.3857    2.3361 C.3       2 RES2    0.0000
     54 H29        0.8823    6.5326    2.4572 H         2 RES2    0.0000
     55 C17        2.0646    7.3289    0.9583 C.3       2 RES2    0.0000
     56 H30        2.6684    6.5326    0.9499 H         2 RES2    0.0000
     57 C18        1.0225    7.1229   -0.1225 C.3       2 RES2    0.0000
     58 H31        0.4290    7.9032   -0.1574 H         2 RES2    0.0000
     59 H32        0.4972    6.3208    0.0796 H         2 RES2    0.0000
     60 H33        1.4683    7.0141   -0.9879 H         2 RES2    0.0000
     61 C19        2.9133    8.5501    0.6568 C.3       2 RES2    0.0000
     62 H34        3.3348    8.4457   -0.2207 H         2 RES2    0.0000
     63 H35        3.6058    8.6429    1.3426 H         2 RES2    0.0000
     64 H36        2.3459    9.3493    0.6532 H         2 RES2    0.0000
     65 C20        2.4160    7.4669    3.4435 C.3       2 RES2    0.0000
     66 H37        3.1329    6.8067    3.2714 H         2 RES2    0.0000
     67 H38        2.8254    8.3688    3.4415 H         2 RES2    0.0000
     68 N6         1.8067    7.1992    4.8011 N.pl3     2 RES2    0.0000
     69 O5         0.8515    6.4691    4.8863 O.2       2 RES2    0.0000
     70 O6         2.3852    7.6868    5.7425 O.2       2 RES2    0.0000
@<TRIPOS>BOND
     1    1    2 1
     2    2    3 1
     3    4    2 1
     4    5    2 1
     5    6    5 1
     6    7    5 1
     7    8    5 1
     8    9    8 1
     9   10    8 1
    10   11    1 1
    11   12   11 1
    12   13   11 1
    13   14    1 1
    14   15   14 2
    15   16   14 1
    16   17   16 1
    17   18   16 1
    18   19   18 1
    19   20   18 1
    20   21   20 1
    21   22   20 1
    22   23   22 1
    23   24   22 1
    24   25   22 1
    25   26   20 1
    26   27   26 1
    27   28   26 1
    28   29   26 1
    29   30   18 1
    30   31   30 1
    31   32   30 1
    32   33   30 1
    33   34   33 2
    34   35   33 2
    35   36   37 1
    36   37   38 1
    37   39   37 1
    38   40   37 1
    39   41   40 1
    40   42   40 1
    41   43   40 1
    42   44   43 1
    43   45   43 1
    44   46   36 1
    45   47   46 1
    46   48   46 1
    47   49   36 1
    48   50   49 2
    49   51   49 1
    50   52   51 1
    51   53   51 1
    52   54   53 1
    53   55   53 1
    54   56   55 1
    55   57   55 1
    56   58   57 1
    57   59   57 1
    58   60   57 1
    59   61   55 1
    60   62   61 1
    61   63   61 1
    62   64   61 1
    63   65   53 1
    64   66   65 1
    65   67   65 1
    66   68   65 1
    67   69   68 2
    68   70   68 2
    69    8   11 1
    70   43   46 1
@<TRIPOS>SUBSTRUCTURE
     1 RES1 1
     2 RES2 36

@<TRIPOS>CRYSIN
   9.3464   14.5040   18.0940  90.0000  90.0000  90.0000  19 1

