# MOL2 file generated by ConQuest
# Please check atom types

@<TRIPOS>MOLECULE
CIGSUJ
    24    25     1
SMALL
NO_CHARGES
****
Generated from CSD

@<TRIPOS>ATOM
      1 C1         3.1980    3.9023    8.6591 C.2       1 RES1    0.0000
      2 C2         4.3764    2.6078    7.5587 C.2       1 RES1    0.0000
      3 C3         5.1083    1.4496    6.9640 C.3       1 RES1    0.0000
      4 H1         5.6844    1.0598    7.6401 H         1 RES1    0.0000
      5 H2         4.4659    0.7740    6.6968 H         1 RES1    0.0000
      6 N1         4.0246    4.7174    8.0685 N.2       1 RES1    0.0000
      7 N2         3.3711    2.5694    8.3668 N.2       1 RES1    0.0000
      8 N3         5.1254    2.1112    4.6794 N.pl3     1 RES1    0.0000
      9 O1         4.8356    3.8417    7.3181 O.3       1 RES1    0.0000
     10 O2         5.8993    1.8115    5.8331 O.3       1 RES1    0.0000
     11 O3         3.9399    2.0618    4.7901 O.2       1 RES1    0.0000
     12 O4         5.8127    2.3884    3.7379 O.2       1 RES1    0.0000
     13 C1A        2.1748    4.3907    9.5833 C.2       1 RES1    0.0000
     14 C2A        0.9964    5.6853   10.6837 C.2       1 RES1    0.0000
     15 C3A        0.2645    6.8435   11.2784 C.3       1 RES1    0.0000
     16 H1A       -0.3115    7.2333   10.6023 H         1 RES1    0.0000
     17 H2A        0.9070    7.5190   11.5456 H         1 RES1    0.0000
     18 N1A        1.3483    3.5757   10.1739 N.2       1 RES1    0.0000
     19 N2A        2.0017    5.7237    9.8756 N.2       1 RES1    0.0000
     20 N3A        0.2474    6.1819   13.5631 N.pl3     1 RES1    0.0000
     21 O1A        0.5373    4.4514   10.9243 O.3       1 RES1    0.0000
     22 O2A       -0.5265    6.4816   12.4093 O.3       1 RES1    0.0000
     23 O3A        1.4330    6.2313   13.4523 O.2       1 RES1    0.0000
     24 O4A       -0.4398    5.9047   14.5045 O.2       1 RES1    0.0000
@<TRIPOS>BOND
     1    1    6 2
     2    2    3 1
     3    3    4 1
     4    5    3 1
     5    6    9 1
     6    7    1 1
     7    8   10 1
     8    9    2 1
     9   10    3 1
    10   11    8 2
    11   12    8 2
    12   13    1 1
    13   14   15 1
    14   15   16 1
    15   17   15 1
    16   18   13 2
    17   19   13 1
    18   20   22 1
    19   21   14 1
    20   22   15 1
    21   23   20 2
    22   24   20 2
    23    2    7 2
    24   14   19 2
    25   18   21 1
@<TRIPOS>SUBSTRUCTURE
     1 RES1 1

@<TRIPOS>CRYSIN
   4.8405    6.0293    9.4356  80.3990  77.1250  78.8310   2 1

