# MOL2 file generated by ConQuest
# Please check atom types

@<TRIPOS>MOLECULE
CIHGIJ
    25    26     1
SMALL
NO_CHARGES
****
Generated from CSD

@<TRIPOS>ATOM
      1 C1        -0.6084    1.8985    9.0205 C.ar      1 RES1    0.0000
      2 C2        -0.5153    2.0161    7.6589 C.ar      1 RES1    0.0000
      3 C3        -1.5814    1.6016    6.8660 C.ar      1 RES1    0.0000
      4 C4        -2.7146    1.0805    7.4681 C.ar      1 RES1    0.0000
      5 C5        -2.7935    0.9849    8.8420 C.ar      1 RES1    0.0000
      6 C6        -1.7390    1.3899    9.6279 C.ar      1 RES1    0.0000
      7 C7         1.6830    2.7805    9.4581 C.2       1 RES1    0.0000
      8 C8         2.4220    3.0414   10.6202 C.2       1 RES1    0.0000
      9 C9        -3.8448    0.7622    5.3626 C.3       1 RES1    0.0000
     10 C10       -5.1817    0.2256    4.9216 C.3       1 RES1    0.0000
     11 N1         0.5078    2.2983    9.8501 N.pl3     1 RES1    0.0000
     12 N2         0.3521    2.1874   11.1435 N.2       1 RES1    0.0000
     13 O1         1.5544    2.6460   11.6546 O.3       1 RES1    0.0000
     14 O2         3.5118    3.4942   10.8915 O.2       1 RES1    0.0000
     15 O3        -3.8114    0.6255    6.8013 O.3       1 RES1    0.0000
     16 H1         1.9604    2.8716    8.4377 H         1 RES1    0.0000
     17 H2         0.2625    2.4137    7.2248 H         1 RES1    0.0000
     18 H3        -1.4923    1.7008    5.9034 H         1 RES1    0.0000
     19 H4        -3.5720    0.5138    9.2568 H         1 RES1    0.0000
     20 H5        -1.8185    1.3473   10.6027 H         1 RES1    0.0000
     21 H6        -3.7206    1.7412    5.1928 H         1 RES1    0.0000
     22 H7        -3.0751    0.2580    5.0143 H         1 RES1    0.0000
     23 H8        -5.1813   -0.7085    5.0756 H         1 RES1    0.0000
     24 H9        -5.8545    0.8107    5.3381 H         1 RES1    0.0000
     25 H10       -5.2541    0.4381    3.8907 H         1 RES1    0.0000
@<TRIPOS>BOND
     1    1    2 ar
     2    2    3 ar
     3    3    4 ar
     4    4    5 ar
     5    5    6 ar
     6    6    1 ar
     7    7    8 1
     8    8   13 1
     9    9   10 1
    10   10   23 1
    11   11    1 1
    12   12   11 un
    13   13   12 1
    14   14    8 2
    15   15    4 1
    16   16    7 1
    17   17    2 1
    18   18    3 1
    19   19    5 1
    20   20    6 1
    21   21    9 1
    22   22    9 1
    23   24   10 1
    24   25   10 1
    25    7   11 un
    26    9   15 1
@<TRIPOS>SUBSTRUCTURE
     1 RES1 1

@<TRIPOS>CRYSIN
   7.6090    7.3500   17.5670  90.0000  94.9300  90.0000 231 1

