# MOL2 file generated by ConQuest
# Please check atom types

@<TRIPOS>MOLECULE
CIHGOP
    21    22     1
SMALL
NO_CHARGES
****
Generated from CSD

@<TRIPOS>ATOM
      1 C1         0.9007    1.4833   14.7542 C.ar      1 RES1    0.0000
      2 C2         0.9951    2.4324   13.7585 C.ar      1 RES1    0.0000
      3 C3         0.6148    2.0920   12.4784 C.ar      1 RES1    0.0000
      4 C4         0.1414    0.8309   12.1848 C.ar      1 RES1    0.0000
      5 C5         0.0571   -0.0910   13.2060 C.ar      1 RES1    0.0000
      6 C6         0.4329    0.2163   14.4971 C.ar      1 RES1    0.0000
      7 C7         1.8905    1.0637   17.0008 C.2       1 RES1    0.0000
      8 C8         2.0870    1.8568   18.1423 C.2       1 RES1    0.0000
      9 C9        -0.2564    0.4834   10.7880 C.3       1 RES1    0.0000
     10 N1         1.2951    1.8367   16.0981 N.pl3     1 RES1    0.0000
     11 N2         1.0484    3.0694   16.4792 N.2       1 RES1    0.0000
     12 O1         1.5400    3.1001   17.7721 O.3       1 RES1    0.0000
     13 O2         2.5689    1.7055   19.2492 O.2       1 RES1    0.0000
     14 H1         1.3271    3.3294   13.9518 H         1 RES1    0.0000
     15 H2         0.6700    2.7727   11.7180 H         1 RES1    0.0000
     16 H3        -0.2706   -0.9514   13.0036 H         1 RES1    0.0000
     17 H4         0.3755   -0.4397   15.1827 H         1 RES1    0.0000
     18 H5         2.1676    0.1182   16.8604 H         1 RES1    0.0000
     19 H6        -0.5380    1.1914   10.1917 H         1 RES1    0.0000
     20 H7        -0.9980   -0.1501   10.7771 H         1 RES1    0.0000
     21 H8         0.4199   -0.0378   10.3285 H         1 RES1    0.0000
@<TRIPOS>BOND
     1    1    2 ar
     2    2    3 ar
     3    3    4 ar
     4    4    5 ar
     5    5    6 ar
     6    6    1 ar
     7    7    8 1
     8    8   12 1
     9    9    4 1
    10   10    1 1
    11   11   10 un
    12   12   11 1
    13   13    8 2
    14   14    2 1
    15   15    3 1
    16   16    5 1
    17   17    6 1
    18   18    7 1
    19   19    9 1
    20   20    9 1
    21   21    9 1
    22    7   10 un
@<TRIPOS>SUBSTRUCTURE
     1 RES1 1

@<TRIPOS>CRYSIN
   3.8530   11.8190   18.2490  90.0000  92.2200  90.0000  14 1

