# MOL2 file generated by ConQuest
# Please check atom types

@<TRIPOS>MOLECULE
CIHKEJ
    19    19     1
SMALL
USER_CHARGES
****
Generated from CSD

@<TRIPOS>ATOM
      1 O1         8.7322   -0.1193    8.6502 O.2       1 RES1   -1.0000
      2 O2         7.8007   -1.3204    6.3718 O.3       1 RES1    0.0000
      3 N1         7.0269    0.8856   10.1421 N.pl3     1 RES1    1.0000
      4 N2         6.6325    0.6403    8.8833 N.2       1 RES1    0.0000
      5 N3         7.5630    0.1365    8.1726 N.3       1 RES1    0.0000
      6 N4         7.0328   -2.3293    7.0641 N.2       1 RES1    0.0000
      7 C1         4.7642    1.5908   10.7087 C.ar      1 RES1    0.0000
      8 C2         3.8915    2.1728   11.6055 C.ar      1 RES1    0.0000
      9 C3         4.3469    2.6421   12.8122 C.ar      1 RES1    0.0000
     10 C4         5.6779    2.5533   13.1097 C.ar      1 RES1    0.0000
     11 C5         6.5628    1.9607   12.2303 C.ar      1 RES1    0.0000
     12 C6         6.0980    1.4782   11.0083 C.ar      1 RES1    0.0000
     13 C7         7.3167   -0.0610    6.7123 C.3       1 RES1    0.0000
     14 C8         8.2857    0.9359    5.9935 C.3       1 RES1    0.0000
     15 C9         5.8881    0.1631    6.3391 C.3       1 RES1    0.0000
     16 C10        7.3702   -3.4906    6.7093 C.2       1 RES1    0.0000
     17 C11        8.4764   -3.7226    5.7010 C.3       1 RES1    0.0000
     18 C12        6.7273   -4.6307    7.3382 C.3       1 RES1    0.0000
     19 H1         8.0594    0.7026   10.1442 H         1 RES1    0.0000
@<TRIPOS>BOND
     1    1    5 1
     2    2    6 1
     3    3    4 2
     4    4    5 1
     5    5   13 1
     6    6   16 2
     7    7    8 ar
     8    8    9 ar
     9    9   10 ar
    10   10   11 ar
    11   11   12 ar
    12   12    3 1
    13   13    2 1
    14   14   13 1
    15   15   13 1
    16   16   17 1
    17   18   16 1
    18   19    3 1
    19    7   12 ar
@<TRIPOS>SUBSTRUCTURE
     1 RES1 1

@<TRIPOS>CRYSIN
  10.3910   13.2570   10.3210  90.0000  97.7800  90.0000  14 1

