# MOL2 file generated by ConQuest
# Please check atom types

@<TRIPOS>MOLECULE
CIJDAC
    80    80     2
SMALL
NO_CHARGES
****
Generated from CSD

@<TRIPOS>ATOM
      1 C1         7.8528    5.8278   13.9344 C.ar      1 RES1    0.0000
      2 N1         6.1915    6.6998    9.7002 N.3       1 RES1    0.0000
      3 C2         7.8131    4.4584   13.6492 C.ar      1 RES1    0.0000
      4 N2        10.1487    8.6604   15.1069 N.1       1 RES1    0.0000
      5 C3         9.9804    8.0068   14.1958 C.1       1 RES1    0.0000
      6 N3         7.4786    2.1293   14.3365 N.pl3     1 RES1    0.0000
      7 O1         7.7911    1.7903   13.2155 O.2       1 RES1    0.0000
      8 C4         7.8312    6.4856   11.4371 C.2       1 RES1    0.0000
      9 N4        10.5970    8.5777   10.9855 N.1       1 RES1    0.0000
     10 O2         9.7215    5.1203   11.2331 O.3       1 RES1    0.0000
     11 C5         7.5546    6.2495   15.2098 C.ar      1 RES1    0.0000
     12 C6         5.7026    7.8281   11.7282 C.3       1 RES1    0.0000
     13 C7         7.5230    3.5831   14.6731 C.ar      1 RES1    0.0000
     14 C8         6.6332    6.9713   10.9400 C.2       1 RES1    0.0000
     15 C9         8.2278    6.8457   12.8511 C.3       1 RES1    0.0000
     16 C10        7.2500    3.9878   15.9644 C.ar      1 RES1    0.0000
     17 C11        9.7470    7.2049   13.0115 C.3       1 RES1    0.0000
     18 C12       10.2263    7.9672   11.8708 C.1       1 RES1    0.0000
     19 O3         7.1327    1.3594   15.1980 O.2       1 RES1    0.0000
     20 O4         8.4546    5.3986    9.4111 O.2       1 RES1    0.0000
     21 C13        8.6440    5.6440   10.5895 C.2       1 RES1    0.0000
     22 C14       10.6702    4.3639   10.4033 C.3       1 RES1    0.0000
     23 C15        7.2714    5.3328   16.2238 C.ar      1 RES1    0.0000
     24 C16       11.6569    3.7559   11.3024 C.3       1 RES1    0.0000
     25 H1         8.1138    4.0516   12.7635 H         1 RES1    0.0000
     26 H2         7.7230    7.6024   13.0753 H         1 RES1    0.0000
     27 H3         7.1007    5.6456   17.1152 H         1 RES1    0.0000
     28 H4         7.5331    7.1892   15.4054 H         1 RES1    0.0000
     29 H5         7.0624    3.3259   16.6332 H         1 RES1    0.0000
     30 H6         6.1812    8.5540   12.2628 H         1 RES1    0.0000
     31 H7         5.0905    8.2612   11.1285 H         1 RES1    0.0000
     32 H8         5.2133    7.2897   12.3527 H         1 RES1    0.0000
     33 H9        10.1864    3.6859    9.9248 H         1 RES1    0.0000
     34 H10       11.0902    4.9582    9.7766 H         1 RES1    0.0000
     35 H11       12.2955    3.2442   10.7998 H         1 RES1    0.0000
     36 H12       11.2077    3.1825   11.9270 H         1 RES1    0.0000
     37 H13       12.1115    4.4548   11.7788 H         1 RES1    0.0000
     38 H14        5.3556    7.0463    9.3988 H         1 RES1    0.0000
     39 H15        6.7141    6.1583    9.1175 H         1 RES1    0.0000
     40 H16       10.2520    6.3912   13.0793 H         1 RES1    0.0000
     41 O5         4.1686    7.0649   14.5286 O.2       2 RES2    0.0000
     42 N5         3.9420    6.2394   15.4039 N.pl3     2 RES2    0.0000
     43 C17        3.2515    1.4799   16.7090 C.3       2 RES2    0.0000
     44 C18        3.5972    2.5568   15.6851 C.ar      2 RES2    0.0000
     45 O6         3.7255    6.5446   16.5565 O.2       2 RES2    0.0000
     46 C19        3.3917    1.8729   18.1706 C.2       2 RES2    0.0000
     47 C20        4.5468    1.5288   18.8479 C.2       2 RES2    0.0000
     48 C21        3.9077    4.8201   15.0257 C.ar      2 RES2    0.0000
     49 C22        5.6641    0.7648   18.2162 C.3       2 RES2    0.0000
     50 N6         0.7535   -0.4756   18.2478 N.1       2 RES2    0.0000
     51 C23        3.6267    3.9027   16.0119 C.ar      2 RES2    0.0000
     52 C24        1.8889    0.8171   16.2991 C.3       2 RES2    0.0000
     53 C25        1.2366    0.1020   17.4062 C.1       2 RES2    0.0000
     54 C26        4.1850    3.1277   13.4076 C.ar      2 RES2    0.0000
     55 O7         2.3515    2.8865   20.0659 O.2       2 RES2    0.0000
     56 C27        0.9177    1.7076   15.6455 C.1       2 RES2    0.0000
     57 N7         0.1976    2.3519   15.0573 N.1       2 RES2    0.0000
     58 N8         4.7506    1.8544   20.1332 N.3       2 RES2    0.0000
     59 O8         1.3669    2.9953   18.0538 O.3       2 RES2    0.0000
     60 C28        2.3566    2.6032   18.8816 C.2       2 RES2    0.0000
     61 C29        0.2982    3.7660   18.6756 C.3       2 RES2    0.0000
     62 C30        4.1861    4.4676   13.7364 C.ar      2 RES2    0.0000
     63 C31        3.8975    2.1866   14.3820 C.ar      2 RES2    0.0000
     64 C32       -0.3777    4.5596   17.7943 C.3       2 RES2    0.0000
     65 H17        3.7882    1.1931   14.1658 H         2 RES2    0.0000
     66 H18        4.4813    5.0883   13.0294 H         2 RES2    0.0000
     67 H19        4.3770    2.8457   12.5112 H         2 RES2    0.0000
     68 H20        3.7047    0.6527   16.6851 H         2 RES2    0.0000
     69 H21       -0.3228    3.1691   19.0991 H         2 RES2    0.0000
     70 H22        0.6902    4.3418   19.3361 H         2 RES2    0.0000
     71 H23       -1.0658    5.0661   18.2300 H         2 RES2    0.0000
     72 H24       -0.7713    3.9856   17.1331 H         2 RES2    0.0000
     73 H25        0.2417    5.1583   17.3701 H         2 RES2    0.0000
     74 H26        5.4914    0.6047   17.2493 H         2 RES2    0.0000
     75 H27        6.4849    1.2541   18.3100 H         2 RES2    0.0000
     76 H28        5.7512   -0.0900   18.6453 H         2 RES2    0.0000
     77 H29        3.4471    4.1633   16.9180 H         2 RES2    0.0000
     78 H30        5.5414    1.5988   20.5736 H         2 RES2    0.0000
     79 H31        4.0908    2.3450   20.6132 H         2 RES2    0.0000
     80 H32        2.1407    0.1791   15.6277 H         2 RES2    0.0000
@<TRIPOS>BOND
     1    1    3 ar
     2    2   14 1
     3    3   13 ar
     4    4    5 3
     5    5   17 1
     6    6    7 2
     7    8   14 2
     8    9   18 3
     9   10   21 1
    10   11    1 ar
    11   12   14 1
    12   13    6 1
    13   15    1 1
    14   16   13 ar
    15   17   15 1
    16   18   17 1
    17   19    6 2
    18   20   21 2
    19   21    8 1
    20   22   10 1
    21   23   11 ar
    22   24   22 1
    23   25    3 1
    24   26   15 1
    25   27   23 1
    26   28   11 1
    27   29   16 1
    28   30   12 1
    29   31   12 1
    30   32   12 1
    31   33   22 1
    32   34   22 1
    33   35   24 1
    34   36   24 1
    35   37   24 1
    36   38    2 1
    37   39    2 1
    38   40   17 1
    39   41   42 2
    40   42   45 2
    41   43   44 1
    42   44   51 ar
    43   46   43 1
    44   47   46 2
    45   48   42 1
    46   49   47 1
    47   50   53 3
    48   51   48 ar
    49   52   43 1
    50   53   52 1
    51   54   62 ar
    52   55   60 2
    53   56   52 1
    54   57   56 3
    55   58   47 1
    56   59   60 1
    57   60   46 1
    58   61   59 1
    59   62   48 ar
    60   63   44 ar
    61   64   61 1
    62   65   63 1
    63   66   62 1
    64   67   54 1
    65   68   43 1
    66   69   61 1
    67   70   61 1
    68   71   64 1
    69   72   64 1
    70   73   64 1
    71   74   49 1
    72   75   49 1
    73   76   49 1
    74   77   51 1
    75   78   58 1
    76   79   58 1
    77   80   52 1
    78    8   15 1
    79   16   23 ar
    80   54   63 ar
@<TRIPOS>SUBSTRUCTURE
     1 RES1 1
     2 RES2 41

@<TRIPOS>CRYSIN
  19.8757    8.4327   20.6370  90.0000 106.3299  90.0000 231 1

