# MOL2 file generated by ConQuest
# Please check atom types

@<TRIPOS>MOLECULE
CIJYIE
    30    30     2
SMALL
NO_CHARGES
****
Generated from CSD

@<TRIPOS>ATOM
      1 N1         7.4720    2.1046    2.5054 N.pl3     1 RES1    0.0000
      2 H1         7.8542    1.3748    2.8589 H         1 RES1    0.0000
      3 C1         6.7259    2.9566    3.2304 C.2       1 RES1    0.0000
      4 C2         6.5202    2.8233    4.6954 C.3       1 RES1    0.0000
      5 H2         6.3394    3.6870    5.0725 H         1 RES1    0.0000
      6 H3         7.3116    2.4573    5.0970 H         1 RES1    0.0000
      7 H4         5.7778    2.2381    4.8623 H         1 RES1    0.0000
      8 N2         6.2090    3.9128    2.4682 N.2       1 RES1    0.0000
      9 C3         6.6583    3.6318    1.2303 C.2       1 RES1    0.0000
     10 N3         6.3095    4.4487    0.1057 N.pl3     1 RES1    0.0000
     11 O1         5.5169    5.3684    0.2688 O.2       1 RES1    0.0000
     12 O2         6.8387    4.1807   -0.9659 O.2       1 RES1    0.0000
     13 C4         7.4389    2.5171    1.2036 C.2       1 RES1    0.0000
     14 C5         8.1310    1.8540    0.1491 C.1       1 RES1    0.0000
     15 N4         8.7024    1.3261   -0.6852 N.1       1 RES1    0.0000
     16 N5         4.2027    5.8710    3.0524 N.pl3     2 RES2    0.0000
     17 H5         4.8949    5.4434    2.9145 H         2 RES2    0.0000
     18 C6         4.0874    7.1961    2.7988 C.2       2 RES2    0.0000
     19 C7         5.1655    8.0213    2.2070 C.3       2 RES2    0.0000
     20 H6         4.9324    8.2549    1.3059 H         2 RES2    0.0000
     21 H7         5.9864    7.5234    2.2070 H         2 RES2    0.0000
     22 H8         5.2777    8.8215    2.7265 H         2 RES2    0.0000
     23 N6         2.8752    7.6339    3.1273 N.2       2 RES2    0.0000
     24 C8         2.2367    6.5424    3.5897 C.2       2 RES2    0.0000
     25 N7         0.8674    6.6124    4.0186 N.pl3     2 RES2    0.0000
     26 O3         0.2927    7.6908    3.9346 O.2       2 RES2    0.0000
     27 O4         0.3591    5.5916    4.4668 O.2       2 RES2    0.0000
     28 C9         3.0172    5.4256    3.5608 C.2       2 RES2    0.0000
     29 C10        2.7806    4.0775    3.9401 C.1       2 RES2    0.0000
     30 N8         2.5972    3.0020    4.2538 N.1       2 RES2    0.0000
@<TRIPOS>BOND
     1    1    2 1
     2    3    1 1
     3    4    3 1
     4    5    4 1
     5    6    4 1
     6    7    4 1
     7    8    3 2
     8    9    8 1
     9   10    9 1
    10   11   10 2
    11   12   10 2
    12   13    1 1
    13   14   13 1
    14   15   14 3
    15   16   17 1
    16   18   16 1
    17   19   18 1
    18   20   19 1
    19   21   19 1
    20   22   19 1
    21   23   18 2
    22   24   23 1
    23   25   24 1
    24   26   25 2
    25   27   25 2
    26   28   16 1
    27   29   28 1
    28   30   29 3
    29    9   13 2
    30   24   28 2
@<TRIPOS>SUBSTRUCTURE
     1 RES1 1
     2 RES2 16

@<TRIPOS>CRYSIN
   7.7166    8.1716   11.7150  74.2780  77.6300  77.1500   2 1

