# MOL2 file generated by ConQuest
# Please check atom types

@<TRIPOS>MOLECULE
CIJZUR
    31    31     1
SMALL
NO_CHARGES
****
Generated from CSD

@<TRIPOS>ATOM
      1 C1         4.2670    1.5566    6.1321 C.ar      1 RES1    0.0000
      2 C2         5.6608    1.5946    5.9149 C.ar      1 RES1    0.0000
      3 N1         6.5155    2.5215    6.6062 N.pl3     1 RES1    0.0000
      4 O1         7.7377    2.4507    6.4340 O.2       1 RES1    0.0000
      5 O2         6.0184    3.3709    7.3739 O.2       1 RES1    0.0000
      6 C3         6.2896    0.7036    5.0315 C.ar      1 RES1    0.0000
      7 C4         5.5574   -0.2378    4.3619 C.ar      1 RES1    0.0000
      8 C5         4.1757   -0.3061    4.5832 C.ar      1 RES1    0.0000
      9 C6         3.5458    0.5567    5.4383 C.ar      1 RES1    0.0000
     10 N2         3.6251    2.4132    6.9804 N.3       1 RES1    0.0000
     11 N3         2.2644    2.2838    7.1539 N.2       1 RES1    0.0000
     12 C7         1.6978    3.1255    7.9396 C.2       1 RES1    0.0000
     13 C8         2.3904    4.2450    8.6654 C.3       1 RES1    0.0000
     14 C9         0.2265    2.9277    8.1376 C.3       1 RES1    0.0000
     15 C10       -0.6010    4.0540    7.5695 C.2       1 RES1    0.0000
     16 O3        -0.1823    4.9450    6.8738 O.2       1 RES1    0.0000
     17 O4        -1.8862    3.9287    7.9286 O.3       1 RES1    0.0000
     18 C11       -2.7745    4.9486    7.4125 C.3       1 RES1    0.0000
     19 H1         7.2292    0.7544    4.8980 H         1 RES1    0.0000
     20 H2         5.9794   -0.8355    3.7553 H         1 RES1    0.0000
     21 H3         3.6649   -0.9660    4.1301 H         1 RES1    0.0000
     22 H4         2.6074    0.4833    5.5690 H         1 RES1    0.0000
     23 H5         4.0734    3.0371    7.4101 H         1 RES1    0.0000
     24 H6         2.6545    4.9368    8.0226 H         1 RES1    0.0000
     25 H7         3.1880    3.8978    9.1177 H         1 RES1    0.0000
     26 H8         1.7807    4.6302    9.3298 H         1 RES1    0.0000
     27 H9        -0.0454    2.0794    7.7063 H         1 RES1    0.0000
     28 H10        0.0400    2.8481    9.1067 H         1 RES1    0.0000
     29 H11       -2.8032    4.8916    6.4338 H         1 RES1    0.0000
     30 H12       -2.4463    5.8329    7.6788 H         1 RES1    0.0000
     31 H13       -3.6743    4.8120    7.7739 H         1 RES1    0.0000
@<TRIPOS>BOND
     1    1    2 ar
     2    2    3 1
     3    3    4 2
     4    5    3 2
     5    6    2 ar
     6    7    6 ar
     7    8    7 ar
     8    9    1 ar
     9   10    1 1
    10   11   10 1
    11   12   11 2
    12   13   12 1
    13   14   12 1
    14   15   14 1
    15   16   15 2
    16   17   15 1
    17   18   17 1
    18   19    6 1
    19   20    7 1
    20   21    8 1
    21   22    9 1
    22   23   10 1
    23   24   13 1
    24   25   13 1
    25   26   13 1
    26   27   14 1
    27   28   14 1
    28   29   18 1
    29   30   18 1
    30   31   18 1
    31    8    9 ar
@<TRIPOS>SUBSTRUCTURE
     1 RES1 1

@<TRIPOS>CRYSIN
  12.1494    5.1355   18.6969  90.0000 102.0790  90.0000 231 1

