# MOL2 file generated by ConQuest
# Please check atom types

@<TRIPOS>MOLECULE
CIKBAA
    33    33     1
SMALL
NO_CHARGES
****
Generated from CSD

@<TRIPOS>ATOM
      1 O1         0.1674    6.7268   14.1786 O.3       1 RES1    0.0000
      2 O2         1.4623    5.3353   15.3486 O.2       1 RES1    0.0000
      3 O3         7.0440    3.2799   13.3239 O.2       1 RES1    0.0000
      4 O4         9.0813    3.9927   13.3863 O.2       1 RES1    0.0000
      5 O5        10.4666    7.7244   10.7991 O.2       1 RES1    0.0000
      6 O6         8.9957    9.1667   10.1050 O.2       1 RES1    0.0000
      7 N1         5.1202    4.9258   12.6278 N.3       1 RES1    0.0000
      8 N2         3.8369    5.4284   12.5621 N.2       1 RES1    0.0000
      9 N3         7.9029    4.1362   13.0686 N.pl3     1 RES1    0.0000
     10 N4         9.3000    8.1109   10.6751 N.pl3     1 RES1    0.0000
     11 C1         6.1481    5.7066   12.1960 C.ar      1 RES1    0.0000
     12 C2         7.5098    5.3375   12.3549 C.ar      1 RES1    0.0000
     13 C3         8.5382    6.1214   11.8494 C.ar      1 RES1    0.0000
     14 C4         8.2251    7.2943   11.2056 C.ar      1 RES1    0.0000
     15 C5         6.8971    7.7208   11.0640 C.ar      1 RES1    0.0000
     16 C6         5.8828    6.9383   11.5568 C.ar      1 RES1    0.0000
     17 C7         1.0732    5.7587   14.2973 C.2       1 RES1    0.0000
     18 C8         1.5278    5.2679   12.9408 C.3       1 RES1    0.0000
     19 C9         2.9015    4.6577   12.9915 C.2       1 RES1    0.0000
     20 C10        3.0891    3.2763   13.5345 C.3       1 RES1    0.0000
     21 C11       -0.3968    7.2300   15.4202 C.3       1 RES1    0.0000
     22 H1         5.3061    4.1195   13.0602 H         1 RES1    0.0000
     23 H2         9.4440    5.8514   11.9479 H         1 RES1    0.0000
     24 H3         6.7013    8.5436   10.6324 H         1 RES1    0.0000
     25 H4         4.9835    7.2310   11.4656 H         1 RES1    0.0000
     26 H5         0.8849    4.5936   12.6067 H         1 RES1    0.0000
     27 H6         1.5321    6.0269   12.3050 H         1 RES1    0.0000
     28 H7         3.6541    2.7593   12.9227 H         1 RES1    0.0000
     29 H8         2.2164    2.8385   13.6225 H         1 RES1    0.0000
     30 H9         3.5193    3.3261   14.4126 H         1 RES1    0.0000
     31 H10       -0.9008    6.5156   15.8635 H         1 RES1    0.0000
     32 H11       -0.9963    7.9806   15.2253 H         1 RES1    0.0000
     33 H12        0.3257    7.5321   16.0092 H         1 RES1    0.0000
@<TRIPOS>BOND
     1    1   17 1
     2    2   17 2
     3    3    9 2
     4    4    9 2
     5    5   10 2
     6    6   10 2
     7    7    8 1
     8    8   19 2
     9    9   12 1
    10   10   14 1
    11   11    7 1
    12   12   11 ar
    13   13   12 ar
    14   14   13 ar
    15   15   14 ar
    16   16   11 ar
    17   17   18 1
    18   18   19 1
    19   19   20 1
    20   20   28 1
    21   21    1 1
    22   22    7 1
    23   23   13 1
    24   24   15 1
    25   25   16 1
    26   26   18 1
    27   27   18 1
    28   29   20 1
    29   30   20 1
    30   31   21 1
    31   32   21 1
    32   33   21 1
    33   15   16 ar
@<TRIPOS>SUBSTRUCTURE
     1 RES1 1

@<TRIPOS>CRYSIN
  10.6100   12.1878   20.5220  90.0000  90.0000  90.0000  61 1

