# MOL2 file generated by ConQuest
# Please check atom types

@<TRIPOS>MOLECULE
CIKDAD
    35    36     1
SMALL
NO_CHARGES
****
Generated from CSD

@<TRIPOS>ATOM
      1 O1         1.2395   -1.6730    0.3920 O.3       1 RES1    0.0000
      2 N1         2.1639    0.8901    0.2201 N.2       1 RES1    0.0000
      3 O2         1.9591   -1.8362    2.5030 O.2       1 RES1    0.0000
      4 O3         2.5878    7.1470   -3.2149 O.2       1 RES1    0.0000
      5 N2         2.5833    2.1201    0.5527 N.pl3     1 RES1    0.0000
      6 N3         2.7606    5.9737   -3.5240 N.pl3     1 RES1    0.0000
      7 C1         2.7703    0.9929    2.4242 C.2       1 RES1    0.0000
      8 N4         3.0630    0.5342    3.7013 N.3       1 RES1    0.0000
      9 H1         2.7405   -0.2241    3.9931 H         1 RES1    0.0000
     10 C2         2.2563    0.2021    1.3644 C.2       1 RES1    0.0000
     11 C3         2.2124    4.4036   -0.2052 C.ar      1 RES1    0.0000
     12 H2         1.8988    4.6359    0.6391 H         1 RES1    0.0000
     13 C4         2.9662    2.2401    1.8824 C.2       1 RES1    0.0000
     14 C5         1.8183   -1.1868    1.4900 C.2       1 RES1    0.0000
     15 C6         3.0891    2.7442   -1.7261 C.ar      1 RES1    0.0000
     16 H3         3.3677    1.8709   -1.8879 H         1 RES1    0.0000
     17 C7         2.2600    5.3501   -1.2158 C.ar      1 RES1    0.0000
     18 H4         1.9948    6.2281   -1.0564 H         1 RES1    0.0000
     19 C8         2.6392    3.1134   -0.4632 C.ar      1 RES1    0.0000
     20 C9         3.5494    3.4920    2.4428 C.3       1 RES1    0.0000
     21 H5         2.8478    4.0402    2.8001 H         1 RES1    0.0000
     22 H6         4.0091    3.9705    1.7499 H         1 RES1    0.0000
     23 H7         4.1685    3.2691    3.1430 H         1 RES1    0.0000
     24 C10        2.7047    4.9646   -2.4584 C.ar      1 RES1    0.0000
     25 O4         2.9684    5.6068   -4.6733 O.2       1 RES1    0.0000
     26 C11        3.1167    3.6848   -2.7435 C.ar      1 RES1    0.0000
     27 H8         3.4079    3.4549   -3.5959 H         1 RES1    0.0000
     28 C12        2.8731    1.3715    4.8679 C.3       1 RES1    0.0000
     29 H9         3.1293    0.8861    5.6561 H         1 RES1    0.0000
     30 H10        1.9494    1.6247    4.9332 H         1 RES1    0.0000
     31 H11        3.4154    2.1600    4.7873 H         1 RES1    0.0000
     32 C13        0.7546   -3.0275    0.5104 C.3       1 RES1    0.0000
     33 H12        1.4704   -3.5942    0.8082 H         1 RES1    0.0000
     34 H13        0.4395   -3.3318   -0.3444 H         1 RES1    0.0000
     35 H14        0.0365   -3.0600    1.1464 H         1 RES1    0.0000
@<TRIPOS>BOND
     1    1   14 1
     2    2    5 1
     3    3   14 2
     4    4    6 2
     5    5   13 1
     6    6   24 1
     7    7    8 1
     8    8    9 1
     9   10    2 2
    10   11   12 1
    11   13    7 2
    12   14   10 1
    13   15   16 1
    14   17   11 ar
    15   18   17 1
    16   19    5 1
    17   20   13 1
    18   21   20 1
    19   22   20 1
    20   23   20 1
    21   24   17 ar
    22   25    6 2
    23   26   15 ar
    24   27   26 1
    25   28    8 1
    26   29   28 1
    27   30   28 1
    28   31   28 1
    29   32    1 1
    30   33   32 1
    31   34   32 1
    32   35   32 1
    33    7   10 1
    34   11   19 ar
    35   15   19 ar
    36   24   26 ar
@<TRIPOS>SUBSTRUCTURE
     1 RES1 1

@<TRIPOS>CRYSIN
   7.4490   11.6130   15.5131  90.0000  90.0000  90.0000  19 1

