# MOL2 file generated by ConQuest
# Please check atom types

@<TRIPOS>MOLECULE
CIKFAD
   156   160     4
SMALL
NO_CHARGES
****
Generated from CSD

@<TRIPOS>ATOM
      1 C1        13.9611    4.8381    3.6484 C.3       1 RES1    0.0000
      2 H1        13.6113    3.8284    3.4903 H         1 RES1    0.0000
      3 C2        12.9604    5.6065    4.4964 C.ar      1 RES1    0.0000
      4 C3        13.1347    6.9867    4.7318 C.ar      1 RES1    0.0000
      5 H2        13.9514    7.5139    4.2637 H         1 RES1    0.0000
      6 C4        12.2791    7.6556    5.5308 C.ar      1 RES1    0.0000
      7 H3        12.4084    8.7113    5.7216 H         1 RES1    0.0000
      8 C5        11.2067    7.0078    6.1352 C.ar      1 RES1    0.0000
      9 C6        10.9997    5.6624    5.9252 C.ar      1 RES1    0.0000
     10 H4        10.1433    5.1825    6.3770 H         1 RES1    0.0000
     11 C7        11.8969    4.9649    5.1218 C.ar      1 RES1    0.0000
     12 H5        11.7701    3.9043    4.9609 H         1 RES1    0.0000
     13 C8        15.3293    4.7274    4.2846 C.3       1 RES1    0.0000
     14 H6        15.7197    5.7346    4.3119 H         1 RES1    0.0000
     15 C9        15.2551    4.2350    5.7344 C.ar      1 RES1    0.0000
     16 C10       15.6262    5.0345    6.7460 C.ar      1 RES1    0.0000
     17 H7        16.0230    6.0181    6.5451 H         1 RES1    0.0000
     18 C11       15.5244    4.6006    8.1148 C.ar      1 RES1    0.0000
     19 H8        15.7535    5.2409    8.9529 H         1 RES1    0.0000
     20 C12       15.0666    3.3820    8.3748 C.ar      1 RES1    0.0000
     21 H9        15.0099    2.9842    9.3773 H         1 RES1    0.0000
     22 C13       14.7016    2.5303    7.3568 C.ar      1 RES1    0.0000
     23 H10       14.3130    1.5431    7.5586 H         1 RES1    0.0000
     24 C14       14.7673    2.9431    6.0198 C.ar      1 RES1    0.0000
     25 H11       14.4505    2.3078    5.2063 H         1 RES1    0.0000
     26 C15       13.9904    5.4623    2.2896 C.2       1 RES1    0.0000
     27 O1        14.7268    6.3936    1.9924 O.2       1 RES1    0.0000
     28 O2        13.1717    4.9264    1.4370 O.3       1 RES1    0.0000
     29 C16       13.0438    5.6127    0.1663 C.3       1 RES1    0.0000
     30 H12       12.3479    5.1054   -0.4863 H         1 RES1    0.0000
     31 H13       14.0217    5.6289   -0.2918 H         1 RES1    0.0000
     32 H14       12.7083    6.6261    0.3318 H         1 RES1    0.0000
     33 C17       16.2896    3.8670    3.4284 C.3       1 RES1    0.0000
     34 H15       16.3479    4.2226    2.4105 H         1 RES1    0.0000
     35 H16       15.8929    2.8623    3.4366 H         1 RES1    0.0000
     36 H17       17.2763    3.8670    3.8675 H         1 RES1    0.0000
     37 N1        10.2314    7.7352    7.0323 N.pl3     1 RES1    0.0000
     38 O3        10.4350    8.9450    7.1123 O.2       1 RES1    0.0000
     39 O4         9.3806    7.1048    7.5377 O.2       1 RES1    0.0000
     40 C18       13.9658   -1.2509    2.0696 C.3       2 RES2    0.0000
     41 H18       13.6109   -2.2704    2.0996 H         2 RES2    0.0000
     42 C19       13.1802   -0.5098    0.9971 C.ar      2 RES2    0.0000
     43 C20       13.3551    0.8666    0.7889 C.ar      2 RES2    0.0000
     44 H19       14.0750    1.4001    1.3934 H         2 RES2    0.0000
     45 C21       12.6654    1.4958   -0.1718 C.ar      2 RES2    0.0000
     46 H20       12.7617    2.5639   -0.3090 H         2 RES2    0.0000
     47 C22       11.7826    0.7933   -0.9335 C.ar      2 RES2    0.0000
     48 C23       11.5729   -0.5583   -0.7617 C.ar      2 RES2    0.0000
     49 H21       10.8540   -1.0793   -1.3770 H         2 RES2    0.0000
     50 C24       12.3062   -1.2086    0.2290 C.ar      2 RES2    0.0000
     51 H22       12.1878   -2.2729    0.3681 H         2 RES2    0.0000
     52 C25       15.5005   -1.3230    1.7070 C.3       2 RES2    0.0000
     53 H23       15.8973   -0.3196    1.6697 H         2 RES2    0.0000
     54 C26       15.7378   -1.9322    0.3308 C.ar      2 RES2    0.0000
     55 C27       16.2677   -1.1713   -0.6481 C.ar      2 RES2    0.0000
     56 H24       16.5144   -0.1393   -0.4490 H         2 RES2    0.0000
     57 C28       16.4626   -1.7495   -1.9578 C.ar      2 RES2    0.0000
     58 H25       16.9206   -1.2011   -2.7677 H         2 RES2    0.0000
     59 C29       16.1130   -3.0538   -2.1441 C.ar      2 RES2    0.0000
     60 H26       16.3169   -3.5014   -3.1058 H         2 RES2    0.0000
     61 C30       15.5356   -3.7899   -1.2134 C.ar      2 RES2    0.0000
     62 H27       15.1615   -4.7747   -1.4570 H         2 RES2    0.0000
     63 C31       15.3734   -3.2216    0.0718 C.ar      2 RES2    0.0000
     64 H28       15.0320   -3.8284    0.8980 H         2 RES2    0.0000
     65 C32       13.7731   -0.5993    3.4121 C.2       2 RES2    0.0000
     66 O5        14.3560    0.4053    3.7666 O.2       2 RES2    0.0000
     67 O6        12.8624   -1.1874    4.1038 O.3       2 RES2    0.0000
     68 C33       12.5092   -0.5371    5.3754 C.3       2 RES2    0.0000
     69 H29       11.7612   -1.1153    5.8980 H         2 RES2    0.0000
     70 H30       12.1251    0.4526    5.1763 H         2 RES2    0.0000
     71 H31       13.3963   -0.4638    5.9852 H         2 RES2    0.0000
     72 C34       16.2829   -2.1113    2.7840 C.3       2 RES2    0.0000
     73 H32       17.3409   -2.1474    2.5686 H         2 RES2    0.0000
     74 H33       15.8867   -3.1147    2.8149 H         2 RES2    0.0000
     75 H34       16.1263   -1.6338    3.7402 H         2 RES2    0.0000
     76 N2        10.9920    1.5045   -1.9296 N.pl3     2 RES2    0.0000
     77 O7        11.2292    2.7181   -2.1832 O.2       2 RES2    0.0000
     78 O8        10.2135    0.8617   -2.6350 O.2       2 RES2    0.0000
     79 C35       20.1259    1.8688   10.4971 C.3       3 RES3    0.0000
     80 H35       20.4555    0.8430   10.5816 H         3 RES3    0.0000
     81 C36       21.0934    2.6373    9.5964 C.ar      3 RES3    0.0000
     82 C37       20.9593    3.9876    9.3437 C.ar      3 RES3    0.0000
     83 H36       20.1488    4.5334    9.8045 H         3 RES3    0.0000
     84 C38       21.8607    4.6453    8.5266 C.ar      3 RES3    0.0000
     85 H37       21.7686    5.7109    8.3757 H         3 RES3    0.0000
     86 C39       22.8845    3.9217    7.9403 C.ar      3 RES3    0.0000
     87 C40       23.0194    2.5937    8.1848 C.ar      3 RES3    0.0000
     88 H38       23.8249    2.0454    7.7185 H         3 RES3    0.0000
     89 C41       22.1591    1.9521    8.9756 C.ar      3 RES3    0.0000
     90 H39       22.2830    0.8915    9.1383 H         3 RES3    0.0000
     91 C42       18.6912    1.8054    9.8654 C.3       3 RES3    0.0000
     92 H40       18.2593    2.7865    9.7318 H         3 RES3    0.0000
     93 C43       18.7351    1.1912    8.4711 C.ar      3 RES3    0.0000
     94 C44       18.3070    1.9148    7.3695 C.ar      3 RES3    0.0000
     95 H41       17.9467    2.9195    7.5359 H         3 RES3    0.0000
     96 C45       18.3291    1.3466    6.1107 C.ar      3 RES3    0.0000
     97 H42       18.0084    1.9198    5.2536 H         3 RES3    0.0000
     98 C46       18.7810    0.0448    5.9362 C.ar      3 RES3    0.0000
     99 H43       18.7863   -0.4029    4.9536 H         3 RES3    0.0000
    100 C47       19.2299   -0.6702    7.0223 C.ar      3 RES3    0.0000
    101 H44       19.5904   -1.6786    6.8814 H         3 RES3    0.0000
    102 C48       19.1728   -0.0982    8.2739 C.ar      3 RES3    0.0000
    103 H45       19.4657   -0.6826    9.1337 H         3 RES3    0.0000
    104 C49       20.0664    2.5428   11.8278 C.2       3 RES3    0.0000
    105 O9        19.4449    3.5636   12.0486 O.2       3 RES3    0.0000
    106 O10       20.7803    1.9198   12.7112 O.3       3 RES3    0.0000
    107 C50       20.8859    2.5403   14.0392 C.3       3 RES3    0.0000
    108 H46       21.4809    1.8850   14.6563 H         3 RES3    0.0000
    109 H47       19.9286    2.7069   14.5109 H         3 RES3    0.0000
    110 H48       21.3956    3.4840   13.9192 H         3 RES3    0.0000
    111 C51       17.7769    1.0034   10.7843 C.3       3 RES3    0.0000
    112 H49       16.7747    0.9500   10.3890 H         3 RES3    0.0000
    113 H50       17.7640    1.5194   11.7323 H         3 RES3    0.0000
    114 H51       18.1641    0.0037   10.9243 H         3 RES3    0.0000
    115 N3        23.7967    4.6279    7.1514 N.pl3     3 RES3    0.0000
    116 O11       23.6416    5.8253    6.8623 O.2       3 RES3    0.0000
    117 O12       24.7485    4.0125    6.5988 O.2       3 RES3    0.0000
    118 C52        7.4358    4.4961   -1.6115 C.3       4 RES4    0.0000
    119 H52        7.7959    5.5145   -1.6379 H         4 RES4    0.0000
    120 C53        8.2507    3.7053   -0.5835 C.ar      4 RES4    0.0000
    121 C54        8.0447    2.3488   -0.3672 C.ar      4 RES4    0.0000
    122 H53        7.3463    1.8154   -0.9944 H         4 RES4    0.0000
    123 C55        8.7379    1.6662    0.5863 C.ar      4 RES4    0.0000
    124 H54        8.5559    0.6105    0.7280 H         4 RES4    0.0000
    125 C56        9.6523    2.3102    1.3888 C.ar      4 RES4    0.0000
    126 C57        9.8849    3.6444    1.2352 C.ar      4 RES4    0.0000
    127 H55       10.6232    4.1368    1.8487 H         4 RES4    0.0000
    128 C58        9.2075    4.3357    0.2627 C.ar      4 RES4    0.0000
    129 H56        9.3872    5.3939    0.1427 H         4 RES4    0.0000
    130 C59        5.9856    4.5720   -1.2679 C.3       4 RES4    0.0000
    131 H57        5.5435    3.5909   -1.3552 H         4 RES4    0.0000
    132 C60        5.7848    5.0743    0.1554 C.ar      4 RES4    0.0000
    133 C61        5.2367    4.2673    1.1498 C.ar      4 RES4    0.0000
    134 H58        4.9044    3.2714    0.9007 H         4 RES4    0.0000
    135 C62        5.0918    4.6715    2.4277 C.ar      4 RES4    0.0000
    136 H59        4.6856    3.9888    3.1594 H         4 RES4    0.0000
    137 C63        5.4891    5.9397    2.7958 C.ar      4 RES4    0.0000
    138 H60        5.3969    6.2605    3.8229 H         4 RES4    0.0000
    139 C64        6.0032    6.7890    1.8115 C.ar      4 RES4    0.0000
    140 H61        6.2628    7.8048    2.0723 H         4 RES4    0.0000
    141 C65        6.1802    6.3849    0.5154 C.ar      4 RES4    0.0000
    142 H62        6.6274    7.0439   -0.2145 H         4 RES4    0.0000
    143 C66        7.6903    3.8508   -2.9394 C.2       4 RES4    0.0000
    144 O13        7.0616    2.8747   -3.3312 O.2       4 RES4    0.0000
    145 O14        8.6816    4.3991   -3.6130 O.3       4 RES4    0.0000
    146 C67        9.1247    3.7327   -4.8482 C.3       4 RES4    0.0000
    147 H63        9.9209    4.3221   -5.2763 H         4 RES4    0.0000
    148 H64        8.3165    3.6481   -5.5599 H         4 RES4    0.0000
    149 H65        9.4962    2.7467   -4.6064 H         4 RES4    0.0000
    150 C68        5.2436    5.4374   -2.2823 C.3       4 RES4    0.0000
    151 H66        5.3607    5.0482   -3.2830 H         4 RES4    0.0000
    152 H67        5.6723    6.4259   -2.2259 H         4 RES4    0.0000
    153 H68        4.1910    5.4871   -2.0387 H         4 RES4    0.0000
    154 N4        10.3693    1.6052    2.4604 N.pl3     4 RES4    0.0000
    155 O15       10.1736    0.3942    2.5204 O.2       4 RES4    0.0000
    156 O16       11.1698    2.1784    3.1394 O.2       4 RES4    0.0000
@<TRIPOS>BOND
     1    1    2 1
     2    3    1 1
     3    4    3 ar
     4    5    4 1
     5    6    4 ar
     6    7    6 1
     7    8    6 ar
     8    9    8 ar
     9   10    9 1
    10   11    3 ar
    11   12   11 1
    12   13    1 1
    13   14   13 1
    14   15   13 1
    15   16   15 ar
    16   17   16 1
    17   18   16 ar
    18   19   18 1
    19   20   18 ar
    20   21   20 1
    21   22   20 ar
    22   23   22 1
    23   24   15 ar
    24   25   24 1
    25   26    1 1
    26   27   26 2
    27   28   26 1
    28   29   28 1
    29   30   29 1
    30   31   29 1
    31   32   29 1
    32   33   13 1
    33   34   33 1
    34   35   33 1
    35   36   33 1
    36   37    8 1
    37   38   37 2
    38   39   37 2
    39   40   41 1
    40   42   40 1
    41   43   42 ar
    42   44   43 1
    43   45   43 ar
    44   46   45 1
    45   47   45 ar
    46   48   47 ar
    47   49   48 1
    48   50   42 ar
    49   51   50 1
    50   52   40 1
    51   53   52 1
    52   54   52 1
    53   55   54 ar
    54   56   55 1
    55   57   55 ar
    56   58   57 1
    57   59   57 ar
    58   60   59 1
    59   61   59 ar
    60   62   61 1
    61   63   54 ar
    62   64   63 1
    63   65   40 1
    64   66   65 2
    65   67   65 1
    66   68   67 1
    67   69   68 1
    68   70   68 1
    69   71   68 1
    70   72   52 1
    71   73   72 1
    72   74   72 1
    73   75   72 1
    74   76   47 1
    75   77   76 2
    76   78   76 2
    77   79   80 1
    78   81   79 1
    79   82   81 ar
    80   83   82 1
    81   84   82 ar
    82   85   84 1
    83   86   84 ar
    84   87   86 ar
    85   88   87 1
    86   89   81 ar
    87   90   89 1
    88   91   79 1
    89   92   91 1
    90   93   91 1
    91   94   93 ar
    92   95   94 1
    93   96   94 ar
    94   97   96 1
    95   98   96 ar
    96   99   98 1
    97  100   98 ar
    98  101  100 1
    99  102   93 ar
   100  103  102 1
   101  104   79 1
   102  105  104 2
   103  106  104 1
   104  107  106 1
   105  108  107 1
   106  109  107 1
   107  110  107 1
   108  111   91 1
   109  112  111 1
   110  113  111 1
   111  114  111 1
   112  115   86 1
   113  116  115 2
   114  117  115 2
   115  118  119 1
   116  120  118 1
   117  121  120 ar
   118  122  121 1
   119  123  121 ar
   120  124  123 1
   121  125  123 ar
   122  126  125 ar
   123  127  126 1
   124  128  120 ar
   125  129  128 1
   126  130  118 1
   127  131  130 1
   128  132  130 1
   129  133  132 ar
   130  134  133 1
   131  135  133 ar
   132  136  135 1
   133  137  135 ar
   134  138  137 1
   135  139  137 ar
   136  140  139 1
   137  141  132 ar
   138  142  141 1
   139  143  118 1
   140  144  143 2
   141  145  143 1
   142  146  145 1
   143  147  146 1
   144  148  146 1
   145  149  146 1
   146  150  130 1
   147  151  150 1
   148  152  150 1
   149  153  150 1
   150  154  125 1
   151  155  154 2
   152  156  154 2
   153    9   11 ar
   154   22   24 ar
   155   48   50 ar
   156   61   63 ar
   157   87   89 ar
   158  100  102 ar
   159  126  128 ar
   160  139  141 ar
@<TRIPOS>SUBSTRUCTURE
     1 RES1 1
     2 RES2 40
     3 RES3 79
     4 RES4 118

