# MOL2 file generated by ConQuest
# Please check atom types

@<TRIPOS>MOLECULE
CIKVEZ
    50    52     1
SMALL
NO_CHARGES
****
Generated from CSD

@<TRIPOS>ATOM
      1 O1         7.1137    6.7548    1.6325 O.2       1 RES1    0.0000
      2 C1         6.6078    3.6010    3.4254 C.3       1 RES1    0.0000
      3 H1         7.4359    3.2396    3.0455 H         1 RES1    0.0000
      4 N1         5.2302    1.6787    2.6889 N.pl3     1 RES1    0.0000
      5 C2         5.4378    3.1597    2.5408 C.3       1 RES1    0.0000
      6 H2         4.6247    3.6331    2.8138 H         1 RES1    0.0000
      7 C3         6.6578    5.1350    3.3207 C.3       1 RES1    0.0000
      8 H3         5.8649    5.5006    3.7654 H         1 RES1    0.0000
      9 N2         6.1558    4.8452    0.9438 N.am      1 RES1    0.0000
     10 H4         6.0613    5.2024    0.1673 H         1 RES1    0.0000
     11 O2         8.9990    5.3065    3.8222 O.2       1 RES1    0.0000
     12 C4         5.7278    3.4524    1.0589 C.3       1 RES1    0.0000
     13 H5         6.4728    2.8818    0.7761 H         1 RES1    0.0000
     14 C5         6.4985    3.1309    4.8672 C.ar      1 RES1    0.0000
     15 C6         6.6707    5.6309    1.8798 C.2       1 RES1    0.0000
     16 O3         6.1491    0.9386    2.3908 O.2       1 RES1    0.0000
     17 C7         4.5500    3.1784    0.1401 C.ar      1 RES1    0.0000
     18 C8         7.8852    5.7052    3.9943 C.2       1 RES1    0.0000
     19 C9         6.3251    2.2293    7.5306 C.ar      1 RES1    0.0000
     20 O4         4.1481    1.2996    3.0997 O.2       1 RES1    0.0000
     21 C10        7.5260    2.4045    5.4397 C.ar      1 RES1    0.0000
     22 H6         8.2856    2.2081    4.9406 H         1 RES1    0.0000
     23 C11        5.3004    2.9564    6.9521 C.ar      1 RES1    0.0000
     24 H7         4.5391    3.1482    7.4513 H         1 RES1    0.0000
     25 C12        5.3858    3.4055    5.6417 C.ar      1 RES1    0.0000
     26 H8         4.6855    3.8985    5.2793 H         1 RES1    0.0000
     27 O5         7.5648    6.7244    4.7791 O.3       1 RES1    0.0000
     28 C13        3.7025    4.1916   -0.2721 C.ar      1 RES1    0.0000
     29 H9         3.8188    5.0525    0.0590 H         1 RES1    0.0000
     30 C14        4.3164    1.9023   -0.3460 C.ar      1 RES1    0.0000
     31 H10        4.8716    1.2038   -0.0823 H         1 RES1    0.0000
     32 C15        2.4415    2.6622   -1.6566 C.ar      1 RES1    0.0000
     33 C16        2.6859    3.9347   -1.1699 C.ar      1 RES1    0.0000
     34 H11        2.1492    4.6378   -1.4563 H         1 RES1    0.0000
     35 C17        7.4320    1.9649    6.7599 C.ar      1 RES1    0.0000
     36 H12        8.1358    1.4815    7.1277 H         1 RES1    0.0000
     37 C18        3.2715    1.6475   -1.2178 C.ar      1 RES1    0.0000
     38 H13        3.1251    0.7778   -1.5139 H         1 RES1    0.0000
     39 C19        6.2351    1.7448    8.9589 C.3       1 RES1    0.0000
     40 H14        6.2300    2.4987    9.5534 H         1 RES1    0.0000
     41 H15        6.9915    1.1873    9.1558 H         1 RES1    0.0000
     42 H16        5.4270    1.2399    9.0749 H         1 RES1    0.0000
     43 C20        1.3161    2.4283   -2.6491 C.3       1 RES1    0.0000
     44 H17        1.6499    2.5345   -3.5433 H         1 RES1    0.0000
     45 H18        0.6137    3.0632   -2.4915 H         1 RES1    0.0000
     46 H19        0.9738    1.5382   -2.5395 H         1 RES1    0.0000
     47 C21        8.6839    7.4217    5.3849 C.3       1 RES1    0.0000
     48 H20        9.1831    6.8095    5.9320 H         1 RES1    0.0000
     49 H21        8.3559    8.1414    5.9292 H         1 RES1    0.0000
     50 H22        9.2525    7.7730    4.6965 H         1 RES1    0.0000
@<TRIPOS>BOND
     1    1   15 2
     2    2    3 1
     3    4    5 1
     4    5    2 1
     5    6    5 1
     6    7    2 1
     7    8    7 1
     8    9   10 1
     9   11   18 2
    10   12    5 1
    11   13   12 1
    12   14    2 1
    13   15    7 1
    14   16    4 2
    15   17   12 1
    16   18    7 1
    17   19   23 ar
    18   20    4 2
    19   21   14 ar
    20   22   21 1
    21   23   24 1
    22   25   14 ar
    23   26   25 1
    24   27   18 1
    25   28   17 ar
    26   29   28 1
    27   30   17 ar
    28   31   30 1
    29   32   33 ar
    30   33   28 ar
    31   34   33 1
    32   35   19 ar
    33   36   35 1
    34   37   30 ar
    35   38   37 1
    36   39   19 1
    37   40   39 1
    38   41   39 1
    39   42   39 1
    40   43   32 1
    41   44   43 1
    42   45   43 1
    43   46   43 1
    44   47   27 1
    45   48   47 1
    46   49   47 1
    47   50   47 1
    48    9   12 1
    49    9   15 1
    50   21   35 ar
    51   23   25 ar
    52   32   37 ar
@<TRIPOS>SUBSTRUCTURE
     1 RES1 1

@<TRIPOS>CRYSIN
   5.8533   13.0050   13.8610  87.0540  81.8560  83.4430   2 1

