# MOL2 file generated by ConQuest
# Please check atom types

@<TRIPOS>MOLECULE
CIKVEY
   102   102     2
SMALL
NO_CHARGES
****
Generated from CSD

@<TRIPOS>ATOM
      1 C1         4.6269   -2.3143   29.3817 C.ar      1 RES1    0.0000
      2 C2         3.6727   -1.9764   30.3054 C.ar      1 RES1    0.0000
      3 C3         3.0507   -0.7574   30.3180 C.ar      1 RES1    0.0000
      4 C4         3.4066    0.1989   29.3753 C.ar      1 RES1    0.0000
      5 C5         4.3775   -0.0867   28.4390 C.ar      1 RES1    0.0000
      6 C6         4.9640   -1.3491   28.4421 C.ar      1 RES1    0.0000
      7 N1         3.3159   -2.9786   31.3272 N.pl3     1 RES1    0.0000
      8 O1         3.8807   -4.0319   31.3208 O.2       1 RES1    0.0000
      9 O2         2.4918   -2.6573   32.1528 O.2       1 RES1    0.0000
     10 N2         5.9566   -1.6755   27.4235 N.pl3     1 RES1    0.0000
     11 O3         6.3509   -2.8269   27.3539 O.2       1 RES1    0.0000
     12 O4         6.3716   -0.7893   26.6991 O.2       1 RES1    0.0000
     13 O5         1.7881    1.6334   30.3117 O.2       1 RES1    0.0000
     14 C7         2.7018    1.5186   29.4924 C.2       1 RES1    0.0000
     15 N3         3.0941    2.5349   28.7300 N.am      1 RES1    0.0000
     16 C8         2.4938    3.8572   28.9483 C.3       1 RES1    0.0000
     17 C9         3.4036    4.9652   28.4453 C.3       1 RES1    0.0000
     18 C10        4.6436    5.1973   29.2868 C.3       1 RES1    0.0000
     19 C11        4.3706    5.4727   30.6850 C.3       1 RES1    0.0000
     20 C12        5.4174    6.3857   28.6604 C.3       1 RES1    0.0000
     21 O6         0.9680    3.4032   27.1704 O.2       1 RES1    0.0000
     22 C13        1.1503    3.9630   28.2650 C.2       1 RES1    0.0000
     23 N4         0.2169    4.7293   28.8312 N.am      1 RES1    0.0000
     24 C14        0.3874    5.3745   30.1472 C.3       1 RES1    0.0000
     25 C15       -0.0021    4.4310   31.2702 C.3       1 RES1    0.0000
     26 C16       -1.0448    4.9091   28.1543 C.3       1 RES1    0.0000
     27 C17       -1.0251    6.1205   27.2590 C.3       1 RES1    0.0000
     28 C18       -0.3440   -1.5569   28.7869 C.ar      2 RES2    0.0000
     29 C19        0.6821   -2.2582   28.2112 C.ar      2 RES2    0.0000
     30 C20        1.4983   -1.7392   27.2495 C.ar      2 RES2    0.0000
     31 C21        1.3041   -0.4080   26.8351 C.ar      2 RES2    0.0000
     32 C22        0.2839    0.3315   27.4109 C.ar      2 RES2    0.0000
     33 C23       -0.5234   -0.2588   28.3567 C.ar      2 RES2    0.0000
     34 N5         0.9522   -3.6391   28.6794 N.pl3     2 RES2    0.0000
     35 O7         0.2622   -4.0472   29.5904 O.2       2 RES2    0.0000
     36 O8         1.8058   -4.2627   28.1416 O.2       2 RES2    0.0000
     37 N6        -1.6264    0.5368   28.9578 N.pl3     2 RES2    0.0000
     38 O9        -2.3933   -0.0344   29.7138 O.2       2 RES2    0.0000
     39 O10       -1.7082    1.7099   28.6478 O.2       2 RES2    0.0000
     40 O11        2.9581   -0.6580   25.1680 O.2       2 RES2    0.0000
     41 C24        2.2543    0.1224   25.7880 C.2       2 RES2    0.0000
     42 N7         2.2454    1.4421   25.5887 N.am      2 RES2    0.0000
     43 C25        3.0990    2.0389   24.5954 C.3       2 RES2    0.0000
     44 C26        2.5559    3.4147   24.2127 C.3       2 RES2    0.0000
     45 C27        1.1109    3.4632   23.7540 C.3       2 RES2    0.0000
     46 C28        0.8704    2.5579   22.5392 C.3       2 RES2    0.0000
     47 C29        0.7205    4.8875   23.4408 C.3       2 RES2    0.0000
     48 O12        4.6811    2.3717   26.3574 O.2       2 RES2    0.0000
     49 C30        4.5234    2.2085   25.1648 C.2       2 RES2    0.0000
     50 N8         5.5347    2.2353   24.3044 N.am      2 RES2    0.0000
     51 C31        5.4539    2.0440   22.8587 C.3       2 RES2    0.0000
     52 C32        5.8452    0.6707   22.4981 C.3       2 RES2    0.0000
     53 C33        7.0024    2.2238   24.9497 C.3       2 RES2    0.0000
     54 C34        7.1128    3.5512   24.9972 C.3       2 RES2    0.0000
     55 H1         5.0389   -3.1712   29.3817 H         1 RES1    0.0000
     56 H2         2.3815   -0.5674   30.9665 H         1 RES1    0.0000
     57 H3         4.6417    0.5610   27.8031 H         1 RES1    0.0000
     58 H4         3.5111    2.4456   27.9360 H         1 RES1    0.0000
     59 H5         2.3578    3.9821   29.9289 H         1 RES1    0.0000
     60 H6         3.6836    4.7497   27.5216 H         1 RES1    0.0000
     61 H7         2.8842    5.8081   28.4105 H         1 RES1    0.0000
     62 H8         5.2193    4.3825   29.2267 H         1 RES1    0.0000
     63 H9         5.1927    5.7826   31.1500 H         1 RES1    0.0000
     64 H10        4.0581    4.6528   31.1500 H         1 RES1    0.0000
     65 H11        3.6816    6.1651   30.7894 H         1 RES1    0.0000
     66 H12        6.2799    6.4852   29.1254 H         1 RES1    0.0000
     67 H13        4.8940    7.2069   28.7774 H         1 RES1    0.0000
     68 H14        5.5692    6.2174   27.7177 H         1 RES1    0.0000
     69 H15       -0.1745    6.1881   30.1883 H         1 RES1    0.0000
     70 H16        1.3327    5.6474   30.2579 H         1 RES1    0.0000
     71 H17        0.2721    4.8161   32.1307 H         1 RES1    0.0000
     72 H18        0.4446    3.5677   31.1437 H         1 RES1    0.0000
     73 H19       -0.9729    4.3009   31.2670 H         1 RES1    0.0000
     74 H20       -1.7654    5.0099   28.8249 H         1 RES1    0.0000
     75 H21       -1.2430    4.1045   27.6133 H         1 RES1    0.0000
     76 H22       -1.9241    6.2799   26.9047 H         1 RES1    0.0000
     77 H23       -0.4032    5.9687   26.5188 H         1 RES1    0.0000
     78 H24       -0.7343    6.9021   27.7747 H         1 RES1    0.0000
     79 H25       -0.9049   -1.9458   29.4481 H         2 RES2    0.0000
     80 H26        2.1883   -2.2684   26.8668 H         2 RES2    0.0000
     81 H27        0.1429    1.2356   27.1546 H         2 RES2    0.0000
     82 H28        1.7565    1.8731   26.1550 H         2 RES2    0.0000
     83 H29        3.1296    1.4536   23.7856 H         2 RES2    0.0000
     84 H30        2.6535    4.0153   24.9940 H         2 RES2    0.0000
     85 H31        3.1227    3.7807   23.4851 H         2 RES2    0.0000
     86 H32        0.5352    3.1380   24.5037 H         2 RES2    0.0000
     87 H33        1.1060    1.6347   22.7670 H         2 RES2    0.0000
     88 H34        1.4243    2.8613   21.7895 H         2 RES2    0.0000
     89 H35       -0.0749    2.5999   22.2830 H         2 RES2    0.0000
     90 H36       -0.2385    4.9270   23.2415 H         2 RES2    0.0000
     91 H37        1.2272    5.2011   22.6626 H         2 RES2    0.0000
     92 H38        0.9187    5.4574   24.2127 H         2 RES2    0.0000
     93 H39        6.0522    2.6892   22.4032 H         2 RES2    0.0000
     94 H40        4.5283    2.2174   22.5519 H         2 RES2    0.0000
     95 H41        5.5692    0.4820   21.5776 H         2 RES2    0.0000
     96 H42        5.4115    0.0370   23.1055 H         2 RES2    0.0000
     97 H43        6.8181    0.5789   22.5677 H         2 RES2    0.0000
     98 H44        7.0221    1.8068   25.8481 H         2 RES2    0.0000
     99 H45        7.6776    1.8030   24.3613 H         2 RES2    0.0000
    100 H46        6.5815    3.8980   25.7437 H         2 RES2    0.0000
    101 H47        6.7865    3.9350   24.1557 H         2 RES2    0.0000
    102 H48        8.0532    3.7960   25.1237 H         2 RES2    0.0000
@<TRIPOS>BOND
     1    1    2 ar
     2    2    3 ar
     3    3    4 ar
     4    4    5 ar
     5    5    6 ar
     6    6    1 ar
     7    7    2 1
     8    8    7 2
     9    9    7 2
    10   10    6 1
    11   11   10 2
    12   12   10 2
    13   13   14 2
    14   14    4 1
    15   15   14 1
    16   16   15 1
    17   17   16 1
    18   18   17 1
    19   19   18 1
    20   20   18 1
    21   21   22 2
    22   22   16 1
    23   23   22 1
    24   24   23 1
    25   25   24 1
    26   26   23 1
    27   27   26 1
    28   28   29 ar
    29   29   30 ar
    30   30   31 ar
    31   31   32 ar
    32   32   33 ar
    33   33   28 ar
    34   34   29 1
    35   35   34 2
    36   36   34 2
    37   37   33 1
    38   38   37 2
    39   39   37 2
    40   40   41 2
    41   41   31 1
    42   42   41 1
    43   43   42 1
    44   44   43 1
    45   45   44 1
    46   46   45 1
    47   47   45 1
    48   48   49 2
    49   49   43 1
    50   50   49 1
    51   51   50 1
    52   52   51 1
    53   53   50 1
    54   54   53 1
    55   55    1 1
    56   56    3 1
    57   57    5 1
    58   58   15 1
    59   59   16 1
    60   60   17 1
    61   61   17 1
    62   62   18 1
    63   63   19 1
    64   64   19 1
    65   65   19 1
    66   66   20 1
    67   67   20 1
    68   68   20 1
    69   69   24 1
    70   70   24 1
    71   71   25 1
    72   72   25 1
    73   73   25 1
    74   74   26 1
    75   75   26 1
    76   76   27 1
    77   77   27 1
    78   78   27 1
    79   79   28 1
    80   80   30 1
    81   81   32 1
    82   82   42 1
    83   83   43 1
    84   84   44 1
    85   85   44 1
    86   86   45 1
    87   87   46 1
    88   88   46 1
    89   89   46 1
    90   90   47 1
    91   91   47 1
    92   92   47 1
    93   93   51 1
    94   94   51 1
    95   95   52 1
    96   96   52 1
    97   97   52 1
    98   98   53 1
    99   99   53 1
   100  100   54 1
   101  101   54 1
   102  102   54 1
@<TRIPOS>SUBSTRUCTURE
     1 RES1 1
     2 RES2 28

@<TRIPOS>CRYSIN
   9.8570   12.7510   31.6340  90.0000  90.0000  90.0000  19 1

