# MOL2 file generated by ConQuest
# Please check atom types

@<TRIPOS>MOLECULE
CILBUV
    25    26     1
SMALL
NO_CHARGES
****
Generated from CSD

@<TRIPOS>ATOM
      1 O1         0.2232   -0.4535    6.7065 O.2       1 RES1    0.0000
      2 O2         3.0776    2.2305    9.0102 O.2       1 RES1    0.0000
      3 O3         0.5898    1.0228    9.0753 O.3       1 RES1    0.0000
      4 O4         1.5169   -0.8486    9.9106 O.2       1 RES1    0.0000
      5 N1         1.5009    0.8904    8.0407 N.am      1 RES1    0.0000
      6 C1         1.2299    0.1569    6.8996 C.2       1 RES1    0.0000
      7 C2         2.4448    0.3274    6.0363 C.3       1 RES1    0.0000
      8 C3         3.4167    1.1887    6.8146 C.3       1 RES1    0.0000
      9 C4         2.7202    1.5434    8.0924 C.2       1 RES1    0.0000
     10 C5         0.7299    0.0316   10.0361 C.2       1 RES1    0.0000
     11 C6        -0.2067    0.2554   11.1471 C.ar      1 RES1    0.0000
     12 C7        -0.1130   -0.6046   12.2420 C.ar      1 RES1    0.0000
     13 C8        -0.9997   -0.4775   13.2761 C.ar      1 RES1    0.0000
     14 C9        -1.9618    0.4878   13.2581 C.ar      1 RES1    0.0000
     15 C10       -2.0509    1.3499   12.1911 C.ar      1 RES1    0.0000
     16 C11       -1.1753    1.2450   11.1249 C.ar      1 RES1    0.0000
     17 H1         2.7657   -0.5159    5.8388 H         1 RES1    0.0000
     18 H2         2.1720    0.7291    5.2105 H         1 RES1    0.0000
     19 H3         3.6827    1.9783    6.3544 H         1 RES1    0.0000
     20 H4         4.1583    0.6720    7.0596 H         1 RES1    0.0000
     21 H5         0.5569   -1.2706   12.1997 H         1 RES1    0.0000
     22 H6        -0.9386   -1.0599   13.9979 H         1 RES1    0.0000
     23 H7        -2.5836    0.5244   13.9893 H         1 RES1    0.0000
     24 H8        -2.6782    2.0406   12.1185 H         1 RES1    0.0000
     25 H9        -1.2800    1.8291   10.3322 H         1 RES1    0.0000
@<TRIPOS>BOND
     1    1    6 2
     2    2    9 2
     3    3    5 1
     4    4   10 2
     5    5    6 1
     6    6    7 1
     7    7    8 1
     8    8    9 1
     9    9    5 1
    10   10    3 1
    11   11   10 1
    12   12   11 ar
    13   13   12 ar
    14   14   13 ar
    15   15   14 ar
    16   16   11 ar
    17   17    7 1
    18   18    7 1
    19   19    8 1
    20   20    8 1
    21   21   12 1
    22   22   13 1
    23   23   14 1
    24   24   15 1
    25   25   16 1
    26   15   16 ar
@<TRIPOS>SUBSTRUCTURE
     1 RES1 1

@<TRIPOS>CRYSIN
  11.0158    8.5273   11.0896  90.0000 102.3580  90.0000  14 1

