# MOL2 file generated by ConQuest
# Please check atom types

@<TRIPOS>MOLECULE
CILBII
    35    35     1
SMALL
NO_CHARGES
****
Generated from CSD

@<TRIPOS>ATOM
      1 C1         6.1221    5.0565   -0.9203 C.3       1 RES1    0.0000
      2 C2         6.8740    4.6566   -2.1833 C.3       1 RES1    0.0000
      3 C3         8.3406    4.3452   -1.9259 C.3       1 RES1    0.0000
      4 C4         8.9840    5.3938   -1.0507 C.3       1 RES1    0.0000
      5 C5         8.1065    5.7134    0.1742 C.3       1 RES1    0.0000
      6 C6         8.6662    6.8966    0.9379 C.3       1 RES1    0.0000
      7 C7         3.9455    5.6916   -0.2468 C.3       1 RES1    0.0000
      8 O1         4.8850    5.5053   -1.3279 O.3       1 RES1    0.0000
      9 O2         6.3004    3.4340   -2.7136 O.3       1 RES1    0.0000
     10 O3         4.7005    2.6180   -3.9195 O.2       1 RES1    0.0000
     11 O4         5.3640    4.6376   -4.3574 O.2       1 RES1    0.0000
     12 O5         8.9995    4.3751   -3.2164 O.3       1 RES1    0.0000
     13 O6         9.6863    2.2862   -2.8413 O.2       1 RES1    0.0000
     14 O7        10.0599    3.2599   -4.7481 O.2       1 RES1    0.0000
     15 O8        10.2149    4.7954   -0.5613 O.3       1 RES1    0.0000
     16 O9        11.2970    6.6178   -1.2722 O.2       1 RES1    0.0000
     17 O10       12.3295    5.0334   -0.1989 O.2       1 RES1    0.0000
     18 O11        6.8167    6.1214   -0.2955 O.3       1 RES1    0.0000
     19 O12        7.9515    6.9115    2.1777 O.3       1 RES1    0.0000
     20 O13        7.4414    8.1097    3.9110 O.2       1 RES1    0.0000
     21 O14        8.2181    9.1392    2.1755 O.2       1 RES1    0.0000
     22 N1         5.3578    3.6081   -3.7503 N.pl3     1 RES1    0.0000
     23 N2         9.6429    3.1742   -3.6275 N.pl3     1 RES1    0.0000
     24 N3        11.3885    5.5814   -0.6890 N.pl3     1 RES1    0.0000
     25 N4         7.8693    8.1709    2.7841 N.pl3     1 RES1    0.0000
     26 H1         6.0462    4.4200   -0.3173 H         1 RES1    0.0000
     27 H2         6.8058    5.4400   -2.7926 H         1 RES1    0.0000
     28 H3         8.3871    3.4544   -1.5373 H         1 RES1    0.0000
     29 H4         9.1778    6.2152   -1.5091 H         1 RES1    0.0000
     30 H5         8.0616    5.0184    0.8533 H         1 RES1    0.0000
     31 H6         9.7049    6.8136    1.1142 H         1 RES1    0.0000
     32 H7         8.4801    7.6296    0.4372 H         1 RES1    0.0000
     33 H8         3.2091    5.9704   -0.6347 H         1 RES1    0.0000
     34 H9         3.9068    4.8280    0.3455 H         1 RES1    0.0000
     35 H10        4.3098    6.3240    0.3314 H         1 RES1    0.0000
@<TRIPOS>BOND
     1    1    2 1
     2    2    3 1
     3    3    4 1
     4    4    5 1
     5    5    6 1
     6    6   19 1
     7    7    8 1
     8    8    1 1
     9    9    2 1
    10   10   22 2
    11   11   22 2
    12   12    3 1
    13   13   23 2
    14   14   23 2
    15   15    4 1
    16   16   24 2
    17   17   24 2
    18   18    1 1
    19   19   25 1
    20   20   25 2
    21   21   25 2
    22   22    9 1
    23   23   12 1
    24   24   15 1
    25   26    1 1
    26   27    2 1
    27   28    3 1
    28   29    4 1
    29   30    5 1
    30   31    6 1
    31   32    6 1
    32   33    7 1
    33   34    7 1
    34   35    7 1
    35    5   18 1
@<TRIPOS>SUBSTRUCTURE
     1 RES1 1

@<TRIPOS>CRYSIN
  15.5030   13.6000    7.0520  90.0000  90.0000  90.0000  19 1

