# MOL2 file generated by ConQuest
# Please check atom types

@<TRIPOS>MOLECULE
CILSIA
    38    27     2
SMALL
NO_CHARGES
****
Generated from CSD

@<TRIPOS>ATOM
      1 C1         2.1005   11.1508   -2.5346 C.3       1 RES1    0.0000
      2 H1         3.0085   10.8809   -2.3231 H         1 RES1    0.0000
      3 H2         1.8533   11.9088   -1.9842 H         1 RES1    0.0000
      4 C2         0.2916    9.8519   -3.5361 C.3       1 RES1    0.0000
      5 H3        -0.6350    9.7533   -3.2646 H         1 RES1    0.0000
      6 H4         0.5554    9.0710   -4.0471 H         1 RES1    0.0000
      7 C3         1.9371   11.4615   -4.0302 C.3       1 RES1    0.0000
      8 H5         2.1243   12.3958   -4.2099 H         1 RES1    0.0000
      9 H6         2.5359   10.9137   -4.5619 H         1 RES1    0.0000
     10 C4         0.4975   11.1358   -4.3429 C.3       1 RES1    0.0000
     11 H7         0.3661   10.9834   -5.2919 H         1 RES1    0.0000
     12 H8        -0.0993   11.8420   -4.0471 H         1 RES1    0.0000
     13 C5         2.1429   11.0910   -2.5196 Du        2 SUP2    0.0000
     14 H9         3.0033   10.7105   -2.7555 Du        2 SUP2    0.0000
     15 H10        2.2391   11.5681   -1.6810 Du        2 SUP2    0.0000
     16 C6         0.3309   10.0501   -3.5978 Du        2 SUP2    0.0000
     17 H11       -0.5564   10.4127   -3.4181 Du        2 SUP2    0.0000
     18 H12        0.2379    9.1647   -3.9760 Du        2 SUP2    0.0000
     19 C7         1.6744   12.0602   -3.6278 Du        2 SUP2    0.0000
     20 H13        0.9887   12.6737   -3.3208 Du        2 SUP2    0.0000
     21 H14        2.4066   12.5502   -4.0302 Du        2 SUP2    0.0000
     22 C8         1.1273   10.9805   -4.5338 Du        2 SUP2    0.0000
     23 H15        1.8481   10.4954   -4.9643 Du        2 SUP2    0.0000
     24 H16        0.5533   11.3619   -5.2152 Du        2 SUP2    0.0000
     25 C9         1.1369    9.2076   -1.3231 C.ar      1 RES1    0.0000
     26 C10        0.2552    8.1098   -1.2658 C.ar      1 RES1    0.0000
     27 H17       -0.3475    7.9694   -1.9599 H         1 RES1    0.0000
     28 C11        0.2750    7.2512   -0.2063 C.ar      1 RES1    0.0000
     29 H18       -0.3082    6.5261   -0.1891 H         1 RES1    0.0000
     30 C12        1.1541    7.4504    0.8403 C.ar      1 RES1    0.0000
     31 C13        2.0063    8.5344    0.8296 C.ar      1 RES1    0.0000
     32 H19        2.5855    8.6766    1.5425 H         1 RES1    0.0000
     33 C14        2.0008    9.3967   -0.2252 C.ar      1 RES1    0.0000
     34 H20        2.5793   10.1248   -0.2209 H         1 RES1    0.0000
     35 N1         1.1573   10.0396   -2.3813 N.pl3     1 RES1    0.0000
     36 N2         1.1986    6.5110    1.9217 N.pl3     1 RES1    0.0000
     37 O1         0.4111    5.5664    1.9301 O.2       1 RES1    0.0000
     38 O2         2.0448    6.6446    2.8015 O.2       1 RES1    0.0000
@<TRIPOS>BOND
     1    1    2 1
     2    3    1 1
     3    4    5 1
     4    6    4 1
     5    7    1 1
     6    8    7 1
     7    9    7 1
     8   10    4 1
     9   11   10 1
    10   12   10 1
    11   25   26 ar
    12   26   27 1
    13   28   26 ar
    14   29   28 1
    15   30   28 ar
    16   31   30 ar
    17   32   31 1
    18   33   25 ar
    19   34   33 1
    20   35    1 1
    21   36   30 1
    22   37   36 2
    23   38   36 2
    24    4   35 1
    25    7   10 1
    26   25   35 1
    27   31   33 ar
@<TRIPOS>SUBSTRUCTURE
     1 RES1 1
     2 SUP2 13

@<TRIPOS>CRYSIN
  10.3421    9.9605   18.7192  90.0000  90.0000  90.0000  61 1

