# MOL2 file generated by ConQuest
# Please check atom types

@<TRIPOS>MOLECULE
CIMGAI
    62    65     1
SMALL
NO_CHARGES
****
Generated from CSD

@<TRIPOS>ATOM
      1 O1         8.0647    9.2589    0.3644 O.2       1 RES1    0.0000
      2 O2         6.9806    8.7932    2.2898 O.3       1 RES1    0.0000
      3 O3         2.7477    6.3304    1.7795 O.2       1 RES1    0.0000
      4 O4         2.3048   12.1552    6.0088 O.2       1 RES1    0.0000
      5 O5         2.4529   13.6706    4.4725 O.2       1 RES1    0.0000
      6 N1         4.2087    9.3887   -1.4605 N.pl3     1 RES1    0.0000
      7 H1         4.1500    9.5950   -2.3147 H         1 RES1    0.0000
      8 N2         2.5844   12.5149    4.8690 N.pl3     1 RES1    0.0000
      9 C1         3.2836    8.5172   -0.9653 C.2       1 RES1    0.0000
     10 C2         2.1893    8.1181   -1.9097 C.3       1 RES1    0.0000
     11 H2         1.9353    8.8738   -2.4967 H         1 RES1    0.0000
     12 H3         2.5991    7.4314   -2.5654 H         1 RES1    0.0000
     13 C3         0.9686    7.5159   -1.2085 C.3       1 RES1    0.0000
     14 C4         1.4657    6.4669   -0.2157 C.3       1 RES1    0.0000
     15 H4         1.8326    5.6964   -0.7330 H         1 RES1    0.0000
     16 H5         0.7103    6.1249    0.3460 H         1 RES1    0.0000
     17 C5         2.5696    6.9226    0.7137 C.2       1 RES1    0.0000
     18 C6         3.4234    8.0089    0.2896 C.2       1 RES1    0.0000
     19 C7         4.5217    8.5129    1.2062 C.3       1 RES1    0.0000
     20 H6         4.8426    7.7346    1.7698 H         1 RES1    0.0000
     21 C8         5.6779    9.0483    0.3705 C.2       1 RES1    0.0000
     22 C9         5.4657    9.5280   -0.8816 C.2       1 RES1    0.0000
     23 C10        6.4603   10.1997   -1.7877 C.3       1 RES1    0.0000
     24 H7         7.1830   10.6298   -1.3020 H         1 RES1    0.0000
     25 H8         5.9666   10.8179   -2.3991 H         1 RES1    0.0000
     26 H9         6.8928    9.5428   -2.3750 H         1 RES1    0.0000
     27 C11        4.0090    9.5779    2.1772 C.ar      1 RES1    0.0000
     28 C12        4.1101    9.3906    3.5559 C.ar      1 RES1    0.0000
     29 H10        4.5202    8.5916    3.9000 H         1 RES1    0.0000
     30 C13        3.6401   10.3432    4.4468 C.ar      1 RES1    0.0000
     31 H11        3.7082   10.1908    5.4094 H         1 RES1    0.0000
     32 C14        3.0992   11.5077    3.9340 C.ar      1 RES1    0.0000
     33 C15        3.0271   11.7589    2.5724 C.ar      1 RES1    0.0000
     34 H12        2.6604   12.5948    2.2894 H         1 RES1    0.0000
     35 C16        3.4654   10.7751    1.7007 C.ar      1 RES1    0.0000
     36 H13        3.3990   10.9381    0.7595 H         1 RES1    0.0000
     37 C17        0.1829    8.6094   -0.4744 C.3       1 RES1    0.0000
     38 H14       -0.1215    9.2815   -1.1296 H         1 RES1    0.0000
     39 H15        0.7373    9.0620    0.2411 H         1 RES1    0.0000
     40 H16       -0.6091    8.2049   -0.0482 H         1 RES1    0.0000
     41 C18        0.0710    6.8597   -2.2626 C.3       1 RES1    0.0000
     42 H17       -0.2258    7.5464   -2.9572 H         1 RES1    0.0000
     43 H18       -0.7323    6.4698   -1.8542 H         1 RES1    0.0000
     44 H19        0.5860    6.1145   -2.7366 H         1 RES1    0.0000
     45 C19        7.0281    9.0587    0.9582 C.2       1 RES1    0.0000
     46 C20        8.2743    8.7116    2.9592 C.3       1 RES1    0.0000
     47 H20        8.8512    9.3734    2.5570 H         1 RES1    0.0000
     48 C21        8.8555    7.3261    2.7551 C.3       1 RES1    0.0000
     49 H21        8.2112    6.6580    3.0983 H         1 RES1    0.0000
     50 H22        8.9593    7.1597    1.7505 H         1 RES1    0.0000
     51 C22       10.1849    7.1994    3.4908 C.3       1 RES1    0.0000
     52 H23       10.8144    7.8286    3.1200 H         1 RES1    0.0000
     53 H24       10.5491    6.2608    3.3575 H         1 RES1    0.0000
     54 C23       10.0203    7.5328    4.9668 C.3       1 RES1    0.0000
     55 H25        9.4026    6.8775    5.3792 H         1 RES1    0.0000
     56 H26       10.9181    7.4942    5.4250 H         1 RES1    0.0000
     57 C24        9.4080    8.9209    5.1502 C.3       1 RES1    0.0000
     58 H27       10.0373    9.6368    4.7849 H         1 RES1    0.0000
     59 H28        9.3117    9.1560    6.1110 H         1 RES1    0.0000
     60 C25        8.0619    9.0236    4.4261 C.3       1 RES1    0.0000
     61 H29        7.6740    9.9504    4.5353 H         1 RES1    0.0000
     62 H30        7.4231    8.3930    4.7728 H         1 RES1    0.0000
@<TRIPOS>BOND
     1    1   45 2
     2    2   45 1
     3    3   17 2
     4    4    8 2
     5    5    8 2
     6    6    7 1
     7    8   32 1
     8    9    6 1
     9   10    9 1
    10   11   10 1
    11   12   10 1
    12   13   10 1
    13   14   13 1
    14   15   14 1
    15   16   14 1
    16   17   14 1
    17   18    9 2
    18   19   18 1
    19   20   19 1
    20   21   19 1
    21   22    6 1
    22   23   22 1
    23   24   23 1
    24   25   23 1
    25   26   23 1
    26   27   19 1
    27   28   27 ar
    28   29   28 1
    29   30   28 ar
    30   31   30 1
    31   32   30 ar
    32   33   32 ar
    33   34   33 1
    34   35   27 ar
    35   36   35 1
    36   37   13 1
    37   38   37 1
    38   39   37 1
    39   40   37 1
    40   41   13 1
    41   42   41 1
    42   43   41 1
    43   44   41 1
    44   45   21 1
    45   46    2 1
    46   47   46 1
    47   48   46 1
    48   49   48 1
    49   50   48 1
    50   51   48 1
    51   52   51 1
    52   53   51 1
    53   54   51 1
    54   55   54 1
    55   56   54 1
    56   57   54 1
    57   58   57 1
    58   59   57 1
    59   60   46 1
    60   61   60 1
    61   62   60 1
    62   17   18 1
    63   21   22 2
    64   33   35 ar
    65   57   60 1
@<TRIPOS>SUBSTRUCTURE
     1 RES1 1

@<TRIPOS>CRYSIN
  18.0463   10.4521   12.3077  90.0000 101.6160  90.0000  14 1

