# MOL2 file generated by ConQuest
# Please check atom types

@<TRIPOS>MOLECULE
CIMREX
    66    63     2
SMALL
NO_CHARGES
****
Generated from CSD

@<TRIPOS>ATOM
      1 O1         1.5291    7.1786   -1.6056 O.2       1 RES1    0.0000
      2 O2         1.8864    4.9743   -1.4740 O.3       1 RES1    0.0000
      3 O3         5.1388    4.6034    1.7609 O.3       1 RES1    0.0000
      4 O4         3.9104    2.7949    1.2399 O.2       1 RES1    0.0000
      5 N1         6.1988    8.3292    2.0873 N.pl3     1 RES1    0.0000
      6 O5         6.5465    7.3080    2.6174 O.2       1 RES1    0.0000
      7 O6         6.9721    9.2284    1.9331 O.2       1 RES1    0.0000
      8 O7         2.0373    6.4446    4.7971 O.2       1 RES1    0.0000
      9 O8         1.5604    5.4647    6.6399 O.2       1 RES1    0.0000
     10 O9        -0.0227    1.0735    6.9118 O.2       1 RES1    0.0000
     11 O10       -0.3329   -0.0995    5.1412 O.2       1 RES1    0.0000
     12 N2         1.4909    5.2023    1.1721 N.2       1 RES1    0.0000
     13 N3         1.6152    5.2574    2.5201 N.3       1 RES1    0.0000
     14 N4         1.6220    5.4667    5.4232 N.pl3     1 RES1    0.0000
     15 N5        -0.0159    0.9340    5.6986 N.pl3     1 RES1    0.0000
     16 C1         1.7489    6.1910   -0.9713 C.2       1 RES1    0.0000
     17 C2         1.9172    6.2293    0.5243 C.2       1 RES1    0.0000
     18 C3         2.5912    7.4590    1.0662 C.3       1 RES1    0.0000
     19 H1         2.1464    7.7380    1.8821 H         1 RES1    0.0000
     20 H2         2.5138    8.1796    0.4222 H         1 RES1    0.0000
     21 C4         4.0975    7.1875    1.3633 C.3       1 RES1    0.0000
     22 H3         4.1531    6.6573    2.1857 H         1 RES1    0.0000
     23 C5         4.7729    8.5093    1.6165 C.3       1 RES1    0.0000
     24 H4         4.7712    9.0236    0.8065 H         1 RES1    0.0000
     25 H5         4.2783    8.9960    2.2782 H         1 RES1    0.0000
     26 C6         4.7440    6.3898    0.2451 C.ar      1 RES1    0.0000
     27 C7         5.1669    5.0892    0.4377 C.ar      1 RES1    0.0000
     28 C8         5.6767    4.3128   -0.5847 C.ar      1 RES1    0.0000
     29 H6         5.9741    3.4470   -0.4163 H         1 RES1    0.0000
     30 C9         5.7390    4.8357   -1.8560 C.ar      1 RES1    0.0000
     31 H7         6.0513    4.3142   -2.5605 H         1 RES1    0.0000
     32 C10        5.3340    6.1401   -2.0837 C.ar      1 RES1    0.0000
     33 H8         5.3831    6.4960   -2.9412 H         1 RES1    0.0000
     34 C11        4.8565    6.9158   -1.0437 C.ar      1 RES1    0.0000
     35 H9         4.6072    7.7976   -1.2026 H         1 RES1    0.0000
     36 C12        4.4498    3.4755    2.0475 C.2       1 RES1    0.0000
     37 C13        4.4357    3.2307    3.5188 C.ar      1 RES1    0.0000
     38 C14        4.0681    1.9668    3.9647 C.ar      1 RES1    0.0000
     39 H10        3.8687    1.2957    3.3516 H         1 RES1    0.0000
     40 C15        3.9995    1.7097    5.3226 C.ar      1 RES1    0.0000
     41 H11        3.7570    0.8657    5.6274 H         1 RES1    0.0000
     42 C16        4.2919    2.7106    6.2228 C.ar      1 RES1    0.0000
     43 H12        4.2392    2.5377    7.1348 H         1 RES1    0.0000
     44 C17        4.6628    3.9627    5.7875 C.ar      1 RES1    0.0000
     45 H13        4.8566    4.6309    6.4054 H         1 RES1    0.0000
     46 C18        4.7467    4.2314    4.4296 C.ar      1 RES1    0.0000
     47 H14        5.0089    5.0725    4.1307 H         1 RES1    0.0000
     48 C19        1.8371    4.9171   -2.9092 C.3       1 RES1    0.0000
     49 H15        1.0651    5.3950   -3.2223 H         1 RES1    0.0000
     50 H16        1.7833    4.0019   -3.1926 H         1 RES1    0.0000
     51 H17        2.6309    5.3180   -3.2733 H         1 RES1    0.0000
     52 C20        1.1784    4.2178    3.2843 C.ar      1 RES1    0.0000
     53 C21        1.1989    4.2805    4.7059 C.ar      1 RES1    0.0000
     54 C22        0.7968    3.2001    5.4744 C.ar      1 RES1    0.0000
     55 H18        0.8051    3.2538    6.4031 H         1 RES1    0.0000
     56 C23        0.3889    2.0595    4.8577 C.ar      1 RES1    0.0000
     57 C24        0.3300    1.9612    3.4749 C.ar      1 RES1    0.0000
     58 H19        0.0240    1.1810    3.0717 H         1 RES1    0.0000
     59 C25        0.7261    3.0214    2.7097 C.ar      1 RES1    0.0000
     60 H20        0.6946    2.9473    1.7837 H         1 RES1    0.0000
     61 H21        1.8456    5.9121    2.8582 H         1 RES1    0.0000
     62 N6         6.2611    8.4149    1.5999 Du        2 SUP2    0.0000
     63 O11        6.6398    8.0881    2.6755 Du        2 SUP2    0.0000
     64 O12        6.9432    8.8783    0.7650 Du        2 SUP2    0.0000
     65 H22        4.4944    9.1354    0.9440 Du        2 SUP2    0.0000
     66 H23        4.4937    8.8478    2.4692 Du        2 SUP2    0.0000
@<TRIPOS>BOND
     1    1   16 2
     2    2   16 1
     3    3   27 1
     4    4   36 2
     5    5    6 2
     6    7    5 2
     7    8   14 2
     8    9   14 2
     9   10   15 2
    10   11   15 2
    11   12   13 1
    12   13   52 1
    13   14   53 1
    14   15   56 1
    15   16   17 1
    16   17   12 2
    17   18   17 1
    18   19   18 1
    19   20   18 1
    20   21   18 1
    21   22   21 1
    22   23    5 1
    23   24   23 1
    24   25   23 1
    25   26   21 1
    26   27   26 ar
    27   28   27 ar
    28   29   28 1
    29   30   28 ar
    30   31   30 1
    31   32   30 ar
    32   33   32 1
    33   34   26 ar
    34   35   34 1
    35   36    3 1
    36   37   36 1
    37   38   37 ar
    38   39   38 1
    39   40   38 ar
    40   41   40 1
    41   42   40 ar
    42   43   42 1
    43   44   42 ar
    44   45   44 1
    45   46   37 ar
    46   47   46 1
    47   48    2 1
    48   49   48 1
    49   50   48 1
    50   51   48 1
    51   52   53 ar
    52   53   54 ar
    53   54   55 1
    54   56   54 ar
    55   57   56 ar
    56   58   57 1
    57   59   52 ar
    58   60   59 1
    59   61   13 1
    60   21   23 1
    61   32   34 ar
    62   44   46 ar
    63   57   59 ar
@<TRIPOS>SUBSTRUCTURE
     1 RES1 1
     2 SUP2 62

@<TRIPOS>CRYSIN
   7.2970   14.5260   12.1970  90.0000 103.5060  90.0000   4 1

