# MOL2 file generated by ConQuest
# Please check atom types

@<TRIPOS>MOLECULE
CIPJAN
    84    84     3
SMALL
NO_CHARGES
****
Generated from CSD

@<TRIPOS>ATOM
      1 C1         9.3680    3.5437    6.5953 C.3       1 RES1    0.0000
      2 H1         9.1956    3.1627    5.6988 H         1 RES1    0.0000
      3 H2         9.2474    4.5260    6.5625 H         1 RES1    0.0000
      4 C2        10.7563    3.1642    7.1105 C.3       1 RES1    0.0000
      5 H3        11.4617    3.7136    6.6668 H         1 RES1    0.0000
      6 C3        10.9871    1.6800    6.8589 C.3       1 RES1    0.0000
      7 H4        11.8887    1.4322    7.1820 H         1 RES1    0.0000
      8 H5        10.9564    1.5087    5.8835 H         1 RES1    0.0000
      9 C4         9.9423    0.7957    7.5573 C.3       1 RES1    0.0000
     10 H6         9.9110   -0.0857    7.1075 H         1 RES1    0.0000
     11 H7        10.2215    0.6472    8.4954 H         1 RES1    0.0000
     12 C5         8.5661    1.4031    7.5453 C.2       1 RES1    0.0000
     13 C6         8.4676    2.8980    7.6660 C.3       1 RES1    0.0000
     14 H8         7.5221    3.2147    7.5975 H         1 RES1    0.0000
     15 C7        10.6653    3.5009    8.6130 C.3       1 RES1    0.0000
     16 H9        11.0050    4.4143    8.7873 H         1 RES1    0.0000
     17 H10       11.1932    2.8567    9.1476 H         1 RES1    0.0000
     18 C8         9.1481    3.3999    8.9630 C.3       1 RES1    0.0000
     19 C9         8.5830    4.7709    9.3427 C.2       1 RES1    0.0000
     20 C10        8.5915    6.3775   11.1058 C.3       1 RES1    0.0000
     21 H11        8.3996    7.0385   10.3940 H         1 RES1    0.0000
     22 H12        9.2656    6.7692   11.7164 H         1 RES1    0.0000
     23 C11        7.3316    6.0821   11.8712 C.3       1 RES1    0.0000
     24 H13        6.6574    5.7119   11.2622 H         1 RES1    0.0000
     25 H14        6.9907    6.9084   12.2718 H         1 RES1    0.0000
     26 H15        7.5235    5.4319   12.5785 H         1 RES1    0.0000
     27 C12        8.8472    2.5094   10.1602 C.2       1 RES1    0.0000
     28 C13        7.0779    1.8025   11.5749 C.3       1 RES1    0.0000
     29 H16        7.4692    2.1789   12.4028 H         1 RES1    0.0000
     30 H17        7.3568    0.8569   11.4989 H         1 RES1    0.0000
     31 C14        5.5926    1.8989   11.6210 C.3       1 RES1    0.0000
     32 H18        5.3283    2.8353   11.7372 H         1 RES1    0.0000
     33 H19        5.2542    1.3679   12.3716 H         1 RES1    0.0000
     34 H20        5.2164    1.5561   10.7827 H         1 RES1    0.0000
     35 C15        9.6846    3.3999   -0.7207 C.3       2 RES2    0.0000
     36 H21        9.6483    3.0174   -1.6336 H         2 RES2    0.0000
     37 H22        9.6091    4.3853   -0.7743 H         2 RES2    0.0000
     38 C16       10.9434    2.9730    0.0164 C.3       2 RES2    0.0000
     39 H23       11.7335    3.4963   -0.3053 H         2 RES2    0.0000
     40 C17       11.1688    1.4827   -0.1951 C.3       2 RES2    0.0000
     41 H24       11.9953    1.2103    0.2755 H         2 RES2    0.0000
     42 H25       11.2988    1.3098   -1.1615 H         2 RES2    0.0000
     43 C18        9.9926    0.6289    0.3172 C.3       2 RES2    0.0000
     44 H26        9.9965   -0.2418   -0.1564 H         2 RES2    0.0000
     45 H27       10.1207    0.4483    1.2821 H         2 RES2    0.0000
     46 C19        8.6633    1.2899    0.1147 C.2       2 RES2    0.0000
     47 C20        8.6040    2.7986    0.1861 C.3       2 RES2    0.0000
     48 H28        7.6951    3.1428   -0.0462 H         2 RES2    0.0000
     49 C21       10.6210    3.3264    1.4802 C.3       2 RES2    0.0000
     50 H29       10.9701    4.2246    1.7080 H         2 RES2    0.0000
     51 H30       11.0220    2.6639    2.0967 H         2 RES2    0.0000
     52 C22        9.0653    3.2989    1.5770 C.3       2 RES2    0.0000
     53 C23        8.5040    4.7020    1.8346 C.2       2 RES2    0.0000
     54 C24        8.4176    6.4172    3.4950 C.3       2 RES2    0.0000
     55 H31        8.3076    7.0079    2.7072 H         2 RES2    0.0000
     56 H32        9.0994    6.8181    4.0876 H         2 RES2    0.0000
     57 C25        7.1194    6.3147    4.2246 C.3       2 RES2    0.0000
     58 H33        6.4253    5.9888    3.6141 H         2 RES2    0.0000
     59 H34        6.8664    7.1976    4.5656 H         2 RES2    0.0000
     60 H35        7.2136    5.6904    4.9751 H         2 RES2    0.0000
     61 C26        8.5172    2.4176    2.6953 C.2       2 RES2    0.0000
     62 C27        6.4260    1.7550    3.6677 C.3       2 RES2    0.0000
     63 H36        7.0075    1.0695    4.0832 H         2 RES2    0.0000
     64 H37        5.6728    1.2914    3.2224 H         2 RES2    0.0000
     65 C28        5.9011    2.6624    4.7145 C.3       2 RES2    0.0000
     66 H38        6.6489    3.0602    5.2074 H         2 RES2    0.0000
     67 H39        5.3360    2.1544    5.3340 H         2 RES2    0.0000
     68 H40        5.3708    3.3723    4.2961 H         2 RES2    0.0000
     69 N1         7.4786    0.7600    7.4634 N.2       1 RES1    0.0000
     70 H41        6.6892    1.1476    7.4888 Du        3 SUP3    0.0000
     71 N2         7.5630    0.6882   -0.0502 N.2       2 RES2    0.0000
     72 H42        6.7896    1.1032   -0.1191 Du        3 SUP3    0.0000
     73 O1         7.6459   -0.6373    7.3309 O.3       1 RES1    0.0000
     74 H43        6.8936   -1.0037    7.2579 H         1 RES1    0.0000
     75 O2         7.5370    2.5516   10.4219 O.3       1 RES1    0.0000
     76 O3         9.6346    1.8641   10.7894 O.2       1 RES1    0.0000
     77 O4         9.1215    5.1528   10.5082 O.3       1 RES1    0.0000
     78 O5         7.7767    5.3979    8.7289 O.2       1 RES1    0.0000
     79 O6         7.6958   -0.7182   -0.1106 O.3       2 RES2    0.0000
     80 H44        6.9340   -1.0726   -0.0998 H         2 RES2    0.0000
     81 O7         9.1575    1.7503    3.4419 O.2       2 RES2    0.0000
     82 O8         7.1846    2.5094    2.6844 O.3       2 RES2    0.0000
     83 O9         7.8389    5.3373    1.0781 O.2       2 RES2    0.0000
     84 O10        8.8686    5.0971    3.0551 O.3       2 RES2    0.0000
@<TRIPOS>BOND
     1    1    2 1
     2    3    1 1
     3    4    1 1
     4    5    4 1
     5    6    4 1
     6    7    6 1
     7    8    6 1
     8    9    6 1
     9   10    9 1
    10   11    9 1
    11   12    9 1
    12   13    1 1
    13   14   13 1
    14   15    4 1
    15   16   15 1
    16   17   15 1
    17   18   13 1
    18   19   18 1
    19   20   21 1
    20   22   20 1
    21   23   20 1
    22   24   23 1
    23   25   23 1
    24   26   23 1
    25   27   18 1
    26   28   29 1
    27   30   28 1
    28   31   28 1
    29   32   31 1
    30   33   31 1
    31   34   31 1
    32   35   36 1
    33   37   35 1
    34   38   35 1
    35   39   38 1
    36   40   38 1
    37   41   40 1
    38   42   40 1
    39   43   40 1
    40   44   43 1
    41   45   43 1
    42   46   43 1
    43   47   35 1
    44   48   47 1
    45   49   38 1
    46   50   49 1
    47   51   49 1
    48   52   47 1
    49   53   52 1
    50   54   55 1
    51   56   54 1
    52   57   54 1
    53   58   57 1
    54   59   57 1
    55   60   57 1
    56   61   52 1
    57   62   63 1
    58   64   62 1
    59   65   62 1
    60   66   65 1
    61   67   65 1
    62   68   65 1
    63   69   12 2
    64   71   46 2
    65   73   69 1
    66   74   73 1
    67   75   27 1
    68   76   27 2
    69   77   19 1
    70   78   19 2
    71   79   71 1
    72   80   79 1
    73   81   61 2
    74   82   61 1
    75   83   53 2
    76   84   53 1
    77   12   13 1
    78   15   18 1
    79   20   77 1
    80   28   75 1
    81   46   47 1
    82   49   52 1
    83   54   84 1
    84   62   82 1
@<TRIPOS>SUBSTRUCTURE
     1 RES1 1
     2 RES2 35
     3 SUP3 70

@<TRIPOS>CRYSIN
  12.4670   15.3010   14.8920  90.0000  90.6150  90.0000 231 1

