# MOL2 file generated by ConQuest
# Please check atom types

@<TRIPOS>MOLECULE
CIPNOF
    47    51     1
SMALL
NO_CHARGES
****
Generated from CSD

@<TRIPOS>ATOM
      1 C1         2.7586    5.4611    4.8297 C.3       1 RES1    0.0000
      2 H1         2.3176    6.2055    4.3689 H         1 RES1    0.0000
      3 C2         4.6034    3.7293    4.4232 C.3       1 RES1    0.0000
      4 H2         5.5176    3.6445    4.1102 H         1 RES1    0.0000
      5 H3         4.5805    3.5954    5.3843 H         1 RES1    0.0000
      6 C3         4.0047    5.0782    4.0345 C.3       1 RES1    0.0000
      7 H4         4.6825    5.7831    4.1054 H         1 RES1    0.0000
      8 C4         1.6946    4.3985    5.1586 C.3       1 RES1    0.0000
      9 H5         1.0822    4.2647    4.4061 H         1 RES1    0.0000
     10 C5         2.5796    2.2450    4.6084 C.3       1 RES1    0.0000
     11 H6         1.8013    2.0412    4.0665 H         1 RES1    0.0000
     12 H7         2.8743    1.4196    5.0238 H         1 RES1    0.0000
     13 C6         3.6818    2.7611    3.7073 C.3       1 RES1    0.0000
     14 H8         4.1935    2.0160    3.3276 H         1 RES1    0.0000
     15 C7         4.7521    4.8707    1.6968 C.3       1 RES1    0.0000
     16 H9         4.4434    4.6045    0.8165 H         1 RES1    0.0000
     17 H10        5.3959    4.2111    2.0001 H         1 RES1    0.0000
     18 C8         5.4176    6.2085    1.6056 C.ar      1 RES1    0.0000
     19 C9         6.7370    6.3832    1.9886 C.ar      1 RES1    0.0000
     20 H11        7.2131    5.6612    2.3300 H         1 RES1    0.0000
     21 C10        7.3553    7.6050    1.8732 C.ar      1 RES1    0.0000
     22 H12        8.2415    7.7032    2.1392 H         1 RES1    0.0000
     23 C11        6.6705    8.6833    1.3656 C.ar      1 RES1    0.0000
     24 H13        7.0891    9.5109    1.2919 H         1 RES1    0.0000
     25 C12        5.3710    8.5308    0.9685 C.ar      1 RES1    0.0000
     26 H14        4.9048    9.2566    0.6209 H         1 RES1    0.0000
     27 C13        4.7480    7.3053    1.0806 C.ar      1 RES1    0.0000
     28 H15        3.8663    7.2124    0.8004 H         1 RES1    0.0000
     29 C14        0.9838    5.0440    6.3388 C.3       1 RES1    0.0000
     30 H16        0.6763    4.3844    6.9948 H         1 RES1    0.0000
     31 C15        0.0148    7.1105    6.5865 C.3       1 RES1    0.0000
     32 C16        2.0227    6.0218    6.9300 C.3       1 RES1    0.0000
     33 H17        2.2134    5.8196    7.8695 H         1 RES1    0.0000
     34 C17       -0.5227    8.2058    5.7116 C.3       1 RES1    0.0000
     35 H18       -0.2867    9.0588    6.0845 H         1 RES1    0.0000
     36 H19       -1.4781    8.1337    5.6576 H         1 RES1    0.0000
     37 H20       -0.1457    8.1270    4.8314 H         1 RES1    0.0000
     38 C18       -0.6925    6.9990    7.9218 C.3       1 RES1    0.0000
     39 H21       -0.5818    7.8177    8.4112 H         1 RES1    0.0000
     40 H22       -0.3162    6.2724    8.4241 H         1 RES1    0.0000
     41 H23       -1.6271    6.8376    7.7758 H         1 RES1    0.0000
     42 O1         2.2038    3.1672    5.6291 O.3       1 RES1    0.0000
     43 O2         3.0476    3.5485    2.6378 O.3       1 RES1    0.0000
     44 O3        -0.0688    5.8744    5.8726 O.3       1 RES1    0.0000
     45 O4         1.4300    7.3015    6.7820 O.3       1 RES1    0.0000
     46 O5         3.1812    5.9223    6.1343 O.3       1 RES1    0.0000
     47 N1         3.6001    4.9012    2.6341 N.3       1 RES1    0.0000
@<TRIPOS>BOND
     1    1    2 1
     2    3    4 1
     3    5    3 1
     4    6    1 1
     5    7    6 1
     6    8    1 1
     7    9    8 1
     8   10   11 1
     9   12   10 1
    10   13    3 1
    11   14   13 1
    12   15   16 1
    13   17   15 1
    14   18   15 1
    15   19   18 ar
    16   20   19 1
    17   21   19 ar
    18   22   21 1
    19   23   21 ar
    20   24   23 1
    21   25   23 ar
    22   26   25 1
    23   27   18 ar
    24   28   27 1
    25   29    8 1
    26   30   29 1
    27   31   34 1
    28   32   29 1
    29   33   32 1
    30   34   35 1
    31   36   34 1
    32   37   34 1
    33   38   31 1
    34   39   38 1
    35   40   38 1
    36   41   38 1
    37   42    8 1
    38   43   13 1
    39   44   29 1
    40   45   31 1
    41   46    1 1
    42   47    6 1
    43    3    6 1
    44   10   13 1
    45   10   42 1
    46   15   47 1
    47   25   27 ar
    48   31   44 1
    49   32   45 1
    50   32   46 1
    51   43   47 1
@<TRIPOS>SUBSTRUCTURE
     1 RES1 1

@<TRIPOS>CRYSIN
   6.6822    7.4362   16.4160  90.0000  99.9480  90.0000   4 1

