# MOL2 file generated by ConQuest
# Please check atom types

@<TRIPOS>MOLECULE
CIQJES
    25    25     1
SMALL
NO_CHARGES
****
Generated from CSD

@<TRIPOS>ATOM
      1 C1         3.0716    5.1896    1.9318 C.ar      1 RES1    0.0000
      2 C2         2.4871    6.4398    1.8108 C.ar      1 RES1    0.0000
      3 H1         1.6792    6.6145    2.2380 H         1 RES1    0.0000
      4 C3         3.0930    7.4246    1.0627 C.ar      1 RES1    0.0000
      5 H2         2.6904    8.2614    1.0023 H         1 RES1    0.0000
      6 C4         4.2953    7.1978    0.3942 C.ar      1 RES1    0.0000
      7 C5         4.8816    5.9604    0.5527 C.ar      1 RES1    0.0000
      8 H3         5.6932    5.7882    0.1327 H         1 RES1    0.0000
      9 C6         4.2953    4.9649    1.3192 C.ar      1 RES1    0.0000
     10 H4         4.7235    4.1452    1.4228 H         1 RES1    0.0000
     11 C7         4.9320    8.2738   -0.4524 C.3       1 RES1    0.0000
     12 H5         4.3112    8.9967   -0.5706 H         1 RES1    0.0000
     13 H6         5.1662    7.9092   -1.3097 H         1 RES1    0.0000
     14 H7         5.7223    8.5981   -0.0157 H         1 RES1    0.0000
     15 C8         2.4128    2.8538    2.4553 C.2       1 RES1    0.0000
     16 C9         2.9347    2.3143    1.1826 C.2       1 RES1    0.0000
     17 H8         2.8972    2.8099    0.3964 H         1 RES1    0.0000
     18 N1         2.4008    4.1936    2.6703 N.pl3     1 RES1    0.0000
     19 H9         1.9284    4.4664    3.3355 H         1 RES1    0.0000
     20 N2         3.4321    1.1578    1.2050 N.2       1 RES1    0.0000
     21 N3         1.9209    1.9826    3.2644 N.2       1 RES1    0.0000
     22 O1         3.8432    0.7547   -0.0627 O.3       1 RES1    0.0000
     23 O2         1.4530    2.6088    4.4425 O.3       1 RES1    0.0000
     24 H10        4.0680   -0.1103    0.0504 H         1 RES1    0.0000
     25 H11        0.8988    2.0010    4.8154 H         1 RES1    0.0000
@<TRIPOS>BOND
     1    1    2 ar
     2    2    3 1
     3    4    2 ar
     4    5    4 1
     5    6    4 ar
     6    7    6 ar
     7    8    7 1
     8    9    1 ar
     9   10    9 1
    10   11    6 1
    11   12   11 1
    12   13   11 1
    13   14   11 1
    14   15   16 1
    15   16   17 1
    16   18    1 1
    17   19   18 1
    18   20   16 2
    19   21   15 2
    20   22   20 1
    21   23   21 1
    22   24   22 1
    23   25   23 1
    24    7    9 ar
    25   15   18 1
@<TRIPOS>SUBSTRUCTURE
     1 RES1 1

@<TRIPOS>CRYSIN
   9.0031   19.3520    6.9742  90.0000 126.5960  90.0000   9 1

