# MOL2 file generated by ConQuest
# Please check atom types

@<TRIPOS>MOLECULE
CIQRIE
    40    41     1
SMALL
NO_CHARGES
****
Generated from CSD

@<TRIPOS>ATOM
      1 C1         2.8141    4.8380    4.4501 C.ar      1 RES1    0.0000
      2 C2         1.4816    5.1120    4.6651 C.ar      1 RES1    0.0000
      3 H1         1.1763    5.9900    4.6711 H         1 RES1    0.0000
      4 C3         3.2799    3.5460    4.4183 C.ar      1 RES1    0.0000
      5 H2         4.1798    3.3788    4.2540 H         1 RES1    0.0000
      6 C4         0.6100    4.0730    4.8691 C.ar      1 RES1    0.0000
      7 H3        -0.2922    4.2480    5.0131 H         1 RES1    0.0000
      8 C5         2.4082    2.4965    4.6311 C.ar      1 RES1    0.0000
      9 H4         2.7181    1.6194    4.6189 H         1 RES1    0.0000
     10 C6         1.0650    2.7608    4.8632 C.ar      1 RES1    0.0000
     11 C7         0.5188    0.4744    5.3617 C.3       1 RES1    0.0000
     12 H5         1.1545    0.4596    6.0937 H         1 RES1    0.0000
     13 H6         0.9337    0.0709    4.5833 H         1 RES1    0.0000
     14 C8        -0.7234   -0.2740    5.7358 C.3       1 RES1    0.0000
     15 H7        -0.4952   -1.2045    5.8878 H         1 RES1    0.0000
     16 H8        -1.3458   -0.2390    4.9927 H         1 RES1    0.0000
     17 N1         3.7339    5.9418    4.2354 N.pl3     1 RES1    0.0000
     18 O1         0.1241    1.8170    5.0738 O.3       1 RES1    0.0000
     19 O2         3.3049    7.0876    4.3114 O.2       1 RES1    0.0000
     20 O3         4.8955    5.6827    3.9811 O.2       1 RES1    0.0000
     21 C1B       -4.9453   -4.8380    8.2637 C.ar      1 RES1    0.0000
     22 C2B       -3.6128   -5.1120    8.0487 C.ar      1 RES1    0.0000
     23 H1B       -3.3075   -5.9900    8.0428 H         1 RES1    0.0000
     24 C3B       -5.4111   -3.5460    8.2955 C.ar      1 RES1    0.0000
     25 H2B       -6.3110   -3.3788    8.4598 H         1 RES1    0.0000
     26 C4B       -2.7412   -4.0730    7.8447 C.ar      1 RES1    0.0000
     27 H3B       -1.8390   -4.2480    7.7008 H         1 RES1    0.0000
     28 C5B       -4.5394   -2.4965    8.0827 C.ar      1 RES1    0.0000
     29 H4B       -4.8493   -1.6194    8.0949 H         1 RES1    0.0000
     30 C6B       -3.1962   -2.7608    7.8507 C.ar      1 RES1    0.0000
     31 C7B       -2.6501   -0.4744    7.3521 C.3       1 RES1    0.0000
     32 H5B       -3.2857   -0.4596    6.6201 H         1 RES1    0.0000
     33 H6B       -3.0649   -0.0709    8.1305 H         1 RES1    0.0000
     34 C8B       -1.4078    0.2740    6.9780 C.3       1 RES1    0.0000
     35 H7B       -1.6360    1.2045    6.8260 H         1 RES1    0.0000
     36 H8B       -0.7854    0.2390    7.7211 H         1 RES1    0.0000
     37 N1B       -5.8651   -5.9418    8.4785 N.pl3     1 RES1    0.0000
     38 O1B       -2.2553   -1.8170    7.6400 O.3       1 RES1    0.0000
     39 O2B       -5.4361   -7.0876    8.4024 O.2       1 RES1    0.0000
     40 O3B       -7.0267   -5.6827    8.7327 O.2       1 RES1    0.0000
@<TRIPOS>BOND
     1    1    2 ar
     2    2    3 1
     3    4    1 ar
     4    5    4 1
     5    6    2 ar
     6    7    6 1
     7    8    4 ar
     8    9    8 1
     9   10    6 ar
    10   11   12 1
    11   13   11 1
    12   14   11 1
    13   15   14 1
    14   16   14 1
    15   17    1 1
    16   18   10 1
    17   19   17 2
    18   20   17 2
    19   21   22 ar
    20   22   23 1
    21   24   21 ar
    22   25   24 1
    23   26   22 ar
    24   27   26 1
    25   28   24 ar
    26   29   28 1
    27   30   26 ar
    28   31   32 1
    29   33   31 1
    30   34   14 1
    31   35   34 1
    32   36   34 1
    33   37   21 1
    34   38   30 1
    35   39   37 2
    36   40   37 2
    37    8   10 ar
    38   11   18 1
    39   28   30 ar
    40   31   34 1
    41   31   38 1
@<TRIPOS>SUBSTRUCTURE
     1 RES1 1

@<TRIPOS>CRYSIN
   7.1273    8.7534   12.8912  90.0000  99.5160  90.0000 231 1

