# MOL2 file generated by ConQuest
# Please check atom types

@<TRIPOS>MOLECULE
CIRKOF
    53    48     2
SMALL
NO_CHARGES
****
Generated from CSD

@<TRIPOS>ATOM
      1 O1         2.0940    2.3929    3.7988 O.3       1 RES1    0.0000
      2 N1         2.1183    3.7772    3.8633 N.2       1 RES1    0.0000
      3 N2         5.3151    3.0122    4.0411 N.2       1 RES1    0.0000
      4 N3         4.5050    3.0599    1.8780 N.3       1 RES1    0.0000
      5 C1         3.4710    5.7125    3.6372 C.ar      1 RES1    0.0000
      6 C2         3.2662    4.2500    3.5851 C.2       1 RES1    0.0000
      7 C3         4.4234    3.3745    3.2080 C.2       1 RES1    0.0000
      8 O2         4.5790    2.0252   -0.7437 O.3       1 RES1    0.0000
      9 C4         5.1703    3.3763    5.4522 C.3       1 RES1    0.0000
     10 H1         4.5135    4.0846    5.5329 H         1 RES1    0.0000
     11 H2         6.0165    3.7143    5.7842 H         1 RES1    0.0000
     12 C5         4.8338    7.6424    3.2554 C.ar      1 RES1    0.0000
     13 H3         5.6398    8.0056    2.9643 H         1 RES1    0.0000
     14 C6         4.6300    6.2815    3.2201 C.ar      1 RES1    0.0000
     15 H4         5.3093    5.7332    2.8999 H         1 RES1    0.0000
     16 C7         5.5367    2.1628    1.4570 C.3       1 RES1    0.0000
     17 C8         2.4704    6.5539    4.1097 C.ar      1 RES1    0.0000
     18 H5         1.6660    6.1952    4.4072 H         1 RES1    0.0000
     19 C9         3.8310    8.4613    3.7278 C.ar      1 RES1    0.0000
     20 H6         3.9521    9.3827    3.7650 H         1 RES1    0.0000
     21 C10        4.7498    2.2293    6.2772 C.3       1 RES1    0.0000
     22 H7         5.4379    1.5461    6.2458 H         1 RES1    0.0000
     23 H8         3.9385    1.8499    5.9050 H         1 RES1    0.0000
     24 C11        2.6659    7.9031    4.1371 C.ar      1 RES1    0.0000
     25 H9         1.9835    8.4542    4.4449 H         1 RES1    0.0000
     26 C12        3.3494    3.0724    1.0080 C.3       1 RES1    0.0000
     27 H10        2.8414    3.8815    1.1776 H         1 RES1    0.0000
     28 H11        2.7828    2.3174    1.2309 H         1 RES1    0.0000
     29 C13        5.7068    2.0926   -0.0016 C.3       1 RES1    0.0000
     30 H12        6.2073    2.8738   -0.2842 H         1 RES1    0.0000
     31 H13        6.2478    1.3142   -0.2041 H         1 RES1    0.0000
     32 C14        3.6725    3.0122   -0.4082 C.3       1 RES1    0.0000
     33 H14        2.8542    2.8648   -0.9075 H         1 RES1    0.0000
     34 H15        4.0325    3.8707   -0.6814 H         1 RES1    0.0000
     35 C15        4.4962    2.6176    7.7342 C.3       1 RES1    0.0000
     36 H16        5.3420    2.9079    8.1094 H         1 RES1    0.0000
     37 H17        3.9073    3.3880    7.7326 H         1 RES1    0.0000
     38 C16        2.6696    1.0706    8.2350 C.3       1 RES1    0.0000
     39 H18        2.4139    0.4539    8.9243 H         1 RES1    0.0000
     40 H19        2.7554    0.6023    7.4013 H         1 RES1    0.0000
     41 H20        1.9987    1.7529    8.1503 H         1 RES1    0.0000
     42 C17        3.9632    1.6935    8.5867 C.3       1 RES1    0.0000
     43 H21        3.8610    2.1169    9.4518 H         1 RES1    0.0000
     44 H22        4.6131    0.9816    8.6919 H         1 RES1    0.0000
     45 H23        1.2535    2.2113    3.8467 H         1 RES1    0.0000
     46 H24        5.0505    1.3214    1.8056 H         1 RES1    0.0000
     47 H25        6.4993    2.4091    1.8370 H         1 RES1    0.0000
     48 C18        3.7459    3.8293    0.9279 Du        2 SUP2    0.0000
     49 H26        4.1767    4.6851    0.7725 Du        2 SUP2    0.0000
     50 H27        2.8527    3.9938    1.2686 Du        2 SUP2    0.0000
     51 C19        5.1735    1.4742    0.2732 Du        2 SUP2    0.0000
     52 H28        5.9926    1.0769   -0.0707 Du        2 SUP2    0.0000
     53 H29        4.6119    0.7317    0.5511 Du        2 SUP2    0.0000
@<TRIPOS>BOND
     1    1    2 1
     2    2    6 2
     3    3    7 2
     4    4    7 1
     5    5    6 1
     6    6    7 1
     7    8   29 1
     8    9    3 1
     9   10    9 1
    10   11    9 1
    11   12   13 1
    12   14    5 ar
    13   15   14 1
    14   16    4 1
    15   17    5 ar
    16   18   17 1
    17   19   12 ar
    18   20   19 1
    19   21    9 1
    20   22   21 1
    21   23   21 1
    22   24   17 ar
    23   25   24 1
    24   26    4 1
    25   27   26 1
    26   28   26 1
    27   29   16 1
    28   30   29 1
    29   31   29 1
    30   32    8 1
    31   33   32 1
    32   34   32 1
    33   35   21 1
    34   36   35 1
    35   37   35 1
    36   38   39 1
    37   40   38 1
    38   41   38 1
    39   42   35 1
    40   43   42 1
    41   44   42 1
    42   45    1 1
    43   46   16 1
    44   47   16 1
    45   12   14 ar
    46   19   24 ar
    47   26   32 1
    48   38   42 1
@<TRIPOS>SUBSTRUCTURE
     1 RES1 1
     2 SUP2 48

@<TRIPOS>CRYSIN
  11.6200    8.9890   15.8100  90.0000  96.7400  90.0000  14 2

