# MOL2 file generated by ConQuest
# Please check atom types

@<TRIPOS>MOLECULE
CIRLEV
    59    63     1
SMALL
NO_CHARGES
****
Generated from CSD

@<TRIPOS>ATOM
      1 C1        12.0614    2.2247    2.5472 C.ar      1 RES1    0.0000
      2 C2        13.3443    1.8424    2.9394 C.ar      1 RES1    0.0000
      3 C3        14.4687    2.6021    2.6200 C.ar      1 RES1    0.0000
      4 H1        15.3126    2.3306    2.9007 H         1 RES1    0.0000
      5 C4        14.3182    3.7600    1.8825 C.ar      1 RES1    0.0000
      6 H2        15.0658    4.2654    1.6575 H         1 RES1    0.0000
      7 C5        13.0663    4.1699    1.4776 C.ar      1 RES1    0.0000
      8 H3        12.9667    4.9530    0.9847 H         1 RES1    0.0000
      9 C6        11.9548    3.4066    1.8099 C.ar      1 RES1    0.0000
     10 H4        11.1140    3.6910    1.5330 H         1 RES1    0.0000
     11 N1        13.5388    0.6187    3.7297 N.pl3     1 RES1    0.0000
     12 O1        14.6755    0.2007    3.8890 O.2       1 RES1    0.0000
     13 O2        12.5593    0.0499    4.1881 O.2       1 RES1    0.0000
     14 C7        10.8068    1.3844    2.6785 C.2       1 RES1    0.0000
     15 O3        10.6238    0.4925    1.8611 O.2       1 RES1    0.0000
     16 N2         9.8757    1.7840    3.5827 N.am      1 RES1    0.0000
     17 C8        10.1959    2.7498    4.6677 C.3       1 RES1    0.0000
     18 H5        11.1725    2.8237    4.6779 H         1 RES1    0.0000
     19 C9         9.6784    4.1601    4.3915 C.3       1 RES1    0.0000
     20 H6         9.9526    4.4353    3.5136 H         1 RES1    0.0000
     21 H7        10.0382    4.7664    5.0434 H         1 RES1    0.0000
     22 H8         8.7196    4.1650    4.4447 H         1 RES1    0.0000
     23 C10        9.8094    2.2025    6.0410 C.ar      1 RES1    0.0000
     24 C11        9.0111    2.9166    6.9321 C.ar      1 RES1    0.0000
     25 H9         8.6194    3.7156    6.6616 H         1 RES1    0.0000
     26 C12        8.7938    2.4457    8.2222 C.ar      1 RES1    0.0000
     27 H10        8.2767    2.9443    8.8138 H         1 RES1    0.0000
     28 C13        9.3335    1.2521    8.6328 C.ar      1 RES1    0.0000
     29 H11        9.1778    0.9388    9.4945 H         1 RES1    0.0000
     30 C14       10.1065    0.5245    7.7607 C.ar      1 RES1    0.0000
     31 H12       10.4681   -0.2893    8.0292 H         1 RES1    0.0000
     32 C15       10.3494    1.0034    6.4731 C.ar      1 RES1    0.0000
     33 H13       10.8840    0.5085    5.8943 H         1 RES1    0.0000
     34 C16        8.5447    1.1394    3.5351 C.3       1 RES1    0.0000
     35 H14        8.4260    0.6002    4.3329 H         1 RES1    0.0000
     36 H15        8.5076    0.5466    2.7683 H         1 RES1    0.0000
     37 C17        7.4080    2.1422    3.4416 C.ar      1 RES1    0.0000
     38 C18        7.3769    3.0514    2.3593 C.ar      1 RES1    0.0000
     39 C19        8.2510    2.9363    1.2291 C.ar      1 RES1    0.0000
     40 H16        8.8254    2.2075    1.1659 H         1 RES1    0.0000
     41 C20        8.2503    3.8806    0.2475 C.ar      1 RES1    0.0000
     42 H17        8.8272    3.7864   -0.4758 H         1 RES1    0.0000
     43 C21        7.3907    5.0004    0.3068 C.ar      1 RES1    0.0000
     44 H18        7.4218    5.6461   -0.3624 H         1 RES1    0.0000
     45 C22        6.5259    5.1333    1.3326 C.ar      1 RES1    0.0000
     46 H19        5.9531    5.8652    1.3534 H         1 RES1    0.0000
     47 C23        6.4735    4.1675    2.3903 C.ar      1 RES1    0.0000
     48 C24        5.5799    4.2851    3.4463 C.ar      1 RES1    0.0000
     49 H20        5.0248    5.0299    3.4883 H         1 RES1    0.0000
     50 C25        5.4928    3.3186    4.4432 C.ar      1 RES1    0.0000
     51 C26        4.4871    3.4011    5.4540 C.ar      1 RES1    0.0000
     52 H21        3.9057    4.1268    5.4673 H         1 RES1    0.0000
     53 C27        4.3727    2.4414    6.3863 C.ar      1 RES1    0.0000
     54 H22        3.7072    2.5054    7.0318 H         1 RES1    0.0000
     55 C28        5.2519    1.3370    6.3970 C.ar      1 RES1    0.0000
     56 H23        5.1441    0.6691    7.0350 H         1 RES1    0.0000
     57 C29        6.2569    1.2392    5.4788 C.ar      1 RES1    0.0000
     58 H24        6.8494    0.5239    5.5272 H         1 RES1    0.0000
     59 C30        6.4204    2.2112    4.4444 C.ar      1 RES1    0.0000
@<TRIPOS>BOND
     1    1    2 ar
     2    2    3 ar
     3    3    4 1
     4    5    3 ar
     5    6    5 1
     6    7    5 ar
     7    8    7 1
     8    9    1 ar
     9   10    9 1
    10   11    2 1
    11   12   11 2
    12   13   11 2
    13   14    1 1
    14   15   14 2
    15   16   14 1
    16   17   16 1
    17   18   17 1
    18   19   17 1
    19   20   19 1
    20   21   19 1
    21   22   19 1
    22   23   17 1
    23   24   23 ar
    24   25   24 1
    25   26   24 ar
    26   27   26 1
    27   28   26 ar
    28   29   28 1
    29   30   28 ar
    30   31   30 1
    31   32   23 ar
    32   33   32 1
    33   34   16 1
    34   35   34 1
    35   36   34 1
    36   37   34 1
    37   38   37 ar
    38   39   38 ar
    39   40   39 1
    40   41   39 ar
    41   42   41 1
    42   43   41 ar
    43   44   43 1
    44   45   43 ar
    45   46   45 1
    46   47   38 ar
    47   48   47 ar
    48   49   48 1
    49   50   48 ar
    50   51   50 ar
    51   52   51 1
    52   53   51 ar
    53   54   53 1
    54   55   53 ar
    55   56   55 1
    56   57   55 ar
    57   58   57 1
    58   59   37 ar
    59    7    9 ar
    60   30   32 ar
    61   45   47 ar
    62   50   59 ar
    63   57   59 ar
@<TRIPOS>SUBSTRUCTURE
     1 RES1 1

@<TRIPOS>CRYSIN
  12.0572    6.1558   15.8216  90.0000  95.2250  90.0000   4 1

