# MOL2 file generated by ConQuest
# Please check atom types

@<TRIPOS>MOLECULE
CIRLEW
    33    35     1
SMALL
NO_CHARGES
****
Generated from CSD

@<TRIPOS>ATOM
      1 O1         1.9614    6.5718    4.3833 O.2       1 RES1    0.0000
      2 O2         3.0571    8.2813    5.1419 O.2       1 RES1    0.0000
      3 N1         2.0852    7.7746    4.5956 N.pl3     1 RES1    0.0000
      4 N2        -0.6436    7.7043   -0.3474 N.1       1 RES1    0.0000
      5 C1         0.9946    8.6992    4.1094 C.3       1 RES1    0.0000
      6 H1         1.0859    9.5982    4.5377 H         1 RES1    0.0000
      7 C2        -0.3876    8.1136    4.3976 C.3       1 RES1    0.0000
      8 H2        -0.3444    7.4857    5.1620 H         1 RES1    0.0000
      9 H3        -1.0296    8.8345    4.6160 H         1 RES1    0.0000
     10 C3        -0.8163    7.3872    3.1409 C.2       1 RES1    0.0000
     11 C4         0.2795    7.5787    2.0942 C.3       1 RES1    0.0000
     12 H4         0.8907    6.7886    2.1419 H         1 RES1    0.0000
     13 C5         1.0809    8.8285    2.5512 C.3       1 RES1    0.0000
     14 C6         2.5075    8.9213    1.9735 C.3       1 RES1    0.0000
     15 H5         3.1371    8.3761    2.5085 H         1 RES1    0.0000
     16 H6         2.5265    8.6030    1.0366 H         1 RES1    0.0000
     17 C7         2.8793   10.4087    2.0484 C.3       1 RES1    0.0000
     18 H7         3.3067   10.6290    2.9132 H         1 RES1    0.0000
     19 H8         3.4873   10.6645    1.3096 H         1 RES1    0.0000
     20 C8         1.5394   11.0832    1.9123 C.ar      1 RES1    0.0000
     21 C9         1.2687   12.4034    1.5896 C.ar      1 RES1    0.0000
     22 H9         1.9766   13.0158    1.4260 H         1 RES1    0.0000
     23 C10       -0.0592   12.8166    1.5104 C.ar      1 RES1    0.0000
     24 H10       -0.2581   13.7193    1.2905 H         1 RES1    0.0000
     25 C11       -1.0994   11.9207    1.7496 C.ar      1 RES1    0.0000
     26 H11       -2.0007   12.2147    1.6838 H         1 RES1    0.0000
     27 C12       -0.8247   10.5935    2.0858 C.ar      1 RES1    0.0000
     28 H12       -1.5305    9.9819    2.2584 H         1 RES1    0.0000
     29 C13        0.4994   10.1858    2.1641 C.ar      1 RES1    0.0000
     30 C14       -1.9466    6.7255    2.9630 C.2       1 RES1    0.0000
     31 H13       -2.5835    6.6747    3.6672 H         1 RES1    0.0000
     32 H14       -2.1228    6.3010    2.1324 H         1 RES1    0.0000
     33 C15       -0.2326    7.6717    0.7193 C.1       1 RES1    0.0000
@<TRIPOS>BOND
     1    1    3 2
     2    2    3 2
     3    3    5 1
     4    4   33 3
     5    5    6 1
     6    7    5 1
     7    8    7 1
     8    9    7 1
     9   10    7 1
    10   11   10 1
    11   12   11 1
    12   13    5 1
    13   14   13 1
    14   15   14 1
    15   16   14 1
    16   17   14 1
    17   18   17 1
    18   19   17 1
    19   20   17 1
    20   21   20 ar
    21   22   21 1
    22   23   21 ar
    23   24   23 1
    24   25   23 ar
    25   26   25 1
    26   27   25 ar
    27   28   27 1
    28   29   13 1
    29   30   10 2
    30   31   30 1
    31   32   30 1
    32   33   11 1
    33   11   13 1
    34   20   29 ar
    35   27   29 ar
@<TRIPOS>SUBSTRUCTURE
     1 RES1 1

@<TRIPOS>CRYSIN
   7.3125    9.1134   19.0902  90.0000  90.0000  90.0000  19 1

