# MOL2 file generated by ConQuest
# Please check atom types

@<TRIPOS>MOLECULE
CIRLAS
    37    38     1
SMALL
NO_CHARGES
****
Generated from CSD

@<TRIPOS>ATOM
      1 C1         6.6638   16.0836   10.7842 C.3       1 RES1    0.0000
      2 H1         6.8245   16.3621    9.8701 H         1 RES1    0.0000
      3 H2         5.7375   16.2746   10.9983 H         1 RES1    0.0000
      4 C2         6.9141   14.5772   10.9082 C.3       1 RES1    0.0000
      5 H3         7.8716   14.4386   10.7502 H         1 RES1    0.0000
      6 C3         6.1781   13.8466    9.7885 C.ar      1 RES1    0.0000
      7 C4         6.7106   13.8378    8.5125 C.ar      1 RES1    0.0000
      8 H4         7.5073   14.2899    8.3494 H         1 RES1    0.0000
      9 C5         6.0844   13.1743    7.4760 C.ar      1 RES1    0.0000
     10 H5         6.4637   13.1859    6.6265 H         1 RES1    0.0000
     11 C6         4.9107   12.4962    7.6816 C.ar      1 RES1    0.0000
     12 C7         4.2498   11.7364    6.5891 C.3       1 RES1    0.0000
     13 H6         4.7488   11.8472    5.7769 H         1 RES1    0.0000
     14 H7         3.3576   12.0674    6.4651 H         1 RES1    0.0000
     15 H8         4.2168   10.8060    6.8202 H         1 RES1    0.0000
     16 C8         4.3880   12.4830    8.9135 C.ar      1 RES1    0.0000
     17 H9         3.5935   12.0251    9.0681 H         1 RES1    0.0000
     18 C9         5.0032   13.1364    9.9550 C.ar      1 RES1    0.0000
     19 H10        4.6163   13.0985   10.7995 H         1 RES1    0.0000
     20 C10        6.6233   14.0405   12.3015 C.ar      1 RES1    0.0000
     21 C11        7.4478   13.0562   12.8401 C.ar      1 RES1    0.0000
     22 H11        8.2064   12.7835   12.3762 H         1 RES1    0.0000
     23 C12        7.1448   12.4801   14.0635 C.ar      1 RES1    0.0000
     24 H12        7.7016   11.8224   14.4118 H         1 RES1    0.0000
     25 C13        6.0295   12.8724   14.7686 C.ar      1 RES1    0.0000
     26 C14        5.2015   13.8218   14.2673 C.ar      1 RES1    0.0000
     27 H13        4.4412   14.0843   14.7346 H         1 RES1    0.0000
     28 C15        5.5143   14.3963   13.0389 C.ar      1 RES1    0.0000
     29 H14        4.9482   15.0526   12.6991 H         1 RES1    0.0000
     30 C16        4.6106   12.4962   16.6648 C.3       1 RES1    0.0000
     31 H15        4.5770   11.9770   17.4701 H         1 RES1    0.0000
     32 H16        3.8572   12.2774   16.1109 H         1 RES1    0.0000
     33 H17        4.5851   13.4309   16.8840 H         1 RES1    0.0000
     34 N1         7.5698   16.8652   11.7170 N.pl3     1 RES1    0.0000
     35 O1         7.0835   17.6250   12.5139 O.2       1 RES1    0.0000
     36 O2         8.7742   16.6596   11.6150 O.2       1 RES1    0.0000
     37 O3         5.8138   12.2060   15.9630 O.3       1 RES1    0.0000
@<TRIPOS>BOND
     1    1    2 1
     2    3    1 1
     3    4    1 1
     4    5    4 1
     5    6    4 1
     6    7    6 ar
     7    8    7 1
     8    9    7 ar
     9   10    9 1
    10   11    9 ar
    11   12   11 1
    12   13   12 1
    13   14   12 1
    14   15   12 1
    15   16   11 ar
    16   17   16 1
    17   18    6 ar
    18   19   18 1
    19   20    4 1
    20   21   20 ar
    21   22   21 1
    22   23   21 ar
    23   24   23 1
    24   25   23 ar
    25   26   25 ar
    26   27   26 1
    27   28   20 ar
    28   29   28 1
    29   30   31 1
    30   32   30 1
    31   33   30 1
    32   34    1 1
    33   35   34 2
    34   36   34 2
    35   37   25 1
    36   16   18 ar
    37   26   28 ar
    38   30   37 1
@<TRIPOS>SUBSTRUCTURE
     1 RES1 1

@<TRIPOS>CRYSIN
   5.7820   14.5830   16.9910  90.0000  90.0000  90.0000  19 1

