# MOL2 file generated by ConQuest
# Please check atom types

@<TRIPOS>MOLECULE
CISJET
    16    16     1
SMALL
NO_CHARGES
****
Generated from CSD

@<TRIPOS>ATOM
      1 C1         1.7738    2.5264    2.2176 C.3       1 RES1    0.0000
      2 C2         0.3444    3.0799    2.0551 C.3       1 RES1    0.0000
      3 C3         0.0731    3.7271    0.6899 C.3       1 RES1    0.0000
      4 C4         1.0972    4.8256    0.3756 C.3       1 RES1    0.0000
      5 C5         2.4837    4.2040    0.4431 C.3       1 RES1    0.0000
      6 C6         2.7756    3.6050    1.8175 C.3       1 RES1    0.0000
      7 C7         2.0016    2.0551    3.6564 C.2       1 RES1    0.0000
      8 C8         0.9507    1.1440    4.2489 C.2       1 RES1    0.0000
      9 C9         3.0477    2.3958    4.3876 C.3       1 RES1    0.0000
     10 C10        2.0184    1.3029    1.3660 C.2       1 RES1    0.0000
     11 N1         1.1051    0.6898    0.7727 N.2       1 RES1    0.0000
     12 O1         1.5478   -0.4542    0.0889 O.3       1 RES1    0.0000
     13 C11        0.7905    5.6119   -0.9275 C.3       1 RES1    0.0000
     14 C12        0.9002    4.7547   -2.1593 C.3       1 RES1    0.0000
     15 C13       -0.6081    6.1910   -0.8823 C.3       1 RES1    0.0000
     16 C14        1.7567    6.7559   -1.0762 C.3       1 RES1    0.0000
@<TRIPOS>BOND
     1    1    2 1
     2    2    3 1
     3    3    4 1
     4    4    5 1
     5    5    6 1
     6    6    1 1
     7    7    1 1
     8    8    7 2
     9    9    7 1
    10   10    1 1
    11   11   10 2
    12   12   11 1
    13   13    4 1
    14   14   13 1
    15   15   13 1
    16   16   13 1
@<TRIPOS>SUBSTRUCTURE
     1 RES1 1

@<TRIPOS>CRYSIN
   6.6230   28.3860    7.7420  90.0000  98.0700  90.0000 231 1

