# MOL2 file generated by ConQuest
# Please check atom types

@<TRIPOS>MOLECULE
CITCAJ
   114   118     2
SMALL
NO_CHARGES
****
Generated from CSD

@<TRIPOS>ATOM
      1 C1         8.6050    8.7901   11.4765 C.3       1 RES1    0.0000
      2 C2         9.6315    7.6968   11.7738 C.3       1 RES1    0.0000
      3 C3         8.9807    6.3460   11.5530 C.3       1 RES1    0.0000
      4 C4         8.4480    6.1242   10.1331 C.3       1 RES1    0.0000
      5 C5         7.5415    7.3046    9.6818 C.3       1 RES1    0.0000
      6 C6         7.0831    7.2650    8.2249 C.3       1 RES1    0.0000
      7 C7         8.1229    7.8275    7.1806 C.3       1 RES1    0.0000
      8 C8         9.0761    8.8535    7.7577 C.2       1 RES1    0.0000
      9 C9         9.0858    9.1902    9.0211 C.2       1 RES1    0.0000
     10 C10        8.0816    8.7466   10.0240 C.3       1 RES1    0.0000
     11 C11        6.8349    9.6973    9.9994 C.3       1 RES1    0.0000
     12 C12        7.2493   11.1590    9.9791 C.2       1 RES1    0.0000
     13 C13        7.6308    4.8724   10.1331 C.3       1 RES1    0.0000
     14 C14        9.6658    5.9142    9.2217 C.3       1 RES1    0.0000
     15 C15       10.0859    9.3487    6.7337 C.3       1 RES1    0.0000
     16 C16        6.2276   14.2488    8.6780 C.ar      1 RES1    0.0000
     17 C17        5.0432   13.8606    8.0085 C.ar      1 RES1    0.0000
     18 C18        4.2986   14.7677    7.3337 C.ar      1 RES1    0.0000
     19 C19        4.7428   16.1265    7.2853 C.ar      1 RES1    0.0000
     20 C20        5.8711   16.5265    7.8642 C.ar      1 RES1    0.0000
     21 C21        6.6271   15.5877    8.5759 C.ar      1 RES1    0.0000
     22 N1         6.5322   11.9750    9.2885 N.2       1 RES1    0.0000
     23 N2         6.9749   13.3139    9.3580 N.pl3     1 RES1    0.0000
     24 N3         3.9403   17.0851    6.4636 N.pl3     1 RES1    0.0000
     25 N4         7.7899   16.1146    9.2349 N.pl3     1 RES1    0.0000
     26 O1         2.9193   16.7088    5.9674 O.2       1 RES1    0.0000
     27 O2         4.3661   18.2022    6.4020 O.2       1 RES1    0.0000
     28 O3         8.1409   17.2713    9.0519 O.2       1 RES1    0.0000
     29 O4         8.4613   15.3659    9.9527 O.2       1 RES1    0.0000
     30 H1         7.7526    8.7149   12.1143 H         1 RES1    0.0000
     31 H2         8.9068    9.4279   11.8328 H         1 RES1    0.0000
     32 H3         9.6928    8.0414   12.7125 H         1 RES1    0.0000
     33 H4        10.4356    7.8038   11.3313 H         1 RES1    0.0000
     34 H5         8.1673    6.3777   12.2199 H         1 RES1    0.0000
     35 H6         9.9077    5.5854   11.7976 H         1 RES1    0.0000
     36 H7         6.5465    7.2096   10.3812 H         1 RES1    0.0000
     37 H8         6.2942    7.5661    8.0938 H         1 RES1    0.0000
     38 H9         6.8826    6.2985    7.8915 H         1 RES1    0.0000
     39 H10        8.6955    7.1303    6.7566 H         1 RES1    0.0000
     40 H11        7.6538    8.0414    6.5366 H         1 RES1    0.0000
     41 H12        9.6557    9.8240    9.2111 H         1 RES1    0.0000
     42 H13        6.2191    9.5467    9.3167 H         1 RES1    0.0000
     43 H14        6.3030    9.4279   11.1554 H         1 RES1    0.0000
     44 H15        8.0998   11.5274   10.6715 H         1 RES1    0.0000
     45 H16        7.4798    4.5951    9.3607 H         1 RES1    0.0000
     46 H17        6.6278    4.9120   10.6627 H         1 RES1    0.0000
     47 H18        8.1907    4.0801   10.4868 H         1 RES1    0.0000
     48 H19       10.2013    6.5758    9.1935 H         1 RES1    0.0000
     49 H20        9.4133    5.6250    8.2258 H         1 RES1    0.0000
     50 H21       10.2479    5.3478    9.4838 H         1 RES1    0.0000
     51 H22       10.4740    9.9429    6.9853 H         1 RES1    0.0000
     52 H23       10.9110    8.6356    6.2903 H         1 RES1    0.0000
     53 H24        9.7850    9.6656    5.9208 H         1 RES1    0.0000
     54 H25        4.7330   12.9535    7.9794 H         1 RES1    0.0000
     55 H26        3.3116   14.6172    7.1964 H         1 RES1    0.0000
     56 H27        6.1609   17.3505    7.7507 H         1 RES1    0.0000
     57 H28        7.5800   13.5873    9.9853 H         1 RES1    0.0000
     58 C22        2.1450   19.8501    3.8490 C.3       2 RES2    0.0000
     59 C23        1.1708   20.8959    4.3399 C.3       2 RES2    0.0000
     60 C24        1.9380   22.2308    4.5009 C.3       2 RES2    0.0000
     61 C25        2.5535   22.7537    3.2463 C.3       2 RES2    0.0000
     62 C26        3.4244   21.6445    2.5284 C.3       2 RES2    0.0000
     63 C27        3.9727   21.9931    1.1182 C.3       2 RES2    0.0000
     64 C28        2.9512   21.7594   -0.0317 C.3       2 RES2    0.0000
     65 C29        1.8907   20.7453    0.2481 C.2       2 RES2    0.0000
     66 C30        1.8002   20.0878    1.3680 C.2       2 RES2    0.0000
     67 C31        2.8127   20.1987    2.5214 C.3       2 RES2    0.0000
     68 C32        3.9695   19.2361    2.2522 C.3       2 RES2    0.0000
     69 C33        3.5931   17.7744    2.2724 C.2       2 RES2    0.0000
     70 C34        1.4362   23.3241    2.2962 C.3       2 RES2    0.0000
     71 C35        3.5206   23.9500    3.5718 C.3       2 RES2    0.0000
     72 C36        0.8350   20.5433   -0.8551 C.3       2 RES2    0.0000
     73 C37        4.7512   14.7836    3.6088 C.ar      2 RES2    0.0000
     74 C38        5.9286   15.1797    4.2123 C.ar      2 RES2    0.0000
     75 C39        6.7472   14.3518    4.9161 C.ar      2 RES2    0.0000
     76 C40        6.4018   12.9653    5.0138 C.ar      2 RES2    0.0000
     77 C41        5.2785   12.5019    4.3944 C.ar      2 RES2    0.0000
     78 C42        4.4809   13.3258    3.7047 C.ar      2 RES2    0.0000
     79 N5         4.3211   16.9623    2.9340 N.2       2 RES2    0.0000
     80 N6         3.9713   15.6273    2.9138 N.pl3     2 RES2    0.0000
     81 N7         7.2663   12.0780    5.7440 N.pl3     2 RES2    0.0000
     82 N8         3.2912   12.7990    3.0660 N.pl3     2 RES2    0.0000
     83 O5         8.2792   12.5296    6.2648 O.2       2 RES2    0.0000
     84 O6         6.9607   10.9015    5.8003 O.2       2 RES2    0.0000
     85 O7         3.0611   11.5947    3.2586 O.2       2 RES2    0.0000
     86 O8         2.5751   13.5041    2.3402 O.2       2 RES2    0.0000
     87 H29        1.7028   18.9746    3.8534 H         2 RES2    0.0000
     88 H30        3.0282   19.7669    4.4516 H         2 RES2    0.0000
     89 H31        0.3047   21.0741    3.5542 H         2 RES2    0.0000
     90 H32        0.5696   20.5988    5.2434 H         2 RES2    0.0000
     91 H33        1.2942   22.7775    4.8387 H         2 RES2    0.0000
     92 H34        2.5490   22.2229    5.1466 H         2 RES2    0.0000
     93 H35        4.1873   21.5891    3.0352 H         2 RES2    0.0000
     94 H36        4.8760   21.6683    0.6774 H         2 RES2    0.0000
     95 H37        4.1939   22.9359    1.0469 H         2 RES2    0.0000
     96 H38        3.7154   21.4306   -0.8094 H         2 RES2    0.0000
     97 H39        2.7863   22.4606   -0.4399 H         2 RES2    0.0000
     98 H40        1.2056   19.5292    1.5044 H         2 RES2    0.0000
     99 H41        4.7446   19.4104    3.0528 H         2 RES2    0.0000
    100 H42        4.2833   19.3708    1.4164 H         2 RES2    0.0000
    101 H43        2.5637   17.5882    2.0059 H         2 RES2    0.0000
    102 H44        0.8324   22.6982    1.7331 H         2 RES2    0.0000
    103 H45        1.9064   23.8074    1.6276 H         2 RES2    0.0000
    104 H46        0.9737   23.9659    2.7273 H         2 RES2    0.0000
    105 H47        4.0857   23.6093    4.0557 H         2 RES2    0.0000
    106 H48        2.9271   24.4016    4.0469 H         2 RES2    0.0000
    107 H49        3.6604   24.3620    2.7185 H         2 RES2    0.0000
    108 H50        0.1512   20.0838   -0.5982 H         2 RES2    0.0000
    109 H51        1.5353   20.4799   -1.5132 H         2 RES2    0.0000
    110 H52        0.2726   21.3910   -1.2317 H         2 RES2    0.0000
    111 H53        6.1326   15.9640    4.2668 H         2 RES2    0.0000
    112 H54        7.6504   14.6568    5.0498 H         2 RES2    0.0000
    113 H55        5.0271   11.4085    4.3636 H         2 RES2    0.0000
    114 H56        3.2469   15.2906    2.3578 H         2 RES2    0.0000
@<TRIPOS>BOND
     1    1    2 1
     2    2    3 1
     3    3    4 1
     4    4    5 1
     5    5    6 1
     6    6    7 1
     7    7    8 1
     8    8    9 2
     9    9   10 1
    10   10    1 1
    11   11   10 1
    12   12   11 1
    13   13    4 1
    14   14    4 1
    15   15    8 1
    16   16   17 ar
    17   17   18 ar
    18   18   19 ar
    19   19   20 ar
    20   20   21 ar
    21   21   16 ar
    22   22   12 2
    23   23   16 1
    24   24   19 1
    25   25   21 1
    26   26   24 2
    27   27   24 2
    28   28   25 2
    29   29   25 2
    30   30    1 1
    31   31    1 1
    32   32    2 1
    33   33    2 1
    34   34    3 1
    35   35    3 1
    36   36    5 1
    37   37    6 1
    38   38    6 1
    39   39    7 1
    40   40    7 1
    41   41    9 1
    42   42   11 1
    43   43   11 1
    44   44   12 1
    45   45   13 1
    46   46   13 1
    47   47   13 1
    48   48   14 1
    49   49   14 1
    50   50   14 1
    51   51   15 1
    52   52   15 1
    53   53   15 1
    54   54   17 1
    55   55   18 1
    56   56   20 1
    57   57   23 1
    58   58   59 1
    59   59   60 1
    60   60   61 1
    61   61   62 1
    62   62   63 1
    63   63   64 1
    64   64   65 1
    65   65   66 2
    66   66   67 1
    67   67   58 1
    68   68   67 1
    69   69   68 1
    70   70   61 1
    71   71   61 1
    72   72   65 1
    73   73   74 ar
    74   74   75 ar
    75   75   76 ar
    76   76   77 ar
    77   77   78 ar
    78   78   73 ar
    79   79   69 2
    80   80   73 1
    81   81   76 1
    82   82   78 1
    83   83   81 2
    84   84   81 2
    85   85   82 2
    86   86   82 2
    87   87   58 1
    88   88   58 1
    89   89   59 1
    90   90   59 1
    91   91   60 1
    92   92   60 1
    93   93   62 1
    94   94   63 1
    95   95   63 1
    96   96   64 1
    97   97   64 1
    98   98   66 1
    99   99   68 1
   100  100   68 1
   101  101   69 1
   102  102   70 1
   103  103   70 1
   104  104   70 1
   105  105   71 1
   106  106   71 1
   107  107   71 1
   108  108   72 1
   109  109   72 1
   110  110   72 1
   111  111   74 1
   112  112   75 1
   113  113   77 1
   114  114   80 1
   115    5   10 1
   116   22   23 1
   117   62   67 1
   118   79   80 1
@<TRIPOS>SUBSTRUCTURE
     1 RES1 1
     2 RES2 58

@<TRIPOS>CRYSIN
   6.0270   39.6130    8.9100  90.0000  80.8900  90.0000   4 1

