# MOL2 file generated by ConQuest
# Please check atom types

@<TRIPOS>MOLECULE
CITRUT
    43    47     1
SMALL
NO_CHARGES
****
Generated from CSD

@<TRIPOS>ATOM
      1 C1         4.3320    4.5827    1.8541 C.3       1 RES1    0.0000
      2 C2         3.7339    4.1484    3.1880 C.3       1 RES1    0.0000
      3 O1         4.7962    3.8319    4.1221 O.3       1 RES1    0.0000
      4 N1         4.8028    4.7813    5.1664 N.2       1 RES1    0.0000
      5 C3         3.8281    5.5952    5.0239 C.2       1 RES1    0.0000
      6 C4         2.9814    5.3358    3.8047 C.3       1 RES1    0.0000
      7 C5         2.9746    6.4826    2.7939 C.3       1 RES1    0.0000
      8 O2         4.3425    6.9093    2.5649 O.3       1 RES1    0.0000
      9 N2         5.1042    5.7961    2.0942 N.am      1 RES1    0.0000
     10 C6         2.3488    6.0441    1.4847 C.3       1 RES1    0.0000
     11 C7         3.1997    4.9067    0.8836 C.3       1 RES1    0.0000
     12 C8         6.4312    5.9516    1.9774 C.2       1 RES1    0.0000
     13 O3         7.1199    5.0868    1.4425 O.2       1 RES1    0.0000
     14 C9         7.0192    7.2122    2.5330 C.ar      1 RES1    0.0000
     15 C10        7.7600    8.0536    1.7189 C.ar      1 RES1    0.0000
     16 C11        8.3642    9.1816    2.2745 C.ar      1 RES1    0.0000
     17 C12        8.2424    9.4550    3.6137 C.ar      1 RES1    0.0000
     18 C13        7.5264    8.6091    4.4228 C.ar      1 RES1    0.0000
     19 C14        6.9090    7.4898    3.8830 C.ar      1 RES1    0.0000
     20 C15        3.6209    6.6923    5.9782 C.ar      1 RES1    0.0000
     21 C16        4.6169    7.0258    6.9000 C.ar      1 RES1    0.0000
     22 C17        4.4041    8.0442    7.8137 C.ar      1 RES1    0.0000
     23 C18        3.2218    8.7363    7.8235 C.ar      1 RES1    0.0000
     24 C19        2.2383    8.4226    6.9157 C.ar      1 RES1    0.0000
     25 C20        2.4325    7.4015    5.9961 C.ar      1 RES1    0.0000
     26 H1         4.9642    3.9244    1.5349 H         1 RES1    0.0000
     27 H2         3.1794    3.3389    3.0875 H         1 RES1    0.0000
     28 H3         2.0443    5.1256    4.0527 H         1 RES1    0.0000
     29 H4         2.5596    7.2870    3.1388 H         1 RES1    0.0000
     30 H5         2.3282    6.8476    0.8180 H         1 RES1    0.0000
     31 H6         1.4073    5.7693    1.6621 H         1 RES1    0.0000
     32 H7         3.5918    5.1799    0.0088 H         1 RES1    0.0000
     33 H8         2.6613    4.0892    0.7405 H         1 RES1    0.0000
     34 H9         7.8321    7.8614    0.8002 H         1 RES1    0.0000
     35 H10        8.8572    9.7730    1.7086 H         1 RES1    0.0000
     36 H11        8.6692   10.2688    3.9989 H         1 RES1    0.0000
     37 H12        7.4325    8.8009    5.3931 H         1 RES1    0.0000
     38 H13        6.3941    6.8672    4.4325 H         1 RES1    0.0000
     39 H14        5.4659    6.5357    6.8420 H         1 RES1    0.0000
     40 H15        5.1092    8.2307    8.4808 H         1 RES1    0.0000
     41 H16        3.0792    9.4742    8.4534 H         1 RES1    0.0000
     42 H17        1.3672    8.9196    6.9028 H         1 RES1    0.0000
     43 H18        1.7004    7.1529    5.3614 H         1 RES1    0.0000
@<TRIPOS>BOND
     1    1    2 1
     2    2    3 1
     3    3    4 1
     4    4    5 2
     5    5    6 1
     6    6    2 1
     7    7    6 1
     8    8    7 1
     9    9    1 1
    10   10    7 1
    11   11    1 1
    12   12    9 1
    13   13   12 2
    14   14   12 1
    15   15   14 ar
    16   16   15 ar
    17   17   16 ar
    18   18   17 ar
    19   19   14 ar
    20   20    5 1
    21   21   20 ar
    22   22   21 ar
    23   23   22 ar
    24   24   23 ar
    25   25   20 ar
    26   26    1 1
    27   27    2 1
    28   28    6 1
    29   29    7 1
    30   30   10 1
    31   31   10 1
    32   32   11 1
    33   33   11 1
    34   34   15 1
    35   35   16 1
    36   36   17 1
    37   37   18 1
    38   38   19 1
    39   39   21 1
    40   40   22 1
    41   41   23 1
    42   42   24 1
    43   43   25 1
    44    8    9 1
    45   10   11 1
    46   18   19 ar
    47   24   25 ar
@<TRIPOS>SUBSTRUCTURE
     1 RES1 1

@<TRIPOS>CRYSIN
   8.2130   13.0480   15.6560  90.0000 104.0500  90.0000  14 2

