# MOL2 file generated by ConQuest
# Please check atom types

@<TRIPOS>MOLECULE
CITTAB
    61    63     1
SMALL
NO_CHARGES
****
Generated from CSD

@<TRIPOS>ATOM
      1 O1         7.9369   -0.8120    5.0538 O.3       1 RES1    0.0000
      2 O2         1.7466    2.1476    3.8725 O.2       1 RES1    0.0000
      3 O3         3.2718    1.3336    2.4281 O.3       1 RES1    0.0000
      4 O4         8.1822   -1.0280    2.8200 O.2       1 RES1    0.0000
      5 O5        -2.7335    2.5869   -1.3585 O.2       1 RES1    0.0000
      6 O6        -1.3900    1.4456   -2.6216 O.2       1 RES1    0.0000
      7 N1        -1.6806    1.9911   -1.5571 N.pl3     1 RES1    0.0000
      8 C1         1.5041    1.4463    0.3086 C.ar      1 RES1    0.0000
      9 C2         2.0608    1.8015    2.7582 C.2       1 RES1    0.0000
     10 C3         1.1159    1.8341    1.5960 C.ar      1 RES1    0.0000
     11 C4         4.2007    1.2003    3.5499 C.3       1 RES1    0.0000
     12 C5         7.4784   -0.8595    3.7946 C.2       1 RES1    0.0000
     13 C6         0.5832    1.4861   -0.7279 C.ar      1 RES1    0.0000
     14 C7         9.3862   -0.9434    5.3689 C.3       1 RES1    0.0000
     15 C8         5.1730   -1.2285    4.8826 C.ar      1 RES1    0.0000
     16 C9         4.5086   -1.2126    7.2137 C.ar      1 RES1    0.0000
     17 C10        3.6069   -2.2414    6.9816 C.ar      1 RES1    0.0000
     18 C11        4.2670   -2.2631    4.6731 C.ar      1 RES1    0.0000
     19 C12        5.4056   -0.6989    2.3385 C.3       1 RES1    0.0000
     20 C13       -0.6991    1.9274   -0.4574 C.ar      1 RES1    0.0000
     21 C14        3.4859   -2.7659    5.7067 C.ar      1 RES1    0.0000
     22 C15        5.9880   -0.6707    3.7328 C.3       1 RES1    0.0000
     23 C16        5.4929    0.6331    3.0175 C.3       1 RES1    0.0000
     24 C17       -1.1113    2.3239    0.8026 C.ar      1 RES1    0.0000
     25 C18       -0.1870    2.2653    1.8345 C.ar      1 RES1    0.0000
     26 C19        5.2807   -0.7061    6.1781 C.ar      1 RES1    0.0000
     27 C20        9.4003   -0.8031    6.8808 C.3       1 RES1    0.0000
     28 C21        6.5170    1.6590    2.5177 C.3       1 RES1    0.0000
     29 C22        7.0919    2.5250    3.6398 C.3       1 RES1    0.0000
     30 C23        5.9142    2.5395    1.4140 C.3       1 RES1    0.0000
     31 C24       10.1725    0.1823    4.7180 C.3       1 RES1    0.0000
     32 C25        9.8909   -2.3188    4.9436 C.3       1 RES1    0.0000
     33 H1         2.3754    1.1634    0.1488 H         1 RES1    0.0000
     34 H2         3.8289    0.6092    4.2220 H         1 RES1    0.0000
     35 H3         4.3591    2.0663    3.9558 H         1 RES1    0.0000
     36 H4         0.8230    1.2213   -1.5857 H         1 RES1    0.0000
     37 H5         4.5964   -0.8595    8.0690 H         1 RES1    0.0000
     38 H6         3.0886   -2.5764    7.6768 H         1 RES1    0.0000
     39 H7         4.1815   -2.6270    3.8212 H         1 RES1    0.0000
     40 H8         6.0149   -0.8668    1.6029 H         1 RES1    0.0000
     41 H9         4.5244   -1.0889    2.2298 H         1 RES1    0.0000
     42 H10        2.8825   -3.4547    5.5415 H         1 RES1    0.0000
     43 H11       -1.9798    2.6198    0.9532 H         1 RES1    0.0000
     44 H12       -0.4397    2.5163    2.6935 H         1 RES1    0.0000
     45 H13        5.8767   -0.0116    6.3458 H         1 RES1    0.0000
     46 H14        8.9006   -1.5222    7.2732 H         1 RES1    0.0000
     47 H15        9.0026    0.0347    7.1273 H         1 RES1    0.0000
     48 H16       10.3063   -0.8320    7.1959 H         1 RES1    0.0000
     49 H17        7.2620    1.1605    2.1210 H         1 RES1    0.0000
     50 H18        7.4692    1.9607    4.3193 H         1 RES1    0.0000
     51 H19        6.3926    3.0597    4.0216 H         1 RES1    0.0000
     52 H20        7.7747    3.0980    3.2831 H         1 RES1    0.0000
     53 H21        5.5658    1.9817    0.7156 H         1 RES1    0.0000
     54 H22        6.5942    3.1147    1.0562 H         1 RES1    0.0000
     55 H23        5.2058    3.0727    1.7804 H         1 RES1    0.0000
     56 H24       10.1486    0.0796    3.7640 H         1 RES1    0.0000
     57 H25       11.0834    0.1527    5.0206 H         1 RES1    0.0000
     58 H26        9.7829    1.0259    4.9605 H         1 RES1    0.0000
     59 H27        9.8730   -2.3847    3.9873 H         1 RES1    0.0000
     60 H28        9.3272   -2.9975    5.3211 H         1 RES1    0.0000
     61 H29       10.7911   -2.4404    5.2553 H         1 RES1    0.0000
@<TRIPOS>BOND
     1    1   12 1
     2    2    9 2
     3    3    9 1
     4    4   12 2
     5    5    7 2
     6    6    7 2
     7    7   20 1
     8    8   10 ar
     9    9   10 1
    10   10   25 ar
    11   11    3 1
    12   12   22 1
    13   13    8 ar
    14   14    1 1
    15   15   18 ar
    16   16   17 ar
    17   17   21 ar
    18   18   21 ar
    19   19   22 1
    20   20   13 ar
    21   21   42 1
    22   22   15 1
    23   23   11 1
    24   24   20 ar
    25   25   24 ar
    26   26   15 ar
    27   27   14 1
    28   28   23 1
    29   29   28 1
    30   30   28 1
    31   31   14 1
    32   32   14 1
    33   33    8 1
    34   34   11 1
    35   35   11 1
    36   36   13 1
    37   37   16 1
    38   38   17 1
    39   39   18 1
    40   40   19 1
    41   41   19 1
    42   43   24 1
    43   44   25 1
    44   45   26 1
    45   46   27 1
    46   47   27 1
    47   48   27 1
    48   49   28 1
    49   50   29 1
    50   51   29 1
    51   52   29 1
    52   53   30 1
    53   54   30 1
    54   55   30 1
    55   56   31 1
    56   57   31 1
    57   58   31 1
    58   59   32 1
    59   60   32 1
    60   61   32 1
    61   16   26 ar
    62   19   23 1
    63   22   23 1
@<TRIPOS>SUBSTRUCTURE
     1 RES1 1

@<TRIPOS>CRYSIN
  11.0400    7.2350   28.6280  90.0000  91.0160  90.0000 231 1

