# MOL2 file generated by ConQuest
# Please check atom types

@<TRIPOS>MOLECULE
CIVTUW
    24    26     1
SMALL
NO_CHARGES
****
Generated from CSD

@<TRIPOS>ATOM
      1 C1         4.1679    6.9903    4.3546 C.ar      1 RES1    0.0000
      2 C2         4.5545    5.7396    4.7779 C.ar      1 RES1    0.0000
      3 C3         5.5523    5.0504    4.0847 C.ar      1 RES1    0.0000
      4 C4         6.1752    5.6057    3.0054 C.ar      1 RES1    0.0000
      5 C5         6.1681    8.6426    1.0125 C.2       1 RES1    0.0000
      6 C6         4.9511   10.7475    1.2551 C.ar      1 RES1    0.0000
      7 C7         3.9990   11.4885    1.8963 C.ar      1 RES1    0.0000
      8 C8         3.2314   11.0007    2.9435 C.ar      1 RES1    0.0000
      9 C9         3.4385    9.7137    3.3792 C.ar      1 RES1    0.0000
     10 C10        4.4233    8.9322    2.7727 C.ar      1 RES1    0.0000
     11 C11        4.7576    7.5860    3.2529 C.ar      1 RES1    0.0000
     12 C12        5.7770    6.8906    2.6068 C.ar      1 RES1    0.0000
     13 C13        5.1517    9.4314    1.6908 C.ar      1 RES1    0.0000
     14 O1         2.9267    5.7469    6.3970 O.2       1 RES1    0.0000
     15 O2         4.5208    4.3000    6.5826 O.2       1 RES1    0.0000
     16 O3         5.1285    2.7961    4.2481 O.2       1 RES1    0.0000
     17 O4         7.0720    3.4697    4.8249 O.2       1 RES1    0.0000
     18 O5         6.4969    7.4065    1.5646 O.3       1 RES1    0.0000
     19 O6         6.7925    8.9675    0.0371 O.2       1 RES1    0.0000
     20 O7         4.6937   13.4398    0.8590 O.2       1 RES1    0.0000
     21 O8         2.8071   13.4668    1.9062 O.2       1 RES1    0.0000
     22 N1         3.9628    5.2227    6.0132 N.pl3     1 RES1    0.0000
     23 N2         5.9530    3.6544    4.4388 N.pl3     1 RES1    0.0000
     24 N3         3.8160   12.9208    1.5175 N.pl3     1 RES1    0.0000
@<TRIPOS>BOND
     1    1    2 ar
     2    2    3 ar
     3    3    4 ar
     4    4   12 ar
     5    5   13 1
     6    6    7 ar
     7    7    8 ar
     8    8    9 ar
     9    9   10 ar
    10   10   11 1
    11   11    1 ar
    12   12   11 ar
    13   13    6 ar
    14   14   22 2
    15   15   22 2
    16   16   23 2
    17   17   23 2
    18   18    5 1
    19   19    5 2
    20   20   24 2
    21   21   24 2
    22   22    2 1
    23   23    3 1
    24   24    7 1
    25   10   13 ar
    26   12   18 1
@<TRIPOS>SUBSTRUCTURE
     1 RES1 1

@<TRIPOS>CRYSIN
   5.0270   10.3790   24.7560  90.0000  90.0000  90.0000  19 1

