# MOL2 file generated by ConQuest
# Please check atom types

@<TRIPOS>MOLECULE
CIVTOQ10
    27    29     1
SMALL
NO_CHARGES
****
Generated from CSD

@<TRIPOS>ATOM
      1 C1         3.2493    3.9943    2.8308 C.ar      1 RES1    0.0000
      2 C2         4.3927    4.0860    2.0627 C.ar      1 RES1    0.0000
      3 C3         4.8745    5.3134    1.6679 C.ar      1 RES1    0.0000
      4 C4         4.2193    6.4506    2.0761 C.ar      1 RES1    0.0000
      5 C5         1.4257    7.6055    4.0918 C.2       1 RES1    0.0000
      6 C6        -0.4481    6.3796    5.0721 C.ar      1 RES1    0.0000
      7 C7        -1.0826    5.1995    5.3407 C.ar      1 RES1    0.0000
      8 C8        -0.5572    3.9706    4.9848 C.ar      1 RES1    0.0000
      9 C9         0.6435    3.9336    4.3161 C.ar      1 RES1    0.0000
     10 C10        1.3190    5.1093    4.0112 C.ar      1 RES1    0.0000
     11 C11        2.5650    5.1344    3.2418 C.ar      1 RES1    0.0000
     12 C12        3.0757    6.3692    2.8631 C.ar      1 RES1    0.0000
     13 C13        0.7654    6.3308    4.4074 C.ar      1 RES1    0.0000
     14 O1         4.7891    1.8322    2.2695 O.2       1 RES1    0.0000
     15 O2         5.6968    2.8541    0.6258 O.2       1 RES1    0.0000
     16 O3         5.8925    5.9493   -0.2713 O.2       1 RES1    0.0000
     17 O4         7.1382    5.1477    1.2798 O.2       1 RES1    0.0000
     18 O5         2.5226    7.5479    3.2498 O.3       1 RES1    0.0000
     19 O6         1.0893    8.6895    4.4557 O.2       1 RES1    0.0000
     20 O7         5.9086    7.9930    2.0842 O.2       1 RES1    0.0000
     21 O8         4.0530    8.5446    1.1401 O.2       1 RES1    0.0000
     22 O9        -2.9756    6.2731    6.0995 O.2       1 RES1    0.0000
     23 O10       -2.8313    4.1836    6.4352 O.2       1 RES1    0.0000
     24 N1         5.0146    2.8245    1.6249 N.pl3     1 RES1    0.0000
     25 N2         6.0822    5.4790    0.8232 N.pl3     1 RES1    0.0000
     26 N3         4.7594    7.7786    1.7256 N.pl3     1 RES1    0.0000
     27 N4        -2.3871    5.2261    6.0202 N.pl3     1 RES1    0.0000
@<TRIPOS>BOND
     1    1    2 ar
     2    2    3 ar
     3    3    4 ar
     4    4   12 ar
     5    5   13 1
     6    6    7 ar
     7    7    8 ar
     8    8    9 ar
     9    9   10 ar
    10   10   11 1
    11   11    1 ar
    12   12   11 ar
    13   13    6 ar
    14   14   24 2
    15   15   24 2
    16   16   25 2
    17   17   25 2
    18   18    5 1
    19   19    5 2
    20   20   26 2
    21   21   26 2
    22   22   27 2
    23   23   27 2
    24   24    2 1
    25   25    3 1
    26   26    4 1
    27   27    7 1
    28   10   13 ar
    29   12   18 1
@<TRIPOS>SUBSTRUCTURE
     1 RES1 1

@<TRIPOS>CRYSIN
   7.0730   14.7890   13.4290  90.0000  90.0000  90.6200  14 3

