# MOL2 file generated by ConQuest
# Please check atom types

@<TRIPOS>MOLECULE
CIVTUW01
    24    26     1
SMALL
NO_CHARGES
****
Generated from CSD

@<TRIPOS>ATOM
      1 C1         1.9859    2.2098    9.5706 C.ar      1 RES1    0.0000
      2 C2         1.9142    3.0183    8.4638 C.ar      1 RES1    0.0000
      3 C3         3.0409    3.2988    7.7151 C.ar      1 RES1    0.0000
      4 C4         4.2576    2.7608    8.0442 C.ar      1 RES1    0.0000
      5 C5         5.7963    0.5599   10.4748 C.2       1 RES1    0.0000
      6 C6         4.8850   -0.5728   12.4461 C.ar      1 RES1    0.0000
      7 C7         3.8338   -0.8404   13.2834 C.ar      1 RES1    0.0000
      8 C8         2.5624   -0.3431   13.0700 C.ar      1 RES1    0.0000
      9 C9         2.3370    0.4545   11.9723 C.ar      1 RES1    0.0000
     10 C10        3.3823    0.7747   11.1006 C.ar      1 RES1    0.0000
     11 C11        3.2156    1.6429    9.9377 C.ar      1 RES1    0.0000
     12 C12        4.3253    1.9254    9.1492 C.ar      1 RES1    0.0000
     13 C13        4.6572    0.2476   11.3411 C.ar      1 RES1    0.0000
     14 O1        -0.1077    4.0218    8.9159 O.2       1 RES1    0.0000
     15 O2         0.2195    3.2501    6.9211 O.2       1 RES1    0.0000
     16 O3         2.2384    5.1973    6.6806 O.2       1 RES1    0.0000
     17 O4         3.7082    3.9979    5.6353 O.2       1 RES1    0.0000
     18 O5         5.5623    1.3844    9.3970 O.3       1 RES1    0.0000
     19 O6         6.9120    0.1541   10.6159 O.2       1 RES1    0.0000
     20 O7         5.1739   -2.1432   14.6326 O.2       1 RES1    0.0000
     21 O8         3.1374   -1.8319   15.2457 O.2       1 RES1    0.0000
     22 N1         0.5725    3.4828    8.0641 N.pl3     1 RES1    0.0000
     23 N2         2.9825    4.2386    6.5847 N.pl3     1 RES1    0.0000
     24 N3         4.0636   -1.6628   14.4807 N.pl3     1 RES1    0.0000
@<TRIPOS>BOND
     1    1    2 ar
     2    2    3 ar
     3    3    4 ar
     4    4   12 ar
     5    5   13 1
     6    6    7 ar
     7    7    8 ar
     8    8    9 ar
     9    9   10 ar
    10   10   11 1
    11   11    1 ar
    12   12   11 ar
    13   13    6 ar
    14   14   22 2
    15   15   22 2
    16   16   23 2
    17   17   23 2
    18   18    5 1
    19   19    5 2
    20   20   24 2
    21   21   24 2
    22   22    2 1
    23   23    3 1
    24   24    7 1
    25   10   13 ar
    26   12   18 1
@<TRIPOS>SUBSTRUCTURE
     1 RES1 1

