# MOL2 file generated by ConQuest
# Please check atom types

@<TRIPOS>MOLECULE
CIWDAN10
    88    90     2
SMALL
NO_CHARGES
****
Generated from CSD

@<TRIPOS>ATOM
      1 O1         5.0726    3.3033    2.3178 O.2       1 RES1    0.0000
      2 N1         4.0387    2.5584    2.1840 N.3       1 RES1    0.0000
      3 C1         3.9701    1.7024    0.9641 C.3       1 RES1    0.0000
      4 C2         5.3242    1.0064    0.7940 C.3       1 RES1    0.0000
      5 C3         3.7026    2.5716   -0.2654 C.3       1 RES1    0.0000
      6 C4         2.9064    0.6217    1.1471 C.3       1 RES1    0.0000
      7 C5         1.5947    1.0634    1.7635 C.3       1 RES1    0.0000
      8 O2         0.9314    1.8749    0.7876 O.3       1 RES1    0.0000
      9 C6         0.6770   -0.1393    1.9903 C.3       1 RES1    0.0000
     10 O3         1.3131   -1.0348    2.9117 O.3       1 RES1    0.0000
     11 C7         1.8569    1.7990    3.0604 C.3       1 RES1    0.0000
     12 C8         2.8679    2.9579    3.0058 C.3       1 RES1    0.0000
     13 C9         3.3448    3.2582    4.4108 C.3       1 RES1    0.0000
     14 C10        2.2598    4.2331    2.4077 C.3       1 RES1    0.0000
     15 C11        0.6975   -2.2358    3.1621 C.ar      1 RES1    0.0000
     16 C12       -0.5335   -2.5951    2.6495 C.ar      1 RES1    0.0000
     17 C13       -1.0295   -3.8685    2.9652 C.ar      1 RES1    0.0000
     18 C14       -0.3307   -4.7324    3.7474 C.ar      1 RES1    0.0000
     19 C15        0.8816   -4.3426    4.2578 C.ar      1 RES1    0.0000
     20 C16        1.4013   -3.0997    3.9710 C.ar      1 RES1    0.0000
     21 H1         5.2103    0.3342   -0.0642 H         1 RES1    0.0000
     22 H2         5.5393    0.5478    1.6586 H         1 RES1    0.0000
     23 H3         5.9871    1.5922    0.6741 H         1 RES1    0.0000
     24 H4         3.7935    2.0664   -1.1450 H         1 RES1    0.0000
     25 H5         4.2847    3.2567   -0.3317 H         1 RES1    0.0000
     26 H6         2.7421    3.0703   -0.3317 H         1 RES1    0.0000
     27 H7         3.2495   -0.0570    1.7442 H         1 RES1    0.0000
     28 H8         2.7962    0.1477    0.2140 H         1 RES1    0.0000
     29 H9         0.0968    2.1063    1.1236 H         1 RES1    0.0000
     30 H10        0.4233   -0.6475    1.0701 H         1 RES1    0.0000
     31 H11       -0.2010    0.1142    2.4184 H         1 RES1    0.0000
     32 H12        0.9698    2.1641    3.4349 H         1 RES1    0.0000
     33 H13        2.1456    1.1712    3.7345 H         1 RES1    0.0000
     34 H14        2.5069    3.4566    5.0079 H         1 RES1    0.0000
     35 H15        4.0627    3.9322    4.3766 H         1 RES1    0.0000
     36 H16        3.7956    2.5235    4.7404 H         1 RES1    0.0000
     37 H17        1.5134    4.5127    3.0069 H         1 RES1    0.0000
     38 H18        1.9104    4.1610    1.4553 H         1 RES1    0.0000
     39 H19        2.8828    4.9310    2.4612 H         1 RES1    0.0000
     40 H20       -1.0815   -2.0046    1.9475 H         1 RES1    0.0000
     41 H21       -1.9038   -4.0608    2.6431 H         1 RES1    0.0000
     42 H22       -0.6767   -5.6094    4.0235 H         1 RES1    0.0000
     43 H23        1.2620   -4.9168    4.7190 H         1 RES1    0.0000
     44 H24        2.2230   -2.8566    4.2696 H         1 RES1    0.0000
     45 O4        11.5376    2.3825    1.7688 O.2       2 RES2    0.0000
     46 N2        10.5578    3.2047    1.8063 N.3       2 RES2    0.0000
     47 C17        9.5212    2.8711    2.8164 C.3       2 RES2    0.0000
     48 C18       10.2464    2.6295    4.1219 C.3       2 RES2    0.0000
     49 C19        8.8085    1.5877    2.3531 C.3       2 RES2    0.0000
     50 C20        8.5681    4.0633    2.9780 C.3       2 RES2    0.0000
     51 C21        8.1379    4.7655    1.7143 C.3       2 RES2    0.0000
     52 O5         7.3466    3.9360    0.8571 O.3       2 RES2    0.0000
     53 C22        7.2639    5.9820    2.0342 C.3       2 RES2    0.0000
     54 O6         7.9960    6.8978    2.8442 O.3       2 RES2    0.0000
     55 C23        9.3685    5.1814    0.9385 C.3       2 RES2    0.0000
     56 C24       10.3819    4.0773    0.6239 C.3       2 RES2    0.0000
     57 C25       11.7336    4.7170    0.3082 C.3       2 RES2    0.0000
     58 C26        9.9609    3.2157   -0.5607 C.3       2 RES2    0.0000
     59 C27        7.3603    8.0464    3.2402 C.ar      2 RES2    0.0000
     60 C28        6.0719    8.3756    2.8838 C.ar      2 RES2    0.0000
     61 C29        5.5466    9.5792    3.3515 C.ar      2 RES2    0.0000
     62 C30        6.2589   10.4010    4.1497 C.ar      2 RES2    0.0000
     63 C31        7.5403   10.0654    4.5018 C.ar      2 RES2    0.0000
     64 C32        8.1007    8.8925    4.0395 C.ar      2 RES2    0.0000
     65 H25        9.4947    2.4594    4.8795 H         2 RES2    0.0000
     66 H26       10.7605    3.4878    4.4836 H         2 RES2    0.0000
     67 H27       10.8318    1.9330    4.0663 H         2 RES2    0.0000
     68 H28        8.1381    1.4341    2.9427 H         2 RES2    0.0000
     69 H29        9.4791    0.8423    2.2792 H         2 RES2    0.0000
     70 H30        8.4114    1.7889    1.4232 H         2 RES2    0.0000
     71 H31        8.9616    4.6763    3.6489 H         2 RES2    0.0000
     72 H32        7.7912    3.7433    3.3814 H         2 RES2    0.0000
     73 H33        6.7050    3.8197    1.3911 H         2 RES2    0.0000
     74 H34        6.4159    5.6711    2.5040 H         2 RES2    0.0000
     75 H35        6.9909    6.4128    1.2413 H         2 RES2    0.0000
     76 H36        9.8654    5.9275    1.4874 H         2 RES2    0.0000
     77 H37        9.1937    5.5452    0.0856 H         2 RES2    0.0000
     78 H38       11.6562    5.3524   -0.4173 H         2 RES2    0.0000
     79 H39       12.4177    4.1009    0.0856 H         2 RES2    0.0000
     80 H40       12.0801    5.2019    1.1450 H         2 RES2    0.0000
     81 H41       10.0174    3.7514   -1.3911 H         2 RES2    0.0000
     82 H42        9.1290    2.8530   -0.3638 H         2 RES2    0.0000
     83 H43       10.6983    2.6078   -0.7276 H         2 RES2    0.0000
     84 H44        5.6189    7.7701    2.3006 H         2 RES2    0.0000
     85 H45        4.5977    9.7462    3.0711 H         2 RES2    0.0000
     86 H46        5.9236   11.1830    4.5157 H         2 RES2    0.0000
     87 H47        8.1537   10.6155    5.1363 H         2 RES2    0.0000
     88 H48        9.0506    8.6076    4.2482 H         2 RES2    0.0000
@<TRIPOS>BOND
     1    1    2 1
     2    2    3 1
     3    3    4 1
     4    4   21 1
     5    5    3 1
     6    6    3 1
     7    7    6 1
     8    8    7 1
     9    9    7 1
    10   10    9 1
    11   11    7 1
    12   12    2 1
    13   13   12 1
    14   14   12 1
    15   15   10 1
    16   16   15 ar
    17   17   16 ar
    18   18   17 ar
    19   19   18 ar
    20   20   15 ar
    21   22    4 1
    22   23    4 1
    23   24    5 1
    24   25    5 1
    25   26    5 1
    26   27    6 1
    27   28    6 1
    28   29    8 1
    29   30    9 1
    30   31    9 1
    31   32   11 1
    32   33   11 1
    33   34   13 1
    34   35   13 1
    35   36   13 1
    36   37   14 1
    37   38   14 1
    38   39   14 1
    39   40   16 1
    40   41   17 1
    41   42   18 1
    42   43   19 1
    43   44   20 1
    44   45   46 1
    45   46   47 1
    46   47   48 1
    47   48   65 1
    48   49   47 1
    49   50   47 1
    50   51   50 1
    51   52   51 1
    52   53   51 1
    53   54   53 1
    54   55   51 1
    55   56   46 1
    56   57   56 1
    57   58   56 1
    58   59   54 1
    59   60   59 ar
    60   61   60 ar
    61   62   61 ar
    62   63   62 ar
    63   64   59 ar
    64   66   48 1
    65   67   48 1
    66   68   49 1
    67   69   49 1
    68   70   49 1
    69   71   50 1
    70   72   50 1
    71   73   52 1
    72   74   53 1
    73   75   53 1
    74   76   55 1
    75   77   55 1
    76   78   57 1
    77   79   57 1
    78   80   57 1
    79   81   58 1
    80   82   58 1
    81   83   58 1
    82   84   60 1
    83   85   61 1
    84   86   62 1
    85   87   63 1
    86   88   64 1
    87   11   12 1
    88   19   20 ar
    89   55   56 1
    90   63   64 ar
@<TRIPOS>SUBSTRUCTURE
     1 RES1 1
     2 RES2 45

@<TRIPOS>CRYSIN
  13.0800   11.6480   12.0340  96.3300 116.3300  90.2500   2 1

