# MOL2 file generated by ConQuest
# Please check atom types

@<TRIPOS>MOLECULE
CIWMUS01
    20    21     1
SMALL
NO_CHARGES
****
Generated from CSD

@<TRIPOS>ATOM
      1 O1         3.9000    6.8920   -1.4199 O.3       1 RES1    0.0000
      2 O2         0.1390    4.5895   -1.3598 O.2       1 RES1    0.0000
      3 O3        -0.8481    4.9565   -3.2703 O.2       1 RES1    0.0000
      4 O4        -0.7325    6.6921    1.8067 O.3       1 RES1    0.0000
      5 O5         3.0603    4.3870    1.4198 O.2       1 RES1    0.0000
      6 O6         4.0229    4.4902    3.3776 O.2       1 RES1    0.0000
      7 N1         2.9572    6.7419   -2.4170 N.2       1 RES1    0.0000
      8 N2         3.3196    6.7719   -0.1777 N.2       1 RES1    0.0000
      9 N3         0.6362    6.4331   -2.5305 N.3       1 RES1    0.0000
     10 N4        -0.0625    5.2260   -2.3731 N.pl3     1 RES1    0.0000
     11 N5        -0.1534    6.7645    0.5595 N.2       1 RES1    0.0000
     12 N6         0.2061    6.3651    2.7652 N.2       1 RES1    0.0000
     13 N7         2.5155    6.0254    2.8399 N.pl3     1 RES1    0.0000
     14 N8         3.2394    4.8740    2.5146 N.pl3     1 RES1    0.0000
     15 C1         1.8230    6.5605   -1.8004 C.2       1 RES1    0.0000
     16 C2         2.0487    6.5839   -0.3867 C.2       1 RES1    0.0000
     17 C3         1.1157    6.5140    0.7361 C.2       1 RES1    0.0000
     18 C4         1.3369    6.2617    2.1280 C.2       1 RES1    0.0000
     19 H1         0.7055    6.5923   -3.3938 H         1 RES1    0.0000
     20 H2         2.4890    6.1244    3.6706 H         1 RES1    0.0000
@<TRIPOS>BOND
     1    1    7 1
     2    2   10 2
     3    3   10 2
     4    4   11 1
     5    5   14 2
     6    6   14 2
     7    7   15 2
     8    8    1 1
     9    9   10 1
    10   11   17 2
    11   12    4 1
    12   13   14 1
    13   15    9 1
    14   16    8 2
    15   17   16 1
    16   18   12 2
    17   19    9 1
    18   20   13 1
    19   13   18 1
    20   15   16 1
    21   17   18 1
@<TRIPOS>SUBSTRUCTURE
     1 RES1 1

@<TRIPOS>CRYSIN
   6.4458    8.2096   16.5603  90.0000  98.4750  90.0000  14 1

