# MOL2 file generated by ConQuest
# Please check atom types

@<TRIPOS>MOLECULE
CIWMAW01
    18    18     1
SMALL
NO_CHARGES
****
Generated from CSD

@<TRIPOS>ATOM
      1 N1         6.2969   -3.1466    1.6161 N.ar      1 RES1    0.0000
      2 N2         4.1843   -3.9717    1.6004 N.3       1 RES1    0.0000
      3 C1         4.9889   -2.9107    1.6073 C.ar      1 RES1    0.0000
      4 O1         2.8079   -0.0113    1.5627 O.2       1 RES1    0.0000
      5 O2         2.3138   -2.1030    1.6111 O.2       1 RES1    0.0000
      6 C2         4.5319   -1.5400    1.6023 C.ar      1 RES1    0.0000
      7 N3         3.1426   -1.1866    1.5897 N.pl3     1 RES1    0.0000
      8 N4         5.3709   -0.5382    1.5841 N.ar      1 RES1    0.0000
      9 O3         7.0205    1.4803    1.4936 O.2       1 RES1    0.0000
     10 C3         6.6547   -0.7893    1.5878 C.ar      1 RES1    0.0000
     11 N5         7.5205    0.3685    1.5658 N.pl3     1 RES1    0.0000
     12 O4         8.7267    0.2026    1.6079 O.2       1 RES1    0.0000
     13 C4         7.1678   -2.1331    1.6148 C.ar      1 RES1    0.0000
     14 N6         8.4457   -2.4494    1.6255 N.3       1 RES1    0.0000
     15 H1         4.5573   -4.8600    1.5828 H         1 RES1    0.0000
     16 H2         3.3032   -3.8232    1.5891 H         1 RES1    0.0000
     17 H3         9.0353   -1.8922    1.6393 H         1 RES1    0.0000
     18 H4         8.6735   -3.2011    1.6456 H         1 RES1    0.0000
@<TRIPOS>BOND
     1    1    3 ar
     2    2    3 1
     3    3    6 ar
     4    4    7 2
     5    5    7 2
     6    6    7 1
     7    8    6 ar
     8    9   11 2
     9   10    8 ar
    10   11   10 1
    11   12   11 2
    12   13    1 ar
    13   14   13 1
    14   15    2 1
    15   16    2 1
    16   17   14 1
    17   18   14 1
    18   10   13 ar
@<TRIPOS>SUBSTRUCTURE
     1 RES1 1

@<TRIPOS>CRYSIN
   9.0136   12.9600    6.3936  90.0000 100.7700  90.0000  14 1

