# MOL2 file generated by ConQuest
# Please check atom types

@<TRIPOS>MOLECULE
CIWQIK
    16    17     1
SMALL
NO_CHARGES
****
Generated from CSD

@<TRIPOS>ATOM
      1 H1         3.2630   -2.9353    0.8421 H         1 RES1    0.0000
      2 H2         4.1753   -2.3506    1.9871 H         1 RES1    0.0000
      3 O1         1.0296    0.2045    1.2086 O.3       1 RES1    0.0000
      4 N1         3.4033   -2.3186    1.5200 N.pl3     1 RES1    0.0000
      5 N2         1.7541    0.7321    2.2446 N.2       1 RES1    0.0000
      6 N3         1.5659   -1.0261    0.8033 N.2       1 RES1    0.0000
      7 C1         2.7088   -0.1232    2.4954 C.2       1 RES1    0.0000
      8 C2         2.6095   -1.2317    1.5788 C.2       1 RES1    0.0000
      9 H1A        3.1174    2.9056    5.2161 H         1 RES1    0.0000
     10 H2A        2.2051    2.3209    4.0711 H         1 RES1    0.0000
     11 O1A        5.3508   -0.2342    4.8496 O.3       1 RES1    0.0000
     12 N1A        2.9771    2.2889    4.5382 N.pl3     1 RES1    0.0000
     13 N2A        4.6262   -0.7618    3.8137 N.2       1 RES1    0.0000
     14 N3A        4.8144    0.9964    5.2549 N.2       1 RES1    0.0000
     15 C1A        3.6715    0.0935    3.5629 C.2       1 RES1    0.0000
     16 C2A        3.7708    1.2020    4.4795 C.2       1 RES1    0.0000
@<TRIPOS>BOND
     1    1    4 1
     2    2    4 1
     3    3    5 1
     4    4    8 1
     5    5    7 2
     6    6    3 1
     7    7    8 1
     8    8    6 2
     9    9   12 1
    10   10   12 1
    11   11   13 1
    12   12   16 1
    13   13   15 2
    14   14   11 1
    15   15    7 1
    16   16   14 2
    17   15   16 1
@<TRIPOS>SUBSTRUCTURE
     1 RES1 1

@<TRIPOS>CRYSIN
   5.1060    5.1760    6.1909  87.6310  78.1210  77.0840   2 1

