# MOL2 file generated by ConQuest
# Please check atom types

@<TRIPOS>MOLECULE
CIWVAH
    23    24     1
SMALL
USER_CHARGES
****
Generated from CSD

@<TRIPOS>ATOM
      1 O1         3.7249    1.2853    5.5294 O.3       1 RES1    0.0000
      2 O2         0.9232    3.8878    6.6813 O.2       1 RES1    0.0000
      3 O3        -0.2936    4.9034    5.1957 O.2       1 RES1    0.0000
      4 O4         1.9933    2.9531    1.9049 O.2       1 RES1   -1.0000
      5 O5         1.9705    1.4471   -1.7559 O.3       1 RES1    0.0000
      6 O6         5.6102   -2.4837   -0.7906 O.2       1 RES1    0.0000
      7 O7         4.6147   -1.5145   -2.4745 O.2       1 RES1    0.0000
      8 N1         2.7850    2.2679    5.8460 N.2       1 RES1    0.0000
      9 N2         3.7827    1.0442    4.1905 N.2       1 RES1    0.0000
     10 N3         1.2381    3.5229    4.5004 N.3       1 RES1    0.0000
     11 N4         0.5780    4.1406    5.5430 N.pl3     1 RES1    0.0000
     12 N5         2.6321    1.9502    2.2694 N.pl3     1 RES1    1.0000
     13 N6         3.0846    0.9995    1.5411 N.2       1 RES1    0.0000
     14 N7         2.9066    0.4088   -1.9553 N.2       1 RES1    0.0000
     15 N8         1.9119    1.8339   -0.4353 N.2       1 RES1    0.0000
     16 N9         4.3113   -0.7653   -0.4011 N.3       1 RES1    0.0000
     17 N10        4.8771   -1.6350   -1.2865 N.pl3     1 RES1    0.0000
     18 C1         2.2526    2.6051    4.7025 C.2       1 RES1    0.0000
     19 C2         2.8960    1.8525    3.6765 C.2       1 RES1    0.0000
     20 C3         2.7766    1.0661    0.1879 C.2       1 RES1    0.0000
     21 C4         3.3842    0.1719   -0.7625 C.2       1 RES1    0.0000
     22 H1         0.8061    3.7673    3.6793 H         1 RES1    0.0000
     23 H2         4.4033   -0.9271    0.4088 H         1 RES1    0.0000
@<TRIPOS>BOND
     1    1    8 1
     2    2   11 2
     3    3   11 2
     4    4   12 1
     5    5   14 1
     6    6   17 2
     7    7   17 2
     8    8   18 2
     9    9    1 1
    10   10   11 1
    11   12   13 2
    12   13   20 1
    13   14   21 2
    14   15    5 1
    15   16   17 1
    16   18   10 1
    17   19    9 2
    18   20   15 2
    19   21   16 1
    20   22   10 1
    21   23   16 1
    22   12   19 1
    23   18   19 1
    24   20   21 1
@<TRIPOS>SUBSTRUCTURE
     1 RES1 1

@<TRIPOS>CRYSIN
   7.6050    8.4279   16.3525  90.0000  90.0000  90.0000  19 1

