# MOL2 file generated by ConQuest
# Please check atom types

@<TRIPOS>MOLECULE
CIWVAH01
    23    24     1
SMALL
NO_CHARGES
****
Generated from CSD

@<TRIPOS>ATOM
      1 N1         0.2732    3.6966    3.0205 N.pl3     1 RES1    0.0000
      2 N2         2.6955    6.6346   -1.0985 N.2       1 RES1    0.0000
      3 N3         3.9666    8.1828   -3.2761 N.pl3     1 RES1    0.0000
      4 H1         4.0941    8.4788   -2.4572 H         1 RES1    0.0000
      5 N4         2.2769    5.7359   -0.2975 N.pl3     1 RES1    0.0000
      6 N5         4.6783    8.7396   -4.2821 N.pl3     1 RES1    0.0000
      7 N6         0.9541    4.2640    1.9725 N.pl3     1 RES1    0.0000
      8 H2         0.8065    3.9598    1.1599 H         1 RES1    0.0000
      9 C1         2.4613    6.4116   -2.4518 C.2       1 RES1    0.0000
     10 O1         5.4861    9.5825   -3.9333 O.2       1 RES1    0.0000
     11 O2         4.4221    8.4157   -5.4264 O.2       1 RES1    0.0000
     12 O3        -0.5519    2.8700    2.7113 O.2       1 RES1    0.0000
     13 O4         0.5201    4.0934    4.1283 O.2       1 RES1    0.0000
     14 C2         2.4952    5.9893    1.0760 C.2       1 RES1    0.0000
     15 N7         3.2782    6.8847    1.5724 N.2       1 RES1    0.0000
     16 O5         1.7143    5.7498   -4.3233 O.3       1 RES1    0.0000
     17 C3         3.0497    7.1709   -3.4773 C.2       1 RES1    0.0000
     18 N8         1.6460    5.5268   -2.9638 N.2       1 RES1    0.0000
     19 C4         1.8442    5.2718    2.1348 C.2       1 RES1    0.0000
     20 O6         3.1658    6.7740    2.9032 O.3       1 RES1    0.0000
     21 N9         2.5939    6.7822   -4.6200 N.2       1 RES1    0.0000
     22 N10        2.2732    5.7613    3.2683 N.2       1 RES1    0.0000
     23 O7         1.6842    4.7306   -0.6262 O.2       1 RES1    0.0000
@<TRIPOS>BOND
     1    1    7 1
     2    2    5 2
     3    3    4 1
     4    5   14 1
     5    6    3 1
     6    7    8 1
     7    9    2 1
     8   10    6 2
     9   11    6 2
    10   12    1 2
    11   13    1 2
    12   14   15 2
    13   15   20 1
    14   16   18 1
    15   17    3 1
    16   18    9 2
    17   19    7 1
    18   20   22 1
    19   21   16 1
    20   22   19 2
    21   23    5 1
    22    9   17 1
    23   14   19 1
    24   17   21 2
@<TRIPOS>SUBSTRUCTURE
     1 RES1 1

