# MOL2 file generated by ConQuest
# Please check atom types

@<TRIPOS>MOLECULE
CIXCES
    41    44     1
SMALL
NO_CHARGES
****
Generated from CSD

@<TRIPOS>ATOM
      1 C1         6.0710    7.8250   12.9216 C.3       1 RES1    0.0000
      2 H1         7.0276    7.9357   13.0392 H         1 RES1    0.0000
      3 H2         5.6302    8.1766   13.7111 H         1 RES1    0.0000
      4 C2         5.6246    8.6053   11.7144 C.3       1 RES1    0.0000
      5 H3         5.8679    9.5370   11.8198 H         1 RES1    0.0000
      6 H4         4.6592    8.5524   11.6310 H         1 RES1    0.0000
      7 C3         6.2762    8.0454   10.4607 C.3       1 RES1    0.0000
      8 H5         7.2344    8.1930   10.4970 H         1 RES1    0.0000
      9 H6         5.9290    8.5030    9.6790 H         1 RES1    0.0000
     10 C4         5.9903    6.5526   10.3501 C.3       1 RES1    0.0000
     11 H7         5.0267    6.4419   10.2147 H         1 RES1    0.0000
     12 C5         6.7121    5.8525    9.1884 C.3       1 RES1    0.0000
     13 H8         6.4667    4.9038    9.2040 H         1 RES1    0.0000
     14 C6         8.6833    5.6869   10.6434 C.ar      1 RES1    0.0000
     15 C7        10.0556    5.4764   10.7930 C.ar      1 RES1    0.0000
     16 H9        10.6018    5.4557   10.0408 H         1 RES1    0.0000
     17 C8        10.6087    5.2996   12.0394 C.ar      1 RES1    0.0000
     18 H10       11.5256    5.1697   12.1229 H         1 RES1    0.0000
     19 C9         9.8168    5.3114   13.1635 C.ar      1 RES1    0.0000
     20 H11       10.1924    5.2011   14.0072 H         1 RES1    0.0000
     21 C10        8.4599    5.4901   13.0212 C.ar      1 RES1    0.0000
     22 H12        7.9213    5.4819   13.7796 H         1 RES1    0.0000
     23 C11        7.8702    5.6826   11.7817 C.ar      1 RES1    0.0000
     24 C12        6.3665    5.8332   11.6470 C.3       1 RES1    0.0000
     25 H13        5.9978    4.9269   11.5823 H         1 RES1    0.0000
     26 C13        6.3121    6.4202    7.8473 C.ar      1 RES1    0.0000
     27 C14        6.9272    7.5436    7.3134 C.ar      1 RES1    0.0000
     28 H14        7.6222    7.9495    7.7788 H         1 RES1    0.0000
     29 C15        6.5235    8.0673    6.1037 C.ar      1 RES1    0.0000
     30 H15        6.9341    8.8241    5.7524 H         1 RES1    0.0000
     31 C16        5.4998    7.4441    5.4274 C.ar      1 RES1    0.0000
     32 C17        4.8647    6.3344    5.9281 C.ar      1 RES1    0.0000
     33 H16        4.1715    5.9318    5.4562 H         1 RES1    0.0000
     34 C18        5.2741    5.8297    7.1410 C.ar      1 RES1    0.0000
     35 H17        4.8485    5.0816    7.4926 H         1 RES1    0.0000
     36 N1         8.1478    5.9513    9.3870 N.pl3     1 RES1    0.0000
     37 H18        8.6117    5.6887    8.7100 H         1 RES1    0.0000
     38 N2         5.1016    7.9648    4.1158 N.pl3     1 RES1    0.0000
     39 O1         5.7692    6.4365   12.7924 O.3       1 RES1    0.0000
     40 O2         5.7191    8.8921    3.6481 O.2       1 RES1    0.0000
     41 O3         4.1987    7.4126    3.5172 O.2       1 RES1    0.0000
@<TRIPOS>BOND
     1    1    2 1
     2    3    1 1
     3    4    1 1
     4    5    4 1
     5    6    4 1
     6    7    4 1
     7    8    7 1
     8    9    7 1
     9   10    7 1
    10   11   10 1
    11   12   10 1
    12   13   12 1
    13   14   15 ar
    14   15   16 1
    15   17   15 ar
    16   18   17 1
    17   19   17 ar
    18   20   19 1
    19   21   19 ar
    20   22   21 1
    21   23   14 ar
    22   24   10 1
    23   25   24 1
    24   26   12 1
    25   27   26 ar
    26   28   27 1
    27   29   27 ar
    28   30   29 1
    29   31   29 ar
    30   32   31 ar
    31   33   32 1
    32   34   26 ar
    33   35   34 1
    34   36   12 1
    35   37   36 1
    36   38   31 1
    37   39    1 1
    38   40   38 2
    39   41   38 2
    40   14   36 1
    41   21   23 ar
    42   23   24 1
    43   24   39 1
    44   32   34 ar
@<TRIPOS>SUBSTRUCTURE
     1 RES1 1

@<TRIPOS>CRYSIN
   8.2299    9.7774   11.0047  65.7180  75.6990  71.6170   2 1

