# MOL2 file generated by ConQuest
# Please check atom types

@<TRIPOS>MOLECULE
CIXCES01
    82    88     2
SMALL
NO_CHARGES
****
Generated from CSD

@<TRIPOS>ATOM
      1 C1        -1.4061    7.3299    8.4929 C.3       1 RES1    0.0000
      2 H1        -1.1461    8.2393    8.7097 H         1 RES1    0.0000
      3 H2        -2.3608    7.2490    8.6353 H         1 RES1    0.0000
      4 C2        -1.0922    7.0515    7.0511 C.3       1 RES1    0.0000
      5 H3        -1.5762    7.6731    6.4853 H         1 RES1    0.0000
      6 H4        -1.3747    6.1515    6.8223 H         1 RES1    0.0000
      7 C3         0.4054    7.1963    6.8177 C.3       1 RES1    0.0000
      8 H5         0.6644    8.1236    6.9360 H         1 RES1    0.0000
      9 H6         0.6198    6.9349    5.9085 H         1 RES1    0.0000
     10 C4         1.1742    6.3217    7.7980 C.3       1 RES1    0.0000
     11 H7         1.0127    5.3860    7.5541 H         1 RES1    0.0000
     12 C5         2.6958    6.5606    7.7701 C.3       1 RES1    0.0000
     13 H8         3.1054    5.9841    8.4472 H         1 RES1    0.0000
     14 C6         2.3531    8.4349    9.2836 C.ar      1 RES1    0.0000
     15 C7         2.8223    9.6123    9.8646 C.ar      1 RES1    0.0000
     16 H9         3.5683   10.0346    9.5057 H         1 RES1    0.0000
     17 C8         2.1978   10.1550   10.9557 C.ar      1 RES1    0.0000
     18 H10        2.5133   10.9497   11.3208 H         1 RES1    0.0000
     19 C9         1.1044    9.5277   11.5137 C.ar      1 RES1    0.0000
     20 H11        0.6826    9.8926   12.2573 H         1 RES1    0.0000
     21 C10        0.6465    8.3587   10.9578 C.ar      1 RES1    0.0000
     22 H12       -0.0810    7.9289   11.3456 H         1 RES1    0.0000
     23 C11        1.2352    7.8010    9.8360 C.ar      1 RES1    0.0000
     24 C12        0.7018    6.5173    9.2363 C.3       1 RES1    0.0000
     25 H13        1.0792    5.7809    9.7620 H         1 RES1    0.0000
     26 C13        3.3092    6.2220    6.4332 C.ar      1 RES1    0.0000
     27 C14        3.6273    7.1747    5.4898 C.ar      1 RES1    0.0000
     28 H14        3.4453    8.0700    5.6645 H         1 RES1    0.0000
     29 C15        4.2095    6.8239    4.2935 C.ar      1 RES1    0.0000
     30 H15        4.4277    7.4747    3.6654 H         1 RES1    0.0000
     31 C16        4.4646    5.4979    4.0431 C.ar      1 RES1    0.0000
     32 C17        4.1437    4.5189    4.9486 C.ar      1 RES1    0.0000
     33 H16        4.3114    3.6236    4.7611 H         1 RES1    0.0000
     34 C18        3.5697    4.8913    6.1380 C.ar      1 RES1    0.0000
     35 H17        3.3516    4.2367    6.7602 H         1 RES1    0.0000
     36 N1         2.9540    7.9412    8.1365 N.pl3     1 RES1    0.0000
     37 H18        3.7778    8.1443    8.0709 H         1 RES1    0.0000
     38 N2         5.1195    5.1292    2.7868 N.pl3     1 RES1    0.0000
     39 O1        -0.7189    6.4233    9.3539 O.3       1 RES1    0.0000
     40 O2         5.3321    3.9442    2.5743 O.2       1 RES1    0.0000
     41 O3         5.4339    6.0151    2.0088 O.2       1 RES1    0.0000
     42 C19       -4.0294    0.6640   12.8060 C.3       2 RES2    0.0000
     43 H19       -4.4450   -0.0602   13.2993 H         2 RES2    0.0000
     44 H20       -3.7072    1.3147   13.4481 H         2 RES2    0.0000
     45 C20       -2.8666    0.1251   12.0219 C.3       2 RES2    0.0000
     46 H21       -3.1688   -0.5878   11.4387 H         2 RES2    0.0000
     47 H22       -2.2058   -0.2417   12.6294 H         2 RES2    0.0000
     48 C21       -2.2404    1.2358   11.1920 C.3       2 RES2    0.0000
     49 H23       -1.5421    0.8671   10.6283 H         2 RES2    0.0000
     50 H24       -1.8360    1.8941   11.7798 H         2 RES2    0.0000
     51 C22       -3.2994    1.9035   10.3268 C.3       2 RES2    0.0000
     52 H25       -3.6298    1.2358    9.6897 H         2 RES2    0.0000
     53 C23       -2.7795    3.1035    9.5208 C.3       2 RES2    0.0000
     54 H26       -3.5019    3.4251    8.9434 H         2 RES2    0.0000
     55 C24       -3.1456    4.4540   11.5464 C.ar      2 RES2    0.0000
     56 C25       -2.8840    5.6126   12.2734 C.ar      2 RES2    0.0000
     57 H27       -2.2445    6.2136   11.9638 H         2 RES2    0.0000
     58 C26       -3.5502    5.8806   13.4341 C.ar      2 RES2    0.0000
     59 H28       -3.3604    6.6612   13.9029 H         2 RES2    0.0000
     60 C27       -4.5068    4.9994   13.9201 C.ar      2 RES2    0.0000
     61 H29       -4.9513    5.1725   14.7195 H         2 RES2    0.0000
     62 C28       -4.7857    3.8615   13.1940 C.ar      2 RES2    0.0000
     63 H30       -5.4311    3.2718   13.5101 H         2 RES2    0.0000
     64 C29       -4.1350    3.5709   12.0113 C.ar      2 RES2    0.0000
     65 C30       -4.4789    2.3502   11.1848 C.3       2 RES2    0.0000
     66 H31       -5.1905    2.6201   10.5662 H         2 RES2    0.0000
     67 C31       -1.6113    2.7160    8.6473 C.ar      2 RES2    0.0000
     68 C32       -0.3035    2.9032    9.0538 C.ar      2 RES2    0.0000
     69 H32       -0.1331    3.3160    9.8695 H         2 RES2    0.0000
     70 C33        0.7552    2.4903    8.2750 C.ar      2 RES2    0.0000
     71 H33        1.6287    2.6314    8.5609 H         2 RES2    0.0000
     72 C34        0.5198    1.8771    7.0900 C.ar      2 RES2    0.0000
     73 C35       -0.7635    1.6693    6.6488 C.ar      2 RES2    0.0000
     74 H34       -0.9188    1.2442    5.8361 H         2 RES2    0.0000
     75 C36       -1.8193    2.0991    7.4249 C.ar      2 RES2    0.0000
     76 H35       -2.6885    1.9721    7.1200 H         2 RES2    0.0000
     77 N3        -2.4132    4.1690   10.4288 N.pl3     2 RES2    0.0000
     78 H36       -1.9686    4.7963   10.0742 H         2 RES2    0.0000
     79 N4         1.6627    1.4173    6.2759 N.pl3     2 RES2    0.0000
     80 O4        -5.0040    1.2790   11.9667 O.3       2 RES2    0.0000
     81 O5         2.7945    1.6768    6.6664 O.2       2 RES2    0.0000
     82 O6         1.4077    0.7966    5.2571 O.2       2 RES2    0.0000
@<TRIPOS>BOND
     1    1    2 1
     2    3    1 1
     3    4    1 1
     4    5    4 1
     5    6    4 1
     6    7    4 1
     7    8    7 1
     8    9    7 1
     9   10    7 1
    10   11   10 1
    11   12   10 1
    12   13   12 1
    13   14   15 ar
    14   15   16 1
    15   17   15 ar
    16   18   17 1
    17   19   17 ar
    18   20   19 1
    19   21   19 ar
    20   22   21 1
    21   23   14 ar
    22   24   10 1
    23   25   24 1
    24   26   12 1
    25   27   26 ar
    26   28   27 1
    27   29   27 ar
    28   30   29 1
    29   31   29 ar
    30   32   31 ar
    31   33   32 1
    32   34   26 ar
    33   35   34 1
    34   36   12 1
    35   37   36 1
    36   38   31 1
    37   39    1 1
    38   40   38 2
    39   41   38 2
    40   42   43 1
    41   44   42 1
    42   45   42 1
    43   46   45 1
    44   47   45 1
    45   48   45 1
    46   49   48 1
    47   50   48 1
    48   51   48 1
    49   52   51 1
    50   53   51 1
    51   54   53 1
    52   55   56 ar
    53   56   57 1
    54   58   56 ar
    55   59   58 1
    56   60   58 ar
    57   61   60 1
    58   62   60 ar
    59   63   62 1
    60   64   55 ar
    61   65   51 1
    62   66   65 1
    63   67   53 1
    64   68   67 ar
    65   69   68 1
    66   70   68 ar
    67   71   70 1
    68   72   70 ar
    69   73   72 ar
    70   74   73 1
    71   75   67 ar
    72   76   75 1
    73   77   53 1
    74   78   77 1
    75   79   72 1
    76   80   42 1
    77   81   79 2
    78   82   79 2
    79   14   36 1
    80   21   23 ar
    81   23   24 1
    82   24   39 1
    83   32   34 ar
    84   55   77 1
    85   62   64 ar
    86   64   65 1
    87   65   80 1
    88   73   75 ar
@<TRIPOS>SUBSTRUCTURE
     1 RES1 1
     2 RES2 42

@<TRIPOS>CRYSIN
  32.2850    9.4045   22.8042  90.0000 114.9650  90.0000  15 1

