# MOL2 file generated by ConQuest
# Please check atom types

@<TRIPOS>MOLECULE
CIXZOZ
    38    40     1
SMALL
NO_CHARGES
****
Generated from CSD

@<TRIPOS>ATOM
      1 O1        -0.8855    5.0949    8.1516 O.3       1 RES1    0.0000
      2 O2         0.8716    7.2291    8.4354 O.3       1 RES1    0.0000
      3 O3         2.9412    5.7248    4.8470 O.3       1 RES1    0.0000
      4 O4         1.7927    4.0824    6.9673 O.3       1 RES1    0.0000
      5 O5         0.1407    1.9300    9.9589 O.2       1 RES1    0.0000
      6 O6         4.1966    1.1790   11.8549 O.2       1 RES1    0.0000
      7 N1        -0.8223    4.9044    6.6848 N.3       1 RES1    0.0000
      8 N2         1.9582    2.9364    9.0297 N.am      1 RES1    0.0000
      9 N3         2.1915    1.5941   10.8928 N.am      1 RES1    0.0000
     10 C1         1.0409    3.5950    8.0618 C.3       1 RES1    0.0000
     11 C2         0.3846    4.8128    8.7174 C.3       1 RES1    0.0000
     12 C3         1.3723    5.9161    8.3250 C.3       1 RES1    0.0000
     13 C4         1.5532    5.5221    6.8601 C.3       1 RES1    0.0000
     14 C5         2.7476    6.1508    6.1920 C.3       1 RES1    0.0000
     15 C6         0.2391    5.7698    6.1230 C.3       1 RES1    0.0000
     16 C7        -2.1439    5.3517    6.2649 C.3       1 RES1    0.0000
     17 C8         1.3595    2.1475    9.9666 C.2       1 RES1    0.0000
     18 C9         3.5739    1.7599   10.9741 C.2       1 RES1    0.0000
     19 C10        4.1367    2.6333    9.9700 C.2       1 RES1    0.0000
     20 C11        3.3160    3.1805    9.0605 C.2       1 RES1    0.0000
     21 C12        5.6189    2.8694    9.9699 C.3       1 RES1    0.0000
     22 H1         0.3445    2.9503    7.7474 H         1 RES1    0.0000
     23 H2         0.3279    4.7082    9.7104 H         1 RES1    0.0000
     24 H3         2.2317    5.8193    8.8276 H         1 RES1    0.0000
     25 H4         2.6381    7.1346    6.2027 H         1 RES1    0.0000
     26 H5         3.5582    5.9318    6.7162 H         1 RES1    0.0000
     27 H6        -0.0218    6.7202    6.2152 H         1 RES1    0.0000
     28 H7         0.3549    5.5736    5.1602 H         1 RES1    0.0000
     29 H8        -2.2256    5.2601    5.2932 H         1 RES1    0.0000
     30 H9        -2.2666    6.2911    6.5161 H         1 RES1    0.0000
     31 H10       -2.8282    4.8040    6.7036 H         1 RES1    0.0000
     32 H11        1.8183    1.0799   11.5014 H         1 RES1    0.0000
     33 H12        3.6864    3.7626    8.4078 H         1 RES1    0.0000
     34 H13        5.8439    3.5314    9.2823 H         1 RES1    0.0000
     35 H14        6.0838    2.0286    9.7776 H         1 RES1    0.0000
     36 H15        5.8963    3.2033   10.8480 H         1 RES1    0.0000
     37 H16        0.6105    7.3637    9.2221 H         1 RES1    0.0000
     38 H17        3.3968    5.0185    4.8398 H         1 RES1    0.0000
@<TRIPOS>BOND
     1    1    7 1
     2    2   12 1
     3    3   14 1
     4    4   10 1
     5    5   17 2
     6    6   18 2
     7    7   15 1
     8    8   10 1
     9    9   17 1
    10   10   11 1
    11   11    1 1
    12   12   11 1
    13   13    4 1
    14   14   13 1
    15   15   13 1
    16   16    7 1
    17   17    8 1
    18   18    9 1
    19   19   18 1
    20   20    8 1
    21   21   19 1
    22   22   10 1
    23   23   11 1
    24   24   12 1
    25   25   14 1
    26   26   14 1
    27   27   15 1
    28   28   15 1
    29   29   16 1
    30   30   16 1
    31   31   16 1
    32   32    9 1
    33   33   20 1
    34   34   21 1
    35   35   21 1
    36   36   21 1
    37   37    2 1
    38   38    3 1
    39   12   13 1
    40   19   20 2
@<TRIPOS>SUBSTRUCTURE
     1 RES1 1

@<TRIPOS>CRYSIN
   8.7210   10.4140   13.9920  90.0000  90.0000  90.0000  19 1

