# MOL2 file generated by ConQuest
# Please check atom types

@<TRIPOS>MOLECULE
CIYKUR
    96   102     1
SMALL
NO_CHARGES
****
Generated from CSD

@<TRIPOS>ATOM
      1 C1         5.5362    7.8659   10.5331 C.ar      1 RES1    0.0000
      2 C2         6.8530    7.9561   11.0068 C.ar      1 RES1    0.0000
      3 H1         7.0063    8.0988   11.9327 H         1 RES1    0.0000
      4 C3         7.9299    7.8436   10.1500 C.ar      1 RES1    0.0000
      5 H2         8.8159    7.8880   10.4905 H         1 RES1    0.0000
      6 C4         7.7171    7.6654    8.8011 C.ar      1 RES1    0.0000
      7 H3         8.4668    7.5820    8.2230 H         1 RES1    0.0000
      8 C5         6.4439    7.6044    8.2620 C.ar      1 RES1    0.0000
      9 C6         5.3747    7.7067    9.1614 C.ar      1 RES1    0.0000
     10 C7         6.2573    7.4705    6.7704 C.3       1 RES1    0.0000
     11 H4         5.8562    8.3069    6.4245 H         1 RES1    0.0000
     12 H5         7.1470    7.3677    6.3481 H         1 RES1    0.0000
     13 C8         5.3651    6.3110    4.8997 C.3       1 RES1    0.0000
     14 H6         6.2846    6.2384    4.5436 H         1 RES1    0.0000
     15 H7         4.9727    7.1586    4.5678 H         1 RES1    0.0000
     16 C9         4.5450    5.1563    4.4007 C.3       1 RES1    0.0000
     17 H8         3.6109    5.2497    4.7144 H         1 RES1    0.0000
     18 H9         4.5394    5.1545    3.4104 H         1 RES1    0.0000
     19 C10        5.1149    3.9033    6.3501 C.3       1 RES1    0.0000
     20 H10        5.4971    3.0538    6.6838 H         1 RES1    0.0000
     21 H11        4.1889    3.9824    6.6923 H         1 RES1    0.0000
     22 C11        5.9437    5.0666    6.8482 C.3       1 RES1    0.0000
     23 H12        5.9490    5.0675    7.8376 H         1 RES1    0.0000
     24 H13        6.8783    4.9615    6.5372 H         1 RES1    0.0000
     25 C12        4.5585    2.6901    4.2715 C.3       1 RES1    0.0000
     26 H14        5.1299    1.9271    4.5387 H         1 RES1    0.0000
     27 H15        4.6399    2.7865    3.2892 H         1 RES1    0.0000
     28 C13        3.1129    2.3297    4.5907 C.ar      1 RES1    0.0000
     29 C14        2.0688    3.0812    4.0568 C.ar      1 RES1    0.0000
     30 H16        2.2703    3.8096    3.4819 H         1 RES1    0.0000
     31 C15        0.7514    2.7955    4.3406 C.ar      1 RES1    0.0000
     32 H17        0.0621    3.3287    3.9630 H         1 RES1    0.0000
     33 C16        0.4238    1.7392    5.1711 C.ar      1 RES1    0.0000
     34 H18       -0.4874    1.5722    5.3810 H         1 RES1    0.0000
     35 C17        1.4140    0.9156    5.7035 C.ar      1 RES1    0.0000
     36 C18        2.7267    1.2326    5.3815 C.ar      1 RES1    0.0000
     37 C19        0.9860   -0.2099    6.6220 C.3       1 RES1    0.0000
     38 H19        0.1914   -0.6631    6.2427 H         1 RES1    0.0000
     39 H20        1.7147   -0.8762    6.6911 H         1 RES1    0.0000
     40 C20       -0.1001   -0.6880    8.7211 C.3       1 RES1    0.0000
     41 H21        0.4301   -1.5192    8.8059 H         1 RES1    0.0000
     42 H22       -0.9355   -0.9046    8.2363 H         1 RES1    0.0000
     43 C21       -0.4340   -0.1591   10.0941 C.3       1 RES1    0.0000
     44 H23       -0.9893    0.6561   10.0082 H         1 RES1    0.0000
     45 H24       -0.9588   -0.8366   10.5911 H         1 RES1    0.0000
     46 C22        1.5525    1.1614   10.0901 C.3       1 RES1    0.0000
     47 H25        2.3895    1.3702   10.5766 H         1 RES1    0.0000
     48 H26        1.0240    1.9952   10.0106 H         1 RES1    0.0000
     49 C23        1.8825    0.6318    8.7095 C.3       1 RES1    0.0000
     50 H27        2.4042    1.3106    8.2121 H         1 RES1    0.0000
     51 H28        2.4415   -0.1816    8.7938 H         1 RES1    0.0000
     52 C24        0.4415    0.6254   12.1835 C.3       1 RES1    0.0000
     53 H29       -0.1485   -0.0385   12.6199 H         1 RES1    0.0000
     54 H30       -0.0600    1.4768   12.1133 H         1 RES1    0.0000
     55 C25        1.6656    0.8402   13.0404 C.ar      1 RES1    0.0000
     56 C26        2.4788   -0.2551   13.3370 C.ar      1 RES1    0.0000
     57 H31        2.2581   -1.1125   12.9932 H         1 RES1    0.0000
     58 C27        3.6044   -0.1040   14.1267 C.ar      1 RES1    0.0000
     59 H32        4.1503   -0.8561   14.3190 H         1 RES1    0.0000
     60 C28        3.9372    1.1326   14.6361 C.ar      1 RES1    0.0000
     61 H33        4.7233    1.2220   15.1613 H         1 RES1    0.0000
     62 C29        3.1468    2.2546   14.3993 C.ar      1 RES1    0.0000
     63 C30        2.0322    2.0648   13.5859 C.ar      1 RES1    0.0000
     64 C31        3.4968    3.5965   15.0062 C.3       1 RES1    0.0000
     65 H34        2.8533    3.8074   15.7285 H         1 RES1    0.0000
     66 H35        4.4009    3.5513   15.4061 H         1 RES1    0.0000
     67 C32        3.5933    5.9807   14.6215 C.3       1 RES1    0.0000
     68 H36        4.4659    6.0438   15.0862 H         1 RES1    0.0000
     69 H37        2.8776    6.1021   15.2946 H         1 RES1    0.0000
     70 C33        3.4963    7.0665   13.5778 C.3       1 RES1    0.0000
     71 H38        2.6005    7.0416   13.1580 H         1 RES1    0.0000
     72 H39        3.6096    7.9506   14.0088 H         1 RES1    0.0000
     73 C34        4.3740    5.5652   11.9426 C.3       1 RES1    0.0000
     74 H40        5.0639    5.4373   11.2444 H         1 RES1    0.0000
     75 H41        3.4842    5.4965   11.5122 H         1 RES1    0.0000
     76 C35        4.5125    4.4856   13.0020 C.3       1 RES1    0.0000
     77 H42        4.4330    3.5920   12.5835 H         1 RES1    0.0000
     78 H43        5.4016    4.5490   13.4319 H         1 RES1    0.0000
     79 C36        4.4079    7.9560   11.5415 C.3       1 RES1    0.0000
     80 H44        4.4345    8.8384   11.9897 H         1 RES1    0.0000
     81 H45        3.5400    7.8754   11.0735 H         1 RES1    0.0000
     82 N1         5.4123    6.3409    6.3646 N.3       1 RES1    0.0000
     83 N2         5.1029    3.8992    4.8898 N.3       1 RES1    0.0000
     84 N3         0.6647    0.3099    7.9632 N.3       1 RES1    0.0000
     85 N4         0.7824    0.1552   10.8358 N.3       1 RES1    0.0000
     86 N5         3.4649    4.6607   14.0011 N.3       1 RES1    0.0000
     87 N6         4.5257    6.8893   12.5473 N.3       1 RES1    0.0000
     88 N7         4.0069    7.6560    8.6145 N.pl3     1 RES1    0.0000
     89 N8         3.7909    0.3260    5.8532 N.pl3     1 RES1    0.0000
     90 N9         1.1684    3.2255   13.3005 N.pl3     1 RES1    0.0000
     91 O1         3.2911    6.7269    8.9654 O.2       1 RES1    0.0000
     92 O2         3.6591    8.5412    7.8497 O.2       1 RES1    0.0000
     93 O3         3.8191   -0.8039    5.3846 O.2       1 RES1    0.0000
     94 O4         4.6001    0.7377    6.6757 O.2       1 RES1    0.0000
     95 O5         1.1063    3.6279   12.1435 O.2       1 RES1    0.0000
     96 O6         0.5299    3.7012   14.2348 O.2       1 RES1    0.0000
@<TRIPOS>BOND
     1    1    2 ar
     2    2    3 1
     3    4    2 ar
     4    5    4 1
     5    6    4 ar
     6    7    6 1
     7    8    6 ar
     8    9    1 ar
     9   10    8 1
    10   11   10 1
    11   12   10 1
    12   13   14 1
    13   15   13 1
    14   16   13 1
    15   17   16 1
    16   18   16 1
    17   19   20 1
    18   21   19 1
    19   22   19 1
    20   23   22 1
    21   24   22 1
    22   25   26 1
    23   27   25 1
    24   28   25 1
    25   29   28 ar
    26   30   29 1
    27   31   29 ar
    28   32   31 1
    29   33   31 ar
    30   34   33 1
    31   35   33 ar
    32   36   28 ar
    33   37   35 1
    34   38   37 1
    35   39   37 1
    36   40   41 1
    37   42   40 1
    38   43   40 1
    39   44   43 1
    40   45   43 1
    41   46   47 1
    42   48   46 1
    43   49   46 1
    44   50   49 1
    45   51   49 1
    46   52   53 1
    47   54   52 1
    48   55   52 1
    49   56   55 ar
    50   57   56 1
    51   58   56 ar
    52   59   58 1
    53   60   58 ar
    54   61   60 1
    55   62   60 ar
    56   63   55 ar
    57   64   62 1
    58   65   64 1
    59   66   64 1
    60   67   68 1
    61   69   67 1
    62   70   67 1
    63   71   70 1
    64   72   70 1
    65   73   74 1
    66   75   73 1
    67   76   73 1
    68   77   76 1
    69   78   76 1
    70   79    1 1
    71   80   79 1
    72   81   79 1
    73   82   10 1
    74   83   16 1
    75   84   37 1
    76   85   43 1
    77   86   64 1
    78   87   70 1
    79   88    9 1
    80   89   36 1
    81   90   63 1
    82   91   88 2
    83   92   88 2
    84   93   89 2
    85   94   89 2
    86   95   90 2
    87   96   90 2
    88    8    9 ar
    89   13   82 1
    90   19   83 1
    91   22   82 1
    92   25   83 1
    93   35   36 ar
    94   40   84 1
    95   46   85 1
    96   49   84 1
    97   52   85 1
    98   62   63 ar
    99   67   86 1
   100   73   87 1
   101   76   86 1
   102   79   87 1
@<TRIPOS>SUBSTRUCTURE
     1 RES1 1

@<TRIPOS>CRYSIN
  12.5230   13.1960   13.8160  98.1430 110.1740 116.9280   2 1

