# MOL2 file generated by ConQuest
# Please check atom types

@<TRIPOS>MOLECULE
CIYVIQ
    27    28     1
SMALL
NO_CHARGES
****
Generated from CSD

@<TRIPOS>ATOM
      1 O1         0.1637    4.1028    2.1674 O.3       1 RES1    0.0000
      2 N1         0.2178    4.7159    3.4047 N.pl3     1 RES1    0.0000
      3 N2        -1.3743    7.9622    6.4075 N.1       1 RES1    0.0000
      4 C1         0.9055    4.2070    4.4894 C.ar      1 RES1    0.0000
      5 C2         1.7741    3.1247    4.5945 C.ar      1 RES1    0.0000
      6 H1         1.9643    2.5908    3.8566 H         1 RES1    0.0000
      7 C3         2.3457    2.8666    5.8214 C.ar      1 RES1    0.0000
      8 C4         3.2940    1.7058    6.0128 C.3       1 RES1    0.0000
      9 H2         2.8303    0.9788    6.4331 H         1 RES1    0.0000
     10 H3         4.0284    1.9799    6.5660 H         1 RES1    0.0000
     11 H4         3.6268    1.4203    5.1582 H         1 RES1    0.0000
     12 C5         2.0366    3.6959    6.9178 C.ar      1 RES1    0.0000
     13 H5         2.4287    3.5150    7.7411 H         1 RES1    0.0000
     14 C6         1.1780    4.7603    6.8135 C.ar      1 RES1    0.0000
     15 H6         0.9919    5.2908    7.5546 H         1 RES1    0.0000
     16 C7         0.5863    5.0368    5.5746 C.ar      1 RES1    0.0000
     17 C8        -0.3334    6.0318    5.0793 C.2       1 RES1    0.0000
     18 C9        -0.9172    7.0967    5.8123 C.1       1 RES1    0.0000
     19 C10       -0.5505    5.7940    3.7385 C.2       1 RES1    0.0000
     20 C11       -1.4298    6.4785    2.7635 C.3       1 RES1    0.0000
     21 H7        -0.9080    7.0834    2.2323 H         1 RES1    0.0000
     22 H8        -2.1078    6.9686    3.2337 H         1 RES1    0.0000
     23 H9        -1.8434    5.8271    2.1926 H         1 RES1    0.0000
     24 C12        1.2242    4.5740    1.3156 C.3       1 RES1    0.0000
     25 H10        1.1161    5.5160    1.1601 H         1 RES1    0.0000
     26 H11        1.1944    4.1069    0.4782 H         1 RES1    0.0000
     27 H12        2.0709    4.4157    1.7401 H         1 RES1    0.0000
@<TRIPOS>BOND
     1    1    2 1
     2    2    4 1
     3    3   18 3
     4    4    5 ar
     5    5    6 1
     6    7    5 ar
     7    8    7 1
     8    9    8 1
     9   10    8 1
    10   11    8 1
    11   12    7 ar
    12   13   12 1
    13   14   12 ar
    14   15   14 1
    15   16    4 ar
    16   17   16 1
    17   18   17 1
    18   19    2 1
    19   20   19 1
    20   21   20 1
    21   22   20 1
    22   23   20 1
    23   24    1 1
    24   25   24 1
    25   26   24 1
    26   27   24 1
    27   14   16 ar
    28   17   19 2
@<TRIPOS>SUBSTRUCTURE
     1 RES1 1

@<TRIPOS>CRYSIN
   8.9440   11.1480   11.4940  90.0000 111.1220  90.0000  14 1

