# MOL2 file generated by ConQuest
# Please check atom types

@<TRIPOS>MOLECULE
CIYZOZ
    31    33     1
SMALL
USER_CHARGES
****
Generated from CSD

@<TRIPOS>ATOM
      1 O1        13.3873    1.0192    0.3725 O.2       1 RES1   -1.0000
      2 N1        13.8383    2.0603   -0.1800 N.pl3     1 RES1    1.0000
      3 N2        14.5108    2.0144   -1.3742 N.pl3     1 RES1    0.0000
      4 N3        14.9361    3.2288   -1.8162 N.2       1 RES1    0.0000
      5 C1        14.4659    4.0517   -0.8412 C.2       1 RES1    0.0000
      6 C2        13.7918    3.3768    0.1551 C.2       1 RES1    0.0000
      7 C3        13.2541    3.9370    1.3225 C.2       1 RES1    0.0000
      8 C4        13.4066    5.3258    1.3563 C.2       1 RES1    0.0000
      9 C5        14.0325    6.0948    0.3386 C.2       1 RES1    0.0000
     10 C6        14.5429    5.4750   -0.7557 C.2       1 RES1    0.0000
     11 N4        12.9379    6.0489    2.5683 N.pl3     1 RES1    0.0000
     12 O2        13.0294    7.2621    2.5594 O.2       1 RES1    0.0000
     13 O3        12.5174    5.3556    3.4648 O.2       1 RES1    0.0000
     14 N5        15.2363    6.2670   -1.7645 N.pl3     1 RES1    0.0000
     15 O4        15.7226    5.6885   -2.7287 O.2       1 RES1    0.0000
     16 O5        15.2892    7.4905   -1.5987 O.2       1 RES1    0.0000
     17 C7        14.8719    0.7966   -2.0069 C.ar      1 RES1    0.0000
     18 C8        16.2249    0.4821   -2.0764 C.ar      1 RES1    0.0000
     19 C9        16.7048   -0.6313   -2.7840 C.ar      1 RES1    0.0000
     20 C10       15.7515   -1.4348   -3.3293 C.ar      1 RES1    0.0000
     21 C11       14.3680   -1.2167   -3.2741 C.ar      1 RES1    0.0000
     22 C12       13.9747   -0.0459   -2.6093 C.ar      1 RES1    0.0000
     23 N6        17.2538    1.3050   -1.3777 N.pl3     1 RES1    0.0000
     24 O6        16.9344    1.7137   -0.2531 O.2       1 RES1    0.0000
     25 O7        18.3034    1.4669   -1.9053 O.2       1 RES1    0.0000
     26 N7        16.1880   -2.6526   -4.0636 N.pl3     1 RES1    0.0000
     27 O8        15.3310   -3.2827   -4.6768 O.2       1 RES1    0.0000
     28 O9        17.3757   -2.9453   -3.9959 O.2       1 RES1    0.0000
     29 N8        12.5222    0.2296   -2.5469 N.pl3     1 RES1    0.0000
     30 O10       11.7871   -0.7484   -2.6307 O.2       1 RES1    0.0000
     31 O11       12.1466    1.3705   -2.4489 O.2       1 RES1    0.0000
@<TRIPOS>BOND
     1    1    2 1
     2    2    3 1
     3    3    4 1
     4    4    5 2
     5    5    6 1
     6    6    2 2
     7    7    6 1
     8    8    7 2
     9    9    8 1
    10   10    5 1
    11   11    8 1
    12   12   11 2
    13   13   11 2
    14   14   10 1
    15   15   14 2
    16   16   14 2
    17   17    3 1
    18   18   17 ar
    19   19   18 ar
    20   20   19 ar
    21   21   20 ar
    22   22   17 ar
    23   23   18 1
    24   24   23 2
    25   25   23 2
    26   26   20 1
    27   27   26 2
    28   28   26 2
    29   29   22 1
    30   30   29 2
    31   31   29 2
    32    9   10 2
    33   21   22 ar
@<TRIPOS>SUBSTRUCTURE
     1 RES1 1

@<TRIPOS>CRYSIN
  16.0500   11.4780   17.8230  90.0000  90.0000  90.0000  61 1

