# MOL2 file generated by ConQuest
# Please check atom types

@<TRIPOS>MOLECULE
CIZMUT01
   114   104     3
SMALL
NO_CHARGES
****
Generated from CSD

@<TRIPOS>ATOM
      1 O1         4.2584    3.8569    5.9508 O.2       1 RES1    0.0000
      2 O2         3.2361    5.2584    4.6889 O.2       1 RES1    0.0000
      3 N1         4.0921    4.9893    5.5049 N.pl3     1 RES1    0.0000
      4 C1         4.9833    6.0525    5.9922 C.ar      1 RES1    0.0000
      5 C2         6.0013    5.7416    6.8497 C.ar      1 RES1    0.0000
      6 H1         6.0802    4.9371    7.1598 H         1 RES1    0.0000
      7 C3         6.8563    6.7630    7.2827 C.ar      1 RES1    0.0000
      8 C4         6.6152    8.0521    6.8311 C.ar      1 RES1    0.0000
      9 H2         7.1659    8.7770    7.0597 H         1 RES1    0.0000
     10 C5         5.5734    8.3381    5.9636 C.ar      1 RES1    0.0000
     11 H3         5.4832    9.2080    5.6306 H         1 RES1    0.0000
     12 C6         4.7533    7.3429    5.5220 C.ar      1 RES1    0.0000
     13 H4         4.0809    7.4448    4.8732 H         1 RES1    0.0000
     14 C7         7.9627    6.4495    8.1973 C.2       1 RES1    0.0000
     15 N2         8.8425    7.3703    8.6618 N.pl3     1 RES1    0.0000
     16 H5         8.8863    8.1892    8.3745 H         1 RES1    0.0000
     17 C8         9.6995    6.7656    9.5578 C.2       1 RES1    0.0000
     18 C9         9.2709    5.4490    9.6021 C.2       1 RES1    0.0000
     19 N3         8.2022    5.2636    8.7318 N.2       1 RES1    0.0000
     20 C10       10.7816    7.4996   10.2052 C.ar      1 RES1    0.0000
     21 C11       10.9168    8.8606   10.0265 C.ar      1 RES1    0.0000
     22 H6        10.4026    9.2994    9.5035 H         1 RES1    0.0000
     23 C12       11.9195    9.5972   10.5996 C.ar      1 RES1    0.0000
     24 H7        11.9879   10.5663   10.4467 H         1 RES1    0.0000
     25 C13       12.8169    8.9951   11.4485 C.ar      1 RES1    0.0000
     26 C14       12.7316    7.6355   11.6457 C.ar      1 RES1    0.0000
     27 H8        13.3078    7.1444   12.2045 H         1 RES1    0.0000
     28 C15       11.7335    6.9014   11.0269 C.ar      1 RES1    0.0000
     29 H9        11.6803    6.0211   11.1184 H         1 RES1    0.0000
     30 O3        13.7669    9.8010   12.0087 O.3       1 RES1    0.0000
     31 C16       14.6659    9.2407   12.9476 C.3       1 RES1    0.0000
     32 H10       15.2422    9.9277   13.2892 H         1 RES1    0.0000
     33 H11       15.1941    8.5615   12.5218 H         1 RES1    0.0000
     34 H12       14.1700    8.8514   13.6722 H         1 RES1    0.0000
     35 C17        9.7415    4.3297   10.4396 C.ar      1 RES1    0.0000
     36 C18        9.6630    4.3833   11.8329 C.ar      1 RES1    0.0000
     37 H13        9.1825    5.1591   12.1187 H         1 RES1    0.0000
     38 C19       10.0867    3.3397   12.6175 C.ar      1 RES1    0.0000
     39 H14       10.0881    3.3959   13.5478 H         1 RES1    0.0000
     40 C20       10.6203    2.2047   12.0244 C.ar      1 RES1    0.0000
     41 C21       10.7001    2.1211   10.6654 C.ar      1 RES1    0.0000
     42 H15       11.0739    1.3322   10.2323 H         1 RES1    0.0000
     43 C22       10.2652    3.1777    9.8851 C.ar      1 RES1    0.0000
     44 H16       10.3365    3.0171    8.9462 H         1 RES1    0.0000
     45 O4        11.0286    1.2225   12.9005 O.3       1 RES1    0.0000
     46 C23       11.5446    0.0222   12.3560 C.3       1 RES1    0.0000
     47 H17       11.7605   -0.5851   13.0677 H         1 RES1    0.0000
     48 H18       12.3364    0.2142   11.8501 H         1 RES1    0.0000
     49 H19       10.8866   -0.3788   11.7815 H         1 RES1    0.0000
     50 O5         8.5106   -2.6122    8.1702 O.2       2 RES2    0.0000
     51 O6         9.5484   -1.1755    9.4263 O.2       2 RES2    0.0000
     52 O7         9.0987   -1.3192    9.7750 Du        3 SUP3    0.0000
     53 N4         8.6439   -1.4824    8.6260 N.pl3     2 RES2    0.0000
     54 C24        7.9035   -0.3788    8.0115 C.ar      2 RES2    0.0000
     55 C25        7.0312   -0.6700    7.0040 C.ar      2 RES2    0.0000
     56 H20        6.9743   -1.5673    6.7882 H         2 RES2    0.0000
     57 C26        6.3058    0.3566    6.4166 C.ar      2 RES2    0.0000
     58 C27        6.5243    1.6470    6.8640 C.ar      2 RES2    0.0000
     59 H21        6.0328    2.3640    6.4738 H         2 RES2    0.0000
     60 C28        7.4206    1.9278    7.8800 C.ar      2 RES2    0.0000
     61 H22        7.6173    2.8212    8.1459 H         2 RES2    0.0000
     62 C29        8.1101    0.8934    8.4688 C.ar      2 RES2    0.0000
     63 H23        8.6396    1.0188    9.0605 H         2 RES2    0.0000
     64 C30        5.3181    0.0157    5.4077 C.2       2 RES2    0.0000
     65 N5         4.4302    0.8712    4.8404 N.pl3     2 RES2    0.0000
     66 H24        4.4740    1.6979    5.0590 H         2 RES2    0.0000
     67 C31        3.6551    0.1567    3.9586 C.2       2 RES2    0.0000
     68 C32        4.1274   -1.1285    4.0186 C.2       2 RES2    0.0000
     69 N6         5.1728   -1.2134    4.9190 N.2       2 RES2    0.0000
     70 C33        2.6844    0.7170    3.0354 C.ar      2 RES2    0.0000
     71 C34        1.9038    1.7828    3.4927 C.ar      2 RES2    0.0000
     72 H25        2.0601    2.1329    4.3402 H         2 RES2    0.0000
     73 C35        0.9168    2.3209    2.7110 C.ar      2 RES2    0.0000
     74 H26        0.4451    3.0772    2.9797 H         2 RES2    0.0000
     75 C36        0.6444    1.6940    1.5063 C.ar      2 RES2    0.0000
     76 C37        1.4400    0.6792    0.9889 C.ar      2 RES2    0.0000
     77 H27        1.2915    0.3500    0.1315 H         2 RES2    0.0000
     78 C38        2.4487    0.1724    1.7664 C.ar      2 RES2    0.0000
     79 H28        2.9752   -0.5277    1.4534 H         2 RES2    0.0000
     80 O8        -0.3573    2.1446    0.6088 O.3       2 RES2    0.0000
     81 C39       -1.1930    3.2104    1.0118 C.3       2 RES2    0.0000
     82 H29       -1.9677    3.2417    0.4459 H         2 RES2    0.0000
     83 H30       -0.7102    4.0385    0.9418 H         2 RES2    0.0000
     84 H31       -1.4660    3.0759    1.9221 H         2 RES2    0.0000
     85 C40        2.5566    0.8986    3.3227 Du        3 SUP3    0.0000
     86 C41        2.1369    2.1903    3.6956 Du        3 SUP3    0.0000
     87 H32        2.5465    2.5822    4.4331 Du        3 SUP3    0.0000
     88 C42        1.1684    2.9087    3.0468 Du        3 SUP3    0.0000
     89 H33        0.9540    3.7707    3.3227 Du        3 SUP3    0.0000
     90 C43        0.5079    2.3249    1.9693 Du        3 SUP3    0.0000
     91 C44        0.9382    1.1037    1.4648 Du        3 SUP3    0.0000
     92 H34        0.5890    0.7628    0.6731 Du        3 SUP3    0.0000
     93 C45        1.8982    0.4166    2.1722 Du        3 SUP3    0.0000
     94 H35        2.1294   -0.4310    1.8678 Du        3 SUP3    0.0000
     95 O9        -0.4484    3.1869    1.3662 Du        3 SUP3    0.0000
     96 C46       -1.4130    2.5195    0.5745 Du        3 SUP3    0.0000
     97 H36       -1.8630    3.1568    0.0143 Du        3 SUP3    0.0000
     98 H37       -2.0527    2.0898    1.1461 Du        3 SUP3    0.0000
     99 H38       -0.9787    1.8612    0.0286 Du        3 SUP3    0.0000
    100 C47        3.6952   -2.3614    3.3212 C.ar      2 RES2    0.0000
    101 C48        2.3855   -2.8068    3.4013 C.ar      2 RES2    0.0000
    102 H39        1.8445   -2.3249    3.9300 H         2 RES2    0.0000
    103 C49        1.9833   -3.9927    2.8010 C.ar      2 RES2    0.0000
    104 H40        1.0550   -4.3101    2.8582 H         2 RES2    0.0000
    105 C50        2.8969   -4.7307    2.0936 C.ar      2 RES2    0.0000
    106 C51        4.1981   -4.2918    1.9850 C.ar      2 RES2    0.0000
    107 H41        4.8818   -4.7673    1.5291 H         2 RES2    0.0000
    108 C52        4.6005   -3.1268    2.6124 C.ar      2 RES2    0.0000
    109 H42        5.4506   -2.8342    2.5295 H         2 RES2    0.0000
    110 O10        2.6170   -5.9219    1.4462 O.3       2 RES2    0.0000
    111 C53        1.3304   -6.4600    1.5849 C.3       2 RES2    0.0000
    112 H43        1.2905   -7.3155    1.1504 H         2 RES2    0.0000
    113 H44        0.6893   -5.8683    1.1833 H         2 RES2    0.0000
    114 H45        1.1255   -6.5658    2.5181 H         2 RES2    0.0000
@<TRIPOS>BOND
     1    1    3 2
     2    2    3 2
     3    3    4 1
     4    4    5 ar
     5    5    6 1
     6    7    5 ar
     7    8    7 ar
     8    9    8 1
     9   10    8 ar
    10   11   10 1
    11   12    4 ar
    12   13   12 1
    13   14    7 1
    14   15   14 1
    15   16   15 1
    16   17   15 1
    17   18   17 2
    18   19   14 2
    19   20   17 1
    20   21   20 ar
    21   22   21 1
    22   23   21 ar
    23   24   23 1
    24   25   23 ar
    25   26   25 ar
    26   27   26 1
    27   28   20 ar
    28   29   28 1
    29   30   25 1
    30   31   30 1
    31   32   31 1
    32   33   31 1
    33   34   31 1
    34   35   18 1
    35   36   35 ar
    36   37   36 1
    37   38   36 ar
    38   39   38 1
    39   40   38 ar
    40   41   40 ar
    41   42   41 1
    42   43   35 ar
    43   44   43 1
    44   45   40 1
    45   46   45 1
    46   47   46 1
    47   48   46 1
    48   49   46 1
    49   50   53 2
    50   51   53 2
    51   53   54 1
    52   54   55 ar
    53   55   56 1
    54   57   55 ar
    55   58   57 ar
    56   59   58 1
    57   60   58 ar
    58   61   60 1
    59   62   54 ar
    60   63   62 1
    61   64   57 1
    62   65   64 1
    63   66   65 1
    64   67   65 1
    65   68   67 2
    66   69   64 2
    67   70   67 1
    68   71   70 ar
    69   72   71 1
    70   73   71 ar
    71   74   73 1
    72   75   73 ar
    73   76   75 ar
    74   77   76 1
    75   78   70 ar
    76   79   78 1
    77   80   75 1
    78   81   80 1
    79   82   81 1
    80   83   81 1
    81   84   81 1
    82  100   68 1
    83  101  100 ar
    84  102  101 1
    85  103  101 ar
    86  104  103 1
    87  105  103 ar
    88  106  105 ar
    89  107  106 1
    90  108  100 ar
    91  109  108 1
    92  110  105 1
    93  111  110 1
    94  112  111 1
    95  113  111 1
    96  114  111 1
    97   10   12 ar
    98   18   19 1
    99   26   28 ar
   100   41   43 ar
   101   60   62 ar
   102   68   69 1
   103   76   78 ar
   104  106  108 ar
@<TRIPOS>SUBSTRUCTURE
     1 RES1 1
     2 RES2 50
     3 SUP3 52

@<TRIPOS>CRYSIN
  21.0040   13.0610   14.4410  90.0000  98.2660  90.0000  14 2

