# MOL2 file generated by ConQuest
# Please check atom types

@<TRIPOS>MOLECULE
CIZRAF
    49    53     1
SMALL
NO_CHARGES
****
Generated from CSD

@<TRIPOS>ATOM
      1 O1         2.4891    7.4523   -0.6804 O.3       1 RES1    0.0000
      2 N1         1.8395    7.5182    0.6328 N.3       1 RES1    0.0000
      3 C1         2.7310    6.0688   -0.9152 C.3       1 RES1    0.0000
      4 C2         2.5531    6.5028    1.4249 C.3       1 RES1    0.0000
      5 H1         3.4431    6.8648    1.7026 H         1 RES1    0.0000
      6 C3         2.7603    5.3659    0.4233 C.3       1 RES1    0.0000
      7 C4         1.5886    5.1367   -0.5159 C.3       1 RES1    0.0000
      8 H2         0.7497    5.6103   -0.2464 H         1 RES1    0.0000
      9 C5         1.3568    3.8194   -1.2064 C.3       1 RES1    0.0000
     10 H3         2.2172    3.3763   -1.3611 H         1 RES1    0.0000
     11 H4         0.9109    3.9741   -2.0650 H         1 RES1    0.0000
     12 H5         0.7917    3.2500   -0.6427 H         1 RES1    0.0000
     13 C6         3.5888    5.9053   -2.1125 C.ar      1 RES1    0.0000
     14 C7         3.6818    6.9652   -3.0192 C.ar      1 RES1    0.0000
     15 H6         3.2425    7.7854   -2.8264 H         1 RES1    0.0000
     16 C8         4.4026    6.8372   -4.1912 C.ar      1 RES1    0.0000
     17 H7         4.4412    7.5637   -4.8028 H         1 RES1    0.0000
     18 C9         5.0664    5.6624   -4.4796 C.ar      1 RES1    0.0000
     19 H8         5.5527    5.5724   -5.2904 H         1 RES1    0.0000
     20 C10        5.0152    4.6182   -3.5746 C.ar      1 RES1    0.0000
     21 H9         5.4870    3.8141   -3.7572 H         1 RES1    0.0000
     22 C11        4.2828    4.7334   -2.4058 C.ar      1 RES1    0.0000
     23 H10        4.2536    4.0050   -1.7965 H         1 RES1    0.0000
     24 C12        2.0872    8.8746    1.1033 C.3       1 RES1    0.0000
     25 H11        3.0530    9.0301    1.1577 H         1 RES1    0.0000
     26 H12        1.6879    8.9908    1.9907 H         1 RES1    0.0000
     27 H13        1.6875    9.5156    0.4785 H         1 RES1    0.0000
     28 C13        1.7639    6.1325    2.6488 C.ar      1 RES1    0.0000
     29 C14        2.4380    5.7485    3.8040 C.ar      1 RES1    0.0000
     30 H14        3.3873    5.7282    3.8081 H         1 RES1    0.0000
     31 C15        1.7412    5.3959    4.9485 C.ar      1 RES1    0.0000
     32 H15        2.2131    5.1332    5.7297 H         1 RES1    0.0000
     33 C16        0.3619    5.4256    4.9532 C.ar      1 RES1    0.0000
     34 H16       -0.1186    5.1949    5.7401 H         1 RES1    0.0000
     35 C17       -0.3140    5.7923    3.8079 C.ar      1 RES1    0.0000
     36 H17       -1.2635    5.8068    3.8094 H         1 RES1    0.0000
     37 C18        0.3735    6.1402    2.6559 C.ar      1 RES1    0.0000
     38 H18       -0.1046    6.3835    1.8721 H         1 RES1    0.0000
     39 C19        3.7018    4.3043    0.8668 C.ar      1 RES1    0.0000
     40 C20        5.0665    4.5643    0.9453 C.ar      1 RES1    0.0000
     41 H19        5.4030    5.4026    0.6531 H         1 RES1    0.0000
     42 C21        5.9380    3.6112    1.4462 C.ar      1 RES1    0.0000
     43 H20        6.8666    3.8029    1.5058 H         1 RES1    0.0000
     44 C22        5.4593    2.3814    1.8600 C.ar      1 RES1    0.0000
     45 H21        6.0596    1.7232    2.1915 H         1 RES1    0.0000
     46 C23        4.1067    2.1131    1.7907 C.ar      1 RES1    0.0000
     47 H22        3.7761    1.2686    2.0729 H         1 RES1    0.0000
     48 C24        3.2307    3.0736    1.3115 C.ar      1 RES1    0.0000
     49 H23        2.2984    2.8894    1.2867 H         1 RES1    0.0000
@<TRIPOS>BOND
     1    1    2 1
     2    2    4 1
     3    3    1 1
     4    4    5 1
     5    6    3 1
     6    7    3 1
     7    8    7 1
     8    9    7 1
     9   10    9 1
    10   11    9 1
    11   12    9 1
    12   13    3 1
    13   14   13 ar
    14   15   14 1
    15   16   14 ar
    16   17   16 1
    17   18   16 ar
    18   19   18 1
    19   20   18 ar
    20   21   20 1
    21   22   13 ar
    22   23   22 1
    23   24    2 1
    24   25   24 1
    25   26   24 1
    26   27   24 1
    27   28    4 1
    28   29   28 ar
    29   30   29 1
    30   31   29 ar
    31   32   31 1
    32   33   31 ar
    33   34   33 1
    34   35   33 ar
    35   36   35 1
    36   37   28 ar
    37   38   37 1
    38   39    6 1
    39   40   39 ar
    40   41   40 1
    41   42   40 ar
    42   43   42 1
    43   44   42 ar
    44   45   44 1
    45   46   44 ar
    46   47   46 1
    47   48   39 ar
    48   49   48 1
    49    4    6 1
    50    6    7 1
    51   20   22 ar
    52   35   37 ar
    53   46   48 ar
@<TRIPOS>SUBSTRUCTURE
     1 RES1 1

@<TRIPOS>CRYSIN
  10.2505   14.0328   13.0709  90.0000  94.1340  90.0000 231 1

