# MOL2 file generated by ConQuest
# Please check atom types

@<TRIPOS>MOLECULE
CIZSEL
    18    16     2
SMALL
NO_CHARGES
****
Generated from CSD

@<TRIPOS>ATOM
      1 O1         1.9591    0.7603    4.3001 O.3       1 RES1    0.0000
      2 O2         0.3800   -0.8252    4.2960 O.2       1 RES1    0.0000
      3 O3         0.5159    2.0641    0.8034 O.3       1 RES1    0.0000
      4 N1         1.0478    1.6598    2.0028 N.2       1 RES1    0.0000
      5 C1         0.9281    0.1208    3.7886 C.2       1 RES1    0.0000
      6 C2         0.4626    0.6524    2.4925 C.2       1 RES1    0.0000
      7 H1         2.1948    0.3852    5.0690 H         1 RES1    0.0000
      8 H2         1.0059    2.8085    0.6220 H         1 RES1    0.0000
      9 H3        -0.2776    0.2262    2.0931 H         1 RES1    0.0000
     10 O4         3.0711    3.3737    2.9100 O.3       2 RES2    0.0000
     11 O5         2.3846    4.1205    0.9162 O.2       2 RES2    0.0000
     12 O6         5.7436    6.3742    2.9586 O.3       2 RES2    0.0000
     13 N2         4.8656    5.3170    3.0036 N.2       2 RES2    0.0000
     14 C3         3.1007    4.2016    1.8911 C.2       2 RES2    0.0000
     15 C4         4.0908    5.2850    2.0044 C.2       2 RES2    0.0000
     16 H4         2.4980    2.7506    2.7391 H         2 RES2    0.0000
     17 H5         6.2486    6.2686    3.7356 H         2 RES2    0.0000
     18 H6         4.1154    5.9004    1.2959 H         2 RES2    0.0000
@<TRIPOS>BOND
     1    1    5 1
     2    2    5 2
     3    3    4 1
     4    4    6 2
     5    5    6 1
     6    6    9 1
     7    7    1 1
     8    8    3 1
     9   10   14 1
    10   11   14 2
    11   12   13 1
    12   13   15 2
    13   14   15 1
    14   15   18 1
    15   16   10 1
    16   17   12 1
@<TRIPOS>SUBSTRUCTURE
     1 RES1 1
     2 RES2 10

@<TRIPOS>CRYSIN
   4.7410    8.7960   10.4320 111.5200  91.7700 103.0900   2 1

