# MOL2 file generated by ConQuest
# Please check atom types

@<TRIPOS>MOLECULE
CIZWUD
    15    15     1
SMALL
NO_CHARGES
****
Generated from CSD

@<TRIPOS>ATOM
      1 C1         1.3616   -1.9404    5.6907 C.ar      1 RES1    0.0000
      2 C2         2.7270   -1.9040    5.5357 C.ar      1 RES1    0.0000
      3 C3         3.2468   -2.6667    4.5085 C.ar      1 RES1    0.0000
      4 C4         2.3963   -3.4035    3.7109 C.ar      1 RES1    0.0000
      5 C5         1.0482   -3.3628    3.9779 C.ar      1 RES1    0.0000
      6 C6        -0.9861   -0.4027    7.8890 C.1       1 RES1    0.0000
      7 N1         0.5033   -2.6356    4.9601 N.ar      1 RES1    0.0000
      8 N2         0.7602   -1.1453    6.7779 N.pl3     1 RES1    0.0000
      9 N3        -0.5242   -1.1223    6.8385 N.2       1 RES1    0.0000
     10 N4        -1.5244    0.1642    8.7302 N.1       1 RES1    0.0000
     11 O1         1.5155   -0.5600    7.5754 O.2       1 RES1    0.0000
     12 H1         3.2296   -1.2882    6.0881 H         1 RES1    0.0000
     13 H2         4.2293   -2.6679    4.3817 H         1 RES1    0.0000
     14 H3         2.7228   -3.9641    2.9683 H         1 RES1    0.0000
     15 H4         0.3877   -3.9358    3.4805 H         1 RES1    0.0000
@<TRIPOS>BOND
     1    1    2 ar
     2    2    3 ar
     3    3    4 ar
     4    4    5 ar
     5    5    7 ar
     6    6    9 1
     7    7    1 ar
     8    8    1 1
     9    9    8 2
    10   10    6 3
    11   11    8 1
    12   12    2 1
    13   13    3 1
    14   14    4 1
    15   15    5 1
@<TRIPOS>SUBSTRUCTURE
     1 RES1 1

@<TRIPOS>CRYSIN
   6.3680    7.8560    7.9020 115.4100  75.3200 105.4200   2 1

