# MOL2 file generated by ConQuest
# Please check atom types

@<TRIPOS>MOLECULE
CIZZOB
   140   150     2
SMALL
NO_CHARGES
****
Generated from CSD

@<TRIPOS>ATOM
      1 N1         3.6228    9.6478   10.5943 N.pl3     1 RES1    0.0000
      2 O1         2.9753   10.2354    9.7346 O.2       1 RES1    0.0000
      3 O2         4.8014    9.8782   10.8388 O.2       1 RES1    0.0000
      4 O3        -0.2615    5.6280   13.7806 O.2       1 RES1    0.0000
      5 O4         1.7691    5.0000   14.5480 O.3       1 RES1    0.0000
      6 C1        -1.8979    3.7739   18.3407 C.3       1 RES1    0.0000
      7 H1        -1.8382    3.5866   19.3107 H         1 RES1    0.0000
      8 H2        -1.5774    4.6960   18.1751 H         1 RES1    0.0000
      9 C2        -3.3491    3.6071   17.8436 C.3       1 RES1    0.0000
     10 H3        -3.9176    3.2254   18.5574 H         1 RES1    0.0000
     11 H4        -3.7254    4.4819   17.5747 H         1 RES1    0.0000
     12 C3        -3.2869    2.6514   16.6348 C.3       1 RES1    0.0000
     13 H5        -3.5510    1.7329   16.8946 H         1 RES1    0.0000
     14 H6        -3.8794    2.9630   15.9054 H         1 RES1    0.0000
     15 C4        -1.8175    2.7010   16.2084 C.3       1 RES1    0.0000
     16 H7        -1.5712    1.8952   15.6890 H         1 RES1    0.0000
     17 H8        -1.6326    3.5056   15.6614 H         1 RES1    0.0000
     18 C5        -1.0564    2.7522   17.5355 C.3       1 RES1    0.0000
     19 C6         0.4816    3.0705   17.5200 C.3       1 RES1    0.0000
     20 C7         0.7802    4.4728   16.8372 C.3       1 RES1    0.0000
     21 H9        -0.1036    4.9320   16.7563 H         1 RES1    0.0000
     22 C8         1.7570    5.5281   17.4501 C.3       1 RES1    0.0000
     23 C9         1.5419    5.7587   18.9669 C.3       1 RES1    0.0000
     24 H10        0.5897    5.6270   19.2033 H         1 RES1    0.0000
     25 H11        2.0888    5.1233   19.4929 H         1 RES1    0.0000
     26 C10        1.9729    7.2122   19.2622 C.3       1 RES1    0.0000
     27 H12        1.3069    7.6598   19.8427 H         1 RES1    0.0000
     28 H13        2.8515    7.2280   19.7174 H         1 RES1    0.0000
     29 C11        2.0604    7.9179   17.8983 C.3       1 RES1    0.0000
     30 H14        1.5761    8.7806   17.9164 H         1 RES1    0.0000
     31 H15        3.0031    8.0846   17.6479 H         1 RES1    0.0000
     32 C12        1.3996    6.9413   16.9192 C.3       1 RES1    0.0000
     33 H16        1.7528    7.0709   16.0030 H         1 RES1    0.0000
     34 H17        0.4178    7.0718   16.9044 H         1 RES1    0.0000
     35 C13        3.2585    5.2737   17.1642 C.3       1 RES1    0.0000
     36 H18        3.4616    5.6373   16.2666 H         1 RES1    0.0000
     37 H19        3.7853    5.7990   17.8171 H         1 RES1    0.0000
     38 C14        3.7603    3.8313   17.2101 C.3       1 RES1    0.0000
     39 H20        4.7342    3.8385   17.3876 H         1 RES1    0.0000
     40 H21        3.3202    3.3643   17.9635 H         1 RES1    0.0000
     41 C15        3.5002    3.0473   15.9264 C.3       1 RES1    0.0000
     42 H22        3.9613    2.1739   16.0014 H         1 RES1    0.0000
     43 H23        3.9199    3.5389   15.1765 H         1 RES1    0.0000
     44 C16        2.0410    2.7818   15.5618 C.3       1 RES1    0.0000
     45 H24        2.0131    2.2540   14.7128 H         1 RES1    0.0000
     46 C17        1.2559    2.0229   16.6397 C.3       1 RES1    0.0000
     47 H25        1.8768    1.4974   17.2054 H         1 RES1    0.0000
     48 H26        0.6156    1.3978   16.2162 H         1 RES1    0.0000
     49 C18        0.7988    2.7869   19.0089 C.3       1 RES1    0.0000
     50 H27        1.7732    2.6889   19.1512 H         1 RES1    0.0000
     51 H28        0.4596    3.5139   19.5889 H         1 RES1    0.0000
     52 C19        0.0609    1.4623   19.2931 C.3       1 RES1    0.0000
     53 H29        0.6684    0.6918   19.1643 H         1 RES1    0.0000
     54 H30       -0.2795    1.4462   20.2234 H         1 RES1    0.0000
     55 C20       -1.1065    1.4037   18.2893 C.3       1 RES1    0.0000
     56 H31       -1.9698    1.2985   18.7624 H         1 RES1    0.0000
     57 H32       -0.9914    0.6474   17.6609 H         1 RES1    0.0000
     58 C21        1.1463    4.0032   15.4077 C.3       1 RES1    0.0000
     59 H33        0.3021    3.7054   14.9618 H         1 RES1    0.0000
     60 C22        1.6886    6.7055   12.9217 C.ar      1 RES1    0.0000
     61 C23        0.9592    7.4569   12.0049 C.ar      1 RES1    0.0000
     62 H34        0.0246    7.3103   11.9128 H         1 RES1    0.0000
     63 C24        1.5861    8.4171   11.2259 C.ar      1 RES1    0.0000
     64 H35        1.0953    8.9302   10.5949 H         1 RES1    0.0000
     65 C25        2.9438    8.6072   11.3931 C.ar      1 RES1    0.0000
     66 C26        3.7000    7.8698   12.2873 C.ar      1 RES1    0.0000
     67 H36        4.6341    8.0205   12.3749 H         1 RES1    0.0000
     68 C27        3.0628    6.9063   13.0518 C.ar      1 RES1    0.0000
     69 H37        3.5622    6.3816   13.6667 H         1 RES1    0.0000
     70 C28        0.9412    5.7285   13.7793 C.2       1 RES1    0.0000
     71 N2         3.2585    9.5672    6.3960 N.pl3     2 RES2    0.0000
     72 O5         3.8823   10.5621    6.0480 O.2       2 RES2    0.0000
     73 O6         2.0966    9.3490    6.0822 O.2       2 RES2    0.0000
     74 O7         7.1530    5.6520    9.7120 O.2       2 RES2    0.0000
     75 O8         5.1107    4.8175   10.1979 O.3       2 RES2    0.0000
     76 C29        8.7106    0.8224   10.9128 C.3       2 RES2    0.0000
     77 H38        8.6930   -0.1651   10.9919 H         2 RES2    0.0000
     78 H39        8.3663    1.0745   10.0190 H         2 RES2    0.0000
     79 C30       10.1459    1.3533   11.1076 C.3       2 RES2    0.0000
     80 H40       10.7667    0.6086   11.3043 H         2 RES2    0.0000
     81 H41       10.4570    1.8167   10.2907 H         2 RES2    0.0000
     82 C31       10.0870    2.3320   12.2922 C.3       2 RES2    0.0000
     83 H42       10.3418    1.8832   13.1379 H         2 RES2    0.0000
     84 H43       10.6849    3.1074   12.1438 H         2 RES2    0.0000
     85 C32        8.6206    2.7669   12.3212 C.3       2 RES2    0.0000
     86 H44        8.4403    3.4516   11.6281 H         2 RES2    0.0000
     87 H45        8.3773    3.1344   13.2079 H         2 RES2    0.0000
     88 C33        7.8464    1.4715   12.0306 C.3       2 RES2    0.0000
     89 C34        6.3221    1.5630   11.6570 C.3       2 RES2    0.0000
     90 C35        6.0809    2.4647   10.3743 C.3       2 RES2    0.0000
     91 H46        6.9827    2.6075    9.9669 H         2 RES2    0.0000
     92 C36        5.1400    2.0390    9.1960 C.3       2 RES2    0.0000
     93 C37        5.3548    0.5752    8.7381 C.3       2 RES2    0.0000
     94 H47        6.3046    0.3169    8.8394 H         2 RES2    0.0000
     95 H48        4.7998   -0.0409    9.2787 H         2 RES2    0.0000
     96 C38        4.9356    0.5182    7.2534 C.3       2 RES2    0.0000
     97 H49        5.5727   -0.0344    6.7341 H         2 RES2    0.0000
     98 H50        4.0305    0.1264    7.1636 H         2 RES2    0.0000
     99 C39        4.9464    1.9702    6.7489 C.3       2 RES2    0.0000
    100 H51        5.4936    2.0524    5.9287 H         2 RES2    0.0000
    101 H52        4.0270    2.2807    6.5535 H         2 RES2    0.0000
    102 C40        5.5603    2.7788    7.8959 C.3       2 RES2    0.0000
    103 H53        5.2128    3.7063    7.8941 H         2 RES2    0.0000
    104 H54        6.5466    2.8078    7.8144 H         2 RES2    0.0000
    105 C41        3.6308    2.3011    9.4274 C.3       2 RES2    0.0000
    106 H55        3.4478    3.2452    9.1941 H         2 RES2    0.0000
    107 H56        3.1247    1.7387    8.7890 H         2 RES2    0.0000
    108 C42        3.0675    2.0462   10.8227 C.3       2 RES2    0.0000
    109 H57        3.4774    1.2210   11.1855 H         2 RES2    0.0000
    110 H58        2.0926    1.8909   10.7495 H         2 RES2    0.0000
    111 C43        3.3119    3.1915   11.8057 C.3       2 RES2    0.0000
    112 H59        2.7990    3.0017   12.6319 H         2 RES2    0.0000
    113 H60        2.9385    4.0189   11.4117 H         2 RES2    0.0000
    114 C44        4.7641    3.4672   12.2024 C.3       2 RES2    0.0000
    115 H61        4.7814    4.2179   12.8629 H         2 RES2    0.0000
    116 C45        5.4995    2.2611   12.8029 C.3       2 RES2    0.0000
    117 H62        4.8477    1.6240   13.1883 H         2 RES2    0.0000
    118 H63        6.1086    2.5600   13.5235 H         2 RES2    0.0000
    119 C46        5.9881    0.0485   11.6679 C.3       2 RES2    0.0000
    120 H64        5.0096   -0.0979   11.7127 H         2 RES2    0.0000
    121 H65        6.3440   -0.3976   10.8585 H         2 RES2    0.0000
    122 C47        6.6825   -0.4804   12.9393 C.3       2 RES2    0.0000
    123 H66        7.0411   -1.3899   12.7865 H         2 RES2    0.0000
    124 H67        6.0449   -0.5128   13.6960 H         2 RES2    0.0000
    125 C48        7.8274    0.5100   13.2385 C.3       2 RES2    0.0000
    126 H68        8.6911    0.0330   13.3218 H         2 RES2    0.0000
    127 H69        7.6529    1.0052   14.0783 H         2 RES2    0.0000
    128 C49        5.7056    3.8027   11.0554 C.3       2 RES2    0.0000
    129 H70        6.5402    4.1887   11.4491 H         2 RES2    0.0000
    130 C50        5.2135    6.6979    8.7878 C.ar      2 RES2    0.0000
    131 C51        5.9458    7.7288    8.2031 C.ar      2 RES2    0.0000
    132 H71        6.8828    7.7841    8.3464 H         2 RES2    0.0000
    133 C52        5.3118    8.6741    7.4119 C.ar      2 RES2    0.0000
    134 H72        5.8021    9.3835    7.0107 H         2 RES2    0.0000
    135 C53        3.9478    8.5578    7.2217 C.ar      2 RES2    0.0000
    136 C54        3.1941    7.5455    7.7832 C.ar      2 RES2    0.0000
    137 H73        2.2591    7.4912    7.6273 H         2 RES2    0.0000
    138 C55        3.8354    6.6124    8.5780 C.ar      2 RES2    0.0000
    139 H74        3.3371    5.9120    8.9826 H         2 RES2    0.0000
    140 C56        5.9516    5.6878    9.6072 C.2       2 RES2    0.0000
@<TRIPOS>BOND
     1    1    2 2
     2    3    1 2
     3    4   70 2
     4    5   58 1
     5    6    7 1
     6    8    6 1
     7    9    6 1
     8   10    9 1
     9   11    9 1
    10   12    9 1
    11   13   12 1
    12   14   12 1
    13   15   12 1
    14   16   15 1
    15   17   15 1
    16   18    6 1
    17   19   18 1
    18   20   19 1
    19   21   20 1
    20   22   20 1
    21   23   22 1
    22   24   23 1
    23   25   23 1
    24   26   23 1
    25   27   26 1
    26   28   26 1
    27   29   26 1
    28   30   29 1
    29   31   29 1
    30   32   22 1
    31   33   32 1
    32   34   32 1
    33   35   22 1
    34   36   35 1
    35   37   35 1
    36   38   35 1
    37   39   38 1
    38   40   38 1
    39   41   38 1
    40   42   41 1
    41   43   41 1
    42   44   41 1
    43   45   44 1
    44   46   19 1
    45   47   46 1
    46   48   46 1
    47   49   19 1
    48   50   49 1
    49   51   49 1
    50   52   49 1
    51   53   52 1
    52   54   52 1
    53   55   18 1
    54   56   55 1
    55   57   55 1
    56   58   20 1
    57   59   58 1
    58   60   61 ar
    59   61   62 1
    60   63   61 ar
    61   64   63 1
    62   65    1 1
    63   66   65 ar
    64   67   66 1
    65   68   60 ar
    66   69   68 1
    67   70    5 1
    68   71   72 2
    69   73   71 2
    70   74  140 2
    71   75  128 1
    72   76   77 1
    73   78   76 1
    74   79   76 1
    75   80   79 1
    76   81   79 1
    77   82   79 1
    78   83   82 1
    79   84   82 1
    80   85   82 1
    81   86   85 1
    82   87   85 1
    83   88   76 1
    84   89   88 1
    85   90   89 1
    86   91   90 1
    87   92   90 1
    88   93   92 1
    89   94   93 1
    90   95   93 1
    91   96   93 1
    92   97   96 1
    93   98   96 1
    94   99   96 1
    95  100   99 1
    96  101   99 1
    97  102   92 1
    98  103  102 1
    99  104  102 1
   100  105   92 1
   101  106  105 1
   102  107  105 1
   103  108  105 1
   104  109  108 1
   105  110  108 1
   106  111  108 1
   107  112  111 1
   108  113  111 1
   109  114  111 1
   110  115  114 1
   111  116   89 1
   112  117  116 1
   113  118  116 1
   114  119   89 1
   115  120  119 1
   116  121  119 1
   117  122  119 1
   118  123  122 1
   119  124  122 1
   120  125   88 1
   121  126  125 1
   122  127  125 1
   123  128   90 1
   124  129  128 1
   125  130  131 ar
   126  131  132 1
   127  133  131 ar
   128  134  133 1
   129  135   71 1
   130  136  135 ar
   131  137  136 1
   132  138  130 ar
   133  139  138 1
   134  140   75 1
   135   15   18 1
   136   29   32 1
   137   44   46 1
   138   44   58 1
   139   52   55 1
   140   60   70 1
   141   63   65 ar
   142   66   68 ar
   143   85   88 1
   144   99  102 1
   145  114  116 1
   146  114  128 1
   147  122  125 1
   148  130  140 1
   149  133  135 ar
   150  136  138 ar
@<TRIPOS>SUBSTRUCTURE
     1 RES1 1
     2 RES2 71

@<TRIPOS>CRYSIN
  10.8560   13.5170   17.7530 107.8300 100.4600 103.0900   2 1

