# MOL2 file generated by ConQuest
# Please check atom types

@<TRIPOS>MOLECULE
CIZZUH
    69    74     1
SMALL
NO_CHARGES
****
Generated from CSD

@<TRIPOS>ATOM
      1 N1         4.3879    4.5226   -1.5024 N.pl3     1 RES1    0.0000
      2 O1         5.3569    5.2633   -1.3712 O.2       1 RES1    0.0000
      3 O2         3.5844    4.5950   -2.4253 O.2       1 RES1    0.0000
      4 O3         4.4047    0.4324    3.4461 O.2       1 RES1    0.0000
      5 O4         2.3396    0.1104    2.6211 O.3       1 RES1    0.0000
      6 O5         0.2038   -1.6398    1.3633 O.2       1 RES1    0.0000
      7 C1         0.9806   -0.1991    6.9460 C.3       1 RES1    0.0000
      8 H1         0.2550   -0.5659    7.5107 H         1 RES1    0.0000
      9 H2         1.4904   -0.9507    6.5524 H         1 RES1    0.0000
     10 C2         1.8946    0.7087    7.7603 C.3       1 RES1    0.0000
     11 H3         1.3734    1.3119    8.3473 H         1 RES1    0.0000
     12 H4         2.5255    0.1820    8.3134 H         1 RES1    0.0000
     13 C3         2.6245    1.4857    6.6773 C.3       1 RES1    0.0000
     14 H5         3.3797    0.9585    6.3151 H         1 RES1    0.0000
     15 H6         2.9728    2.3410    7.0331 H         1 RES1    0.0000
     16 C4         1.5654    1.7382    5.5910 C.3       1 RES1    0.0000
     17 H7         1.9559    1.6028    4.6913 H         1 RES1    0.0000
     18 H8         1.2249    2.6654    5.6511 H         1 RES1    0.0000
     19 C5         0.4086    0.7160    5.8411 C.3       1 RES1    0.0000
     20 C6        -0.2269   -0.0142    4.5925 C.3       1 RES1    0.0000
     21 C7         0.5624   -1.1158    3.7609 C.3       1 RES1    0.0000
     22 C8         0.4753   -2.6683    4.0795 C.3       1 RES1    0.0000
     23 C9         0.6538   -3.1410    5.5414 C.3       1 RES1    0.0000
     24 H9         1.6105   -3.1569    5.7944 H         1 RES1    0.0000
     25 H10        0.1644   -2.5510    6.1672 H         1 RES1    0.0000
     26 C10        0.0635   -4.5485    5.5411 C.3       1 RES1    0.0000
     27 H11        0.6736   -5.1934    5.1011 H         1 RES1    0.0000
     28 H12       -0.1275   -4.8573    6.4615 H         1 RES1    0.0000
     29 C11       -1.2212   -4.3696    4.7406 C.3       1 RES1    0.0000
     30 H13       -1.9500   -4.0298    5.3168 H         1 RES1    0.0000
     31 H14       -1.5060   -5.2273    4.3369 H         1 RES1    0.0000
     32 C12       -0.8638   -3.3441    3.6507 C.3       1 RES1    0.0000
     33 H15       -1.5803   -2.6654    3.5697 H         1 RES1    0.0000
     34 H16       -0.7563   -3.7956    2.7763 H         1 RES1    0.0000
     35 C13        1.6807   -3.2231    3.2757 C.3       1 RES1    0.0000
     36 H17        1.9666   -4.0994    3.6375 H         1 RES1    0.0000
     37 H18        1.4410   -3.3355    2.3218 H         1 RES1    0.0000
     38 C14        2.7904   -2.1906    3.4318 C.3       1 RES1    0.0000
     39 H19        3.3361   -2.1393    2.6068 H         1 RES1    0.0000
     40 H20        3.3817   -2.4286    4.1890 H         1 RES1    0.0000
     41 C15        2.0908   -0.8578    3.6956 C.3       1 RES1    0.0000
     42 H21        2.4046   -0.4805    4.5665 H         1 RES1    0.0000
     43 C16       -0.0051   -0.9147    2.3113 C.2       1 RES1    0.0000
     44 C17       -0.8714    0.3078    2.2481 C.3       1 RES1    0.0000
     45 H22       -1.8289    0.0594    2.2170 H         1 RES1    0.0000
     46 H23       -0.6559    0.8510    1.4498 H         1 RES1    0.0000
     47 C18       -0.5527    1.0679    3.5185 C.3       1 RES1    0.0000
     48 H24       -1.3280    1.6150    3.8008 H         1 RES1    0.0000
     49 H25        0.2242    1.6659    3.3802 H         1 RES1    0.0000
     50 C19       -1.5756   -0.5210    5.1626 C.3       1 RES1    0.0000
     51 H26       -2.2258   -0.6806    4.4340 H         1 RES1    0.0000
     52 H27       -1.4478   -1.3640    5.6665 H         1 RES1    0.0000
     53 C20       -2.0659    0.5980    6.0919 C.3       1 RES1    0.0000
     54 H28       -2.7551    1.1466    5.6403 H         1 RES1    0.0000
     55 H29       -2.4551    0.2173    6.9191 H         1 RES1    0.0000
     56 C21       -0.8333    1.4477    6.4207 C.3       1 RES1    0.0000
     57 H30       -0.7418    1.5520    7.4013 H         1 RES1    0.0000
     58 H31       -0.9201    2.3465    6.0162 H         1 RES1    0.0000
     59 C22        3.7456    1.6266    1.4920 C.ar      1 RES1    0.0000
     60 C23        2.8054    1.7836    0.4765 C.ar      1 RES1    0.0000
     61 H32        2.0197    1.2499    0.4684 H         1 RES1    0.0000
     62 C24        3.0200    2.7202   -0.5200 C.ar      1 RES1    0.0000
     63 H33        2.3891    2.8370   -1.2202 H         1 RES1    0.0000
     64 C25        4.1731    3.4826   -0.4730 C.ar      1 RES1    0.0000
     65 C26        5.1301    3.3332    0.5090 C.ar      1 RES1    0.0000
     66 H34        5.9183    3.8635    0.5069 H         1 RES1    0.0000
     67 C27        4.9097    2.3908    1.4955 C.ar      1 RES1    0.0000
     68 H35        5.5559    2.2632    2.1800 H         1 RES1    0.0000
     69 C28        3.5574    0.6665    2.6176 C.2       1 RES1    0.0000
@<TRIPOS>BOND
     1    1    2 2
     2    3    1 2
     3    4   69 2
     4    5   41 1
     5    6   43 2
     6    7    8 1
     7    9    7 1
     8   10    7 1
     9   11   10 1
    10   12   10 1
    11   13   10 1
    12   14   13 1
    13   15   13 1
    14   16   13 1
    15   17   16 1
    16   18   16 1
    17   19    7 1
    18   20   19 1
    19   21   20 1
    20   22   21 1
    21   23   22 1
    22   24   23 1
    23   25   23 1
    24   26   23 1
    25   27   26 1
    26   28   26 1
    27   29   26 1
    28   30   29 1
    29   31   29 1
    30   32   22 1
    31   33   32 1
    32   34   32 1
    33   35   22 1
    34   36   35 1
    35   37   35 1
    36   38   35 1
    37   39   38 1
    38   40   38 1
    39   41   21 1
    40   42   41 1
    41   43   21 1
    42   44   43 1
    43   45   44 1
    44   46   44 1
    45   47   20 1
    46   48   47 1
    47   49   47 1
    48   50   20 1
    49   51   50 1
    50   52   50 1
    51   53   50 1
    52   54   53 1
    53   55   53 1
    54   56   19 1
    55   57   56 1
    56   58   56 1
    57   59   60 ar
    58   60   61 1
    59   62   60 ar
    60   63   62 1
    61   64    1 1
    62   65   64 ar
    63   66   65 1
    64   67   59 ar
    65   68   67 1
    66   69    5 1
    67   16   19 1
    68   29   32 1
    69   38   41 1
    70   44   47 1
    71   53   56 1
    72   59   69 1
    73   62   64 ar
    74   65   67 ar
@<TRIPOS>SUBSTRUCTURE
     1 RES1 1

@<TRIPOS>CRYSIN
   8.6300    9.4430   15.8110  95.1500  99.1600 111.3600   2 1

