# MOL2 file generated by ConQuest
# Please check atom types

@<TRIPOS>MOLECULE
CLAVNT10
    25    26     2
SMALL
NO_CHARGES
****
Generated from CSD

@<TRIPOS>ATOM
      1 O1         1.5885    7.7381    4.7179 O.3       1 RES1    0.0000
      2 C1         2.6980    7.3624    3.9911 C.2       1 RES1    0.0000
      3 C2         2.9213    5.8634    4.1745 C.3       1 RES1    0.0000
      4 N1         1.6462    5.4362    4.6884 N.am      1 RES1    0.0000
      5 C3         0.9546    6.5899    5.2823 C.3       1 RES1    0.0000
      6 C4        -0.3528    6.1814    4.5869 C.3       1 RES1    0.0000
      7 C5         0.5295    5.1728    3.8661 C.2       1 RES1    0.0000
      8 C6         3.3853    8.2214    3.2677 C.2       1 RES1    0.0000
      9 C7         3.0883    9.7071    3.1933 C.3       1 RES1    0.0000
     10 C8         4.0200    5.5781    5.1923 C.2       1 RES1    0.0000
     11 C9         6.3443    5.7870    5.5877 C.3       1 RES1    0.0000
     12 C10        6.5565    7.0397    6.3760 C.ar      1 RES1    0.0000
     13 C11        5.9500    8.2518    6.0441 C.ar      1 RES1    0.0000
     14 C12        6.1964    9.3797    6.7839 C.ar      1 RES1    0.0000
     15 C13        7.0602    9.3057    7.8637 C.ar      1 RES1    0.0000
     16 C14        7.6762    8.1239    8.2176 C.ar      1 RES1    0.0000
     17 C15        7.4191    6.9984    7.4678 C.ar      1 RES1    0.0000
     18 O2         0.4375    4.4541    2.9158 O.2       1 RES1    0.0000
     19 O3         3.8639   10.3978    4.1810 O.3       1 RES1    0.0000
     20 O4         3.8561    5.1930    6.2960 O.2       1 RES1    0.0000
     21 O5         5.2186    5.9008    4.6814 O.3       1 RES1    0.0000
     22 N2         7.3230   10.4928    8.6530 N.pl3     1 RES1    0.0000
     23 O6         6.8744   11.5592    8.2856 O.2       1 RES1    0.0000
     24 O7         7.9949   10.3900    9.6622 O.2       1 RES1    0.0000
     25 O8         3.1493   10.1468    1.8926 Du        2 SUP2    0.0000
@<TRIPOS>BOND
     1    1    2 1
     2    2    3 1
     3    3    4 1
     4    4    5 1
     5    5    1 1
     6    6    5 1
     7    7    4 1
     8    8    2 2
     9    9    8 1
    10   10    3 1
    11   11   12 1
    12   12   13 ar
    13   13   14 ar
    14   14   15 ar
    15   15   16 ar
    16   16   17 ar
    17   17   12 ar
    18   18    7 2
    19   19    9 1
    20   20   10 2
    21   21   10 1
    22   22   15 1
    23   23   22 2
    24   24   22 2
    25    6    7 1
    26   11   21 1
@<TRIPOS>SUBSTRUCTURE
     1 RES1 1
     2 SUP2 25

@<TRIPOS>CRYSIN
  19.5280    7.7950    5.0250  90.0000  95.8500  90.0000   4 1

