# MOL2 file generated by ConQuest
# Please check atom types

@<TRIPOS>MOLECULE
CMCNCB
    47    49     1
SMALL
NO_CHARGES
****
Generated from CSD

@<TRIPOS>ATOM
      1 C1        -2.1610    4.0189   -0.3613 C.3       1 RES1    0.0000
      2 C2        -2.6227    2.6238    0.2873 C.3       1 RES1    0.0000
      3 C3        -4.0472    3.2330    0.4514 C.3       1 RES1    0.0000
      4 C4        -3.4815    4.6409    0.2111 C.3       1 RES1    0.0000
      5 C5        -0.8479    4.6179    0.0793 C.ar      1 RES1    0.0000
      6 C6        -0.7931    5.9029    0.5800 C.ar      1 RES1    0.0000
      7 C7         0.4167    6.4661    0.9590 C.ar      1 RES1    0.0000
      8 C8         1.5568    5.7263    0.8281 C.ar      1 RES1    0.0000
      9 C9         1.5529    4.4438    0.3243 C.ar      1 RES1    0.0000
     10 C10        0.3371    3.9011   -0.0578 C.ar      1 RES1    0.0000
     11 N1         2.8393    6.3227    1.2247 N.pl3     1 RES1    0.0000
     12 O1         2.8207    7.5002    1.5490 O.2       1 RES1    0.0000
     13 O2         3.8317    5.6392    1.2471 O.2       1 RES1    0.0000
     14 C11       -2.2178    3.9882   -1.8826 C.2       1 RES1    0.0000
     15 O3        -3.3454    3.4301   -2.3193 O.3       1 RES1    0.0000
     16 O4        -1.3656    4.4157   -2.6151 O.2       1 RES1    0.0000
     17 C12       -3.5090    3.3303   -3.7405 C.3       1 RES1    0.0000
     18 C13       -1.9115    2.2910    1.5922 C.ar      1 RES1    0.0000
     19 C14       -2.2526    2.9361    2.7753 C.ar      1 RES1    0.0000
     20 C15       -1.6009    2.6648    3.9546 C.ar      1 RES1    0.0000
     21 C16       -0.5717    1.7509    3.9485 C.ar      1 RES1    0.0000
     22 C17       -0.2134    1.0700    2.8100 C.ar      1 RES1    0.0000
     23 C18       -0.8924    1.3439    1.6415 C.ar      1 RES1    0.0000
     24 N2         0.1538    1.4796    5.1925 N.pl3     1 RES1    0.0000
     25 O5        -0.2750    1.9378    6.2216 O.2       1 RES1    0.0000
     26 O6         1.1334    0.7807    5.1416 O.2       1 RES1    0.0000
     27 C19       -2.5000    1.4463   -0.6578 C.2       1 RES1    0.0000
     28 O7        -3.5283    0.6272   -0.5407 O.3       1 RES1    0.0000
     29 O8        -1.5664    1.2697   -1.3965 O.2       1 RES1    0.0000
     30 C20       -3.5177   -0.5401   -1.3827 C.3       1 RES1    0.0000
     31 H1        -4.4421    3.0718    1.3634 H         1 RES1    0.0000
     32 H2        -4.6939    2.9182   -0.2465 H         1 RES1    0.0000
     33 H3        -4.0108    5.1964   -0.4468 H         1 RES1    0.0000
     34 H4        -3.3639    5.1964    1.0553 H         1 RES1    0.0000
     35 H5        -1.6418    6.4251    0.7087 H         1 RES1    0.0000
     36 H6         0.4575    7.4234    1.2710 H         1 RES1    0.0000
     37 H7         2.4140    3.9165    0.2311 H         1 RES1    0.0000
     38 H8         0.3035    2.9694   -0.4391 H         1 RES1    0.0000
     39 H9        -4.3967    2.8926   -3.9592 H         1 RES1    0.0000
     40 H10       -3.4975    4.2493   -4.1672 H         1 RES1    0.0000
     41 H11       -2.7820    2.7646   -4.1518 H         1 RES1    0.0000
     42 H12       -2.9920    3.6093    2.7807 H         1 RES1    0.0000
     43 H13       -1.8643    3.1486    4.7988 H         1 RES1    0.0000
     44 H14       -0.6498    0.8447    0.8011 H         1 RES1    0.0000
     45 H15       -4.3114   -1.1263   -1.2324 H         1 RES1    0.0000
     46 H16       -3.4644   -0.3072   -2.3494 H         1 RES1    0.0000
     47 H17       -2.6783   -1.1007   -1.1708 H         1 RES1    0.0000
@<TRIPOS>BOND
     1    1    2 1
     2    2    3 1
     3    3    4 1
     4    4    1 1
     5    5    1 1
     6    6    5 ar
     7    7    6 ar
     8    8    7 ar
     9    9    8 ar
    10   10    5 ar
    11   11    8 1
    12   12   11 2
    13   13   11 2
    14   14    1 1
    15   15   14 1
    16   16   14 2
    17   17   15 1
    18   18    2 1
    19   19   18 ar
    20   20   19 ar
    21   21   20 ar
    22   22   21 ar
    23   23   18 ar
    24   24   21 1
    25   25   24 2
    26   26   24 2
    27   27    2 1
    28   28   27 1
    29   29   27 2
    30   30   28 1
    31   31    3 1
    32   32    3 1
    33   33    4 1
    34   34    4 1
    35   35    6 1
    36   36    7 1
    37   37    9 1
    38   38   10 1
    39   39   17 1
    40   40   17 1
    41   41   17 1
    42   42   19 1
    43   43   20 1
    44   44   23 1
    45   45   30 1
    46   46   30 1
    47   47   30 1
    48    9   10 ar
    49   22   23 ar
@<TRIPOS>SUBSTRUCTURE
     1 RES1 1

@<TRIPOS>CRYSIN
  10.1580   25.5980    8.2060  90.0000 110.1690  90.0000  14 1

