# MOL2 file generated by ConQuest
# Please check atom types

@<TRIPOS>MOLECULE
CMDNFL01
    30    32     1
SMALL
NO_CHARGES
****
Generated from CSD

@<TRIPOS>ATOM
      1 C1         5.9189    8.4563    1.5886 C.2       1 RES1    0.0000
      2 C2         6.8083    7.8267    0.5840 C.ar      1 RES1    0.0000
      3 C3         6.5350    7.1016   -0.5579 C.ar      1 RES1    0.0000
      4 H1         5.6609    6.9409   -0.8330 H         1 RES1    0.0000
      5 C4         7.6235    6.6210   -1.2798 C.ar      1 RES1    0.0000
      6 C5         8.9393    6.8547   -0.9201 C.ar      1 RES1    0.0000
      7 H2         9.6345    6.5181   -1.4367 H         1 RES1    0.0000
      8 C6         9.2058    7.5938    0.2141 C.ar      1 RES1    0.0000
      9 H3        10.0829    7.7696    0.4683 H         1 RES1    0.0000
     10 C7         8.1485    8.0676    0.9665 C.ar      1 RES1    0.0000
     11 C8         4.5596    8.4563    1.5886 C.2       1 RES1    0.0000
     12 C9         3.7701    7.8553    0.5547 C.1       1 RES1    0.0000
     13 N1         7.3572    5.8078   -2.4712 N.pl3     1 RES1    0.0000
     14 O1         6.2459    5.8533   -2.9649 O.2       1 RES1    0.0000
     15 O2         8.2660    5.1114   -2.9052 O.2       1 RES1    0.0000
     16 N2         3.0989    7.4053   -0.2465 N.1       1 RES1    0.0000
     17 C2C        6.8083    9.0858    2.5932 C.ar      1 RES1    0.0000
     18 C3C        6.5350    9.8109    3.7351 C.ar      1 RES1    0.0000
     19 H1C        5.6609    9.9716    4.0102 H         1 RES1    0.0000
     20 C4C        7.6235   10.2915    4.4569 C.ar      1 RES1    0.0000
     21 C5C        8.9393   10.0578    4.0973 C.ar      1 RES1    0.0000
     22 H2C        9.6345   10.3944    4.6139 H         1 RES1    0.0000
     23 C6C        9.2058    9.3187    2.9630 C.ar      1 RES1    0.0000
     24 H3C       10.0829    9.1429    2.7088 H         1 RES1    0.0000
     25 C7C        8.1485    8.8449    2.2107 C.ar      1 RES1    0.0000
     26 C9C        3.7701    9.0572    2.6224 C.1       1 RES1    0.0000
     27 N1C        7.3572   11.1047    5.6483 N.pl3     1 RES1    0.0000
     28 O1C        6.2459   11.0592    6.1421 O.2       1 RES1    0.0000
     29 O2C        8.2660   11.8011    6.0823 O.2       1 RES1    0.0000
     30 N2C        3.0989    9.5072    3.4237 N.1       1 RES1    0.0000
@<TRIPOS>BOND
     1    1    2 1
     2    2    3 ar
     3    3    4 1
     4    5    3 ar
     5    6    5 ar
     6    7    6 1
     7    8    6 ar
     8    9    8 1
     9   10    2 ar
    10   11    1 2
    11   12   11 1
    12   13    5 1
    13   14   13 2
    14   15   13 2
    15   16   12 3
    16   17    1 1
    17   18   17 ar
    18   19   18 1
    19   20   18 ar
    20   21   20 ar
    21   22   21 1
    22   23   21 ar
    23   24   23 1
    24   25   10 1
    25   26   11 1
    26   27   20 1
    27   28   27 2
    28   29   27 2
    29   30   26 3
    30    8   10 ar
    31   17   25 ar
    32   23   25 ar
@<TRIPOS>SUBSTRUCTURE
     1 RES1 1

@<TRIPOS>CRYSIN
  19.3270   11.2750    6.3543  90.0000  90.0000  90.0000  52 1

