# MOL2 file generated by ConQuest
# Please check atom types

@<TRIPOS>MOLECULE
CMDNFL
    30    32     1
SMALL
NO_CHARGES
****
Generated from CSD

@<TRIPOS>ATOM
      1 C1         1.5158    2.4238    2.1965 C.ar      1 RES1    0.0000
      2 C2         0.4584    1.9459    2.9378 C.ar      1 RES1    0.0000
      3 C3         0.7011    1.2052    4.0721 C.ar      1 RES1    0.0000
      4 C4         2.0300    0.9892    4.4430 C.ar      1 RES1    0.0000
      5 C5         3.0989    1.4513    3.7315 C.ar      1 RES1    0.0000
      6 C6         2.8505    2.1664    2.5852 C.ar      1 RES1    0.0000
      7 C7         3.7268    2.7975    1.5825 C.2       1 RES1    0.0000
      8 C8         5.0789    2.7975    1.5825 C.2       1 RES1    0.0000
      9 C9         5.8743    2.2011    2.6004 C.1       1 RES1    0.0000
     10 H1        -0.5393    2.2268    2.7029 H         1 RES1    0.0000
     11 H2         0.0770    0.8952    4.7222 H         1 RES1    0.0000
     12 H3         3.9483    1.2645    4.1398 H         1 RES1    0.0000
     13 N1         2.2977    0.1623    5.6134 N.pl3     1 RES1    0.0000
     14 N2         6.5291    1.7546    3.4277 N.1       1 RES1    0.0000
     15 O1         1.3886   -0.5181    6.0597 O.2       1 RES1    0.0000
     16 O2         3.4052    0.2249    6.1243 O.2       1 RES1    0.0000
     17 C1E        1.5158    3.1712    0.9685 C.ar      1 RES1    0.0000
     18 C6E        2.8505    3.4286    0.5798 C.ar      1 RES1    0.0000
     19 C9E        5.8743    3.3939    0.5646 C.1       1 RES1    0.0000
     20 C2E        0.4584    3.6491    0.2272 C.ar      1 RES1    0.0000
     21 C5E        3.0989    4.1437   -0.5665 C.ar      1 RES1    0.0000
     22 N2E        6.5291    3.8404   -0.2627 N.1       1 RES1    0.0000
     23 C3E        0.7011    4.3898   -0.9071 C.ar      1 RES1    0.0000
     24 H1E       -0.5393    3.3682    0.4621 H         1 RES1    0.0000
     25 C4E        2.0300    4.6058   -1.2780 C.ar      1 RES1    0.0000
     26 H3E        3.9483    4.3305   -0.9748 H         1 RES1    0.0000
     27 H2E        0.0770    4.6998   -1.5572 H         1 RES1    0.0000
     28 N1E        2.2977    5.4327   -2.4484 N.pl3     1 RES1    0.0000
     29 O1E        1.3886    6.1131   -2.8947 O.2       1 RES1    0.0000
     30 O2E        3.4052    5.3701   -2.9593 O.2       1 RES1    0.0000
@<TRIPOS>BOND
     1    1    2 ar
     2    2    3 ar
     3    3    4 ar
     4    4    5 ar
     5    5    6 ar
     6    6    1 ar
     7    7    6 1
     8    8    7 2
     9    9    8 1
    10   10    2 1
    11   11    3 1
    12   12    5 1
    13   13    4 1
    14   14    9 3
    15   15   13 2
    16   16   13 2
    17   17    1 1
    18   18    7 1
    19   19    8 1
    20   20   17 ar
    21   21   18 ar
    22   22   19 3
    23   23   20 ar
    24   24   20 1
    25   25   21 ar
    26   26   21 1
    27   27   23 1
    28   28   25 1
    29   29   28 2
    30   30   28 2
    31   17   18 ar
    32   23   25 ar
@<TRIPOS>SUBSTRUCTURE
     1 RES1 1

@<TRIPOS>CRYSIN
  19.2600   11.1900    6.3300  90.0000  90.0000  90.0000  52 1

