# MOL2 file generated by ConQuest
# Please check atom types

@<TRIPOS>MOLECULE
CMNFLU10
    68    72     2
SMALL
NO_CHARGES
****
Generated from CSD

@<TRIPOS>ATOM
      1 C1         4.5861    4.7899    2.4388 C.ar      1 RES1    0.0000
      2 C2         4.9934   -1.5669    5.3051 C.ar      2 RES2    0.0000
      3 C3         3.8852    3.6456    2.1235 C.ar      1 RES1    0.0000
      4 C4         4.2482   -2.7015    5.6084 C.ar      2 RES2    0.0000
      5 C5         3.8420    3.2279    0.8229 C.ar      1 RES1    0.0000
      6 C6         3.9217   -2.9287    6.9054 C.ar      2 RES2    0.0000
      7 C7         4.3870    3.9607   -0.2030 C.ar      1 RES1    0.0000
      8 C8         4.3403   -2.1348    7.9493 C.ar      2 RES2    0.0000
      9 C9         5.0878    5.0977    0.1206 C.ar      1 RES1    0.0000
     10 C10        5.0559   -0.9880    7.6149 C.ar      2 RES2    0.0000
     11 C11        5.2573    5.5129    1.4618 C.ar      1 RES1    0.0000
     12 C12        5.3438   -0.6595    6.2760 C.ar      2 RES2    0.0000
     13 C13        5.6885    6.1065   -0.7524 C.2       1 RES1    0.0000
     14 C14        5.6885    0.0000    8.5142 C.2       2 RES2    0.0000
     15 C15        5.6885    6.1065   -2.1235 C.2       1 RES1    0.0000
     16 C16        5.6885    0.0000    9.8494 C.2       2 RES2    0.0000
     17 C17        5.0912    5.0721   -2.9093 C.1       1 RES1    0.0000
     18 C18        5.0286   -1.0039   10.6460 C.1       2 RES2    0.0000
     19 H1         3.5178    3.1949    2.8245 H         1 RES1    0.0000
     20 H2         3.9922   -3.3207    4.9062 H         2 RES2    0.0000
     21 H3         4.3051    3.5344   -1.1680 H         1 RES1    0.0000
     22 H4         4.1970   -2.2606    8.8545 H         2 RES2    0.0000
     23 N1         4.6350    4.2611   -3.5722 N.1       1 RES1    0.0000
     24 N2         4.5326   -1.7941   11.2981 N.1       2 RES2    0.0000
     25 N3         3.1196    1.9907    0.5016 N.pl3     1 RES1    0.0000
     26 N4         3.1207   -4.1390    7.2387 N.pl3     2 RES2    0.0000
     27 N5         4.4359    5.2711    3.8194 N.pl3     1 RES1    0.0000
     28 N6         5.4962   -1.5022    3.9149 N.pl3     2 RES2    0.0000
     29 O1         3.1730    1.5657   -0.6282 O.2       1 RES1    0.0000
     30 O2         3.1059   -4.5103    8.3959 O.2       2 RES2    0.0000
     31 O3         2.4495    1.4924    1.3985 O.2       1 RES1    0.0000
     32 O4         2.5393   -4.6666    6.3178 O.2       2 RES2    0.0000
     33 O5         4.3449    6.4753    3.9902 O.2       1 RES1    0.0000
     34 O6         6.6214   -1.0320    3.7585 O.2       2 RES2    0.0000
     35 O7         4.3699    4.4370    4.7091 O.2       1 RES1    0.0000
     36 O8         4.8079   -1.9639    3.0311 O.2       2 RES2    0.0000
     37 C11C       6.1197    6.7001    1.4618 C.ar      1 RES1    0.0000
     38 C9C        6.2892    7.1153    0.1206 C.ar      1 RES1    0.0000
     39 C17C       6.2858    7.1409   -2.9093 C.1       1 RES1    0.0000
     40 C1C        6.7909    7.4231    2.4388 C.ar      1 RES1    0.0000
     41 C7C        6.9900    8.2523   -0.2030 C.ar      1 RES1    0.0000
     42 N1C        6.7420    7.9519   -3.5722 N.1       1 RES1    0.0000
     43 C3C        7.4918    8.5674    2.1235 C.ar      1 RES1    0.0000
     44 N5C        6.9411    6.9419    3.8194 N.pl3     1 RES1    0.0000
     45 C5C        7.5350    8.9851    0.8229 C.ar      1 RES1    0.0000
     46 H3C        7.0719    8.6786   -1.1680 H         1 RES1    0.0000
     47 H1C        7.8592    9.0181    2.8245 H         1 RES1    0.0000
     48 O5C        7.0321    5.7377    3.9902 O.2       1 RES1    0.0000
     49 O7C        7.0071    7.7760    4.7091 O.2       1 RES1    0.0000
     50 N3C        8.2574   10.2223    0.5016 N.pl3     1 RES1    0.0000
     51 O1C        8.2040   10.6473   -0.6282 O.2       1 RES1    0.0000
     52 O3C        8.9275   10.7206    1.3985 O.2       1 RES1    0.0000
     53 C12C       6.0332    0.6595    6.2760 C.ar      2 RES2    0.0000
     54 C10C       6.3211    0.9880    7.6149 C.ar      2 RES2    0.0000
     55 C18C       6.3484    1.0039   10.6460 C.1       2 RES2    0.0000
     56 C2C        6.3836    1.5669    5.3051 C.ar      2 RES2    0.0000
     57 C8C        7.0367    2.1348    7.9493 C.ar      2 RES2    0.0000
     58 N2C        6.8444    1.7941   11.2981 N.1       2 RES2    0.0000
     59 C4C        7.1288    2.7015    5.6084 C.ar      2 RES2    0.0000
     60 N6C        5.8808    1.5022    3.9149 N.pl3     2 RES2    0.0000
     61 C6C        7.4553    2.9287    6.9054 C.ar      2 RES2    0.0000
     62 H4C        7.1800    2.2606    8.8545 H         2 RES2    0.0000
     63 H2C        7.3848    3.3207    4.9062 H         2 RES2    0.0000
     64 O6C        4.7556    1.0320    3.7585 O.2       2 RES2    0.0000
     65 O8C        6.5691    1.9639    3.0311 O.2       2 RES2    0.0000
     66 N4C        8.2563    4.1390    7.2387 N.pl3     2 RES2    0.0000
     67 O2C        8.2711    4.5103    8.3959 O.2       2 RES2    0.0000
     68 O4C        8.8377    4.6666    6.3178 O.2       2 RES2    0.0000
@<TRIPOS>BOND
     1    1    3 ar
     2    2    4 ar
     3    3    5 ar
     4    4    6 ar
     5    5    7 ar
     6    6    8 ar
     7    7    9 ar
     8    8   10 ar
     9    9   11 ar
    10   10   12 ar
    11   11    1 ar
    12   12    2 ar
    13   13    9 1
    14   14   10 1
    15   15   13 2
    16   16   14 2
    17   17   15 1
    18   18   16 1
    19   19    3 1
    20   20    4 1
    21   21    7 1
    22   22    8 1
    23   23   17 3
    24   24   18 3
    25   25    5 1
    26   26    6 1
    27   27    1 1
    28   28    2 1
    29   29   25 2
    30   30   26 2
    31   31   25 2
    32   32   26 2
    33   33   27 2
    34   34   28 2
    35   35   27 2
    36   36   28 2
    37   37   11 1
    38   38   13 1
    39   39   15 1
    40   40   37 ar
    41   41   38 ar
    42   42   39 3
    43   43   40 ar
    44   44   40 1
    45   45   41 ar
    46   46   41 1
    47   47   43 1
    48   48   44 2
    49   49   44 2
    50   50   45 1
    51   51   50 2
    52   52   50 2
    53   53   12 1
    54   54   14 1
    55   55   16 1
    56   56   53 ar
    57   57   54 ar
    58   58   55 3
    59   59   56 ar
    60   60   56 1
    61   61   57 ar
    62   62   57 1
    63   63   59 1
    64   64   60 2
    65   65   60 2
    66   66   61 1
    67   67   66 2
    68   68   66 2
    69   37   38 ar
    70   43   45 ar
    71   53   54 ar
    72   59   61 ar
@<TRIPOS>SUBSTRUCTURE
     1 RES1 1
     2 RES2 2

@<TRIPOS>CRYSIN
  11.3770   12.2130   11.9430  90.0000  90.0000  90.0000  32 1

