# MOL2 file generated by ConQuest
# Please check atom types

@<TRIPOS>MOLECULE
CMNFLO10
    24    26     1
SMALL
NO_CHARGES
****
Generated from CSD

@<TRIPOS>ATOM
      1 C1         6.0877    4.2124    2.0363 C.2       1 RES1    0.0000
      2 C2         5.4356    5.2216    1.3510 C.2       1 RES1    0.0000
      3 C3         4.5658    4.8973    0.2860 C.2       1 RES1    0.0000
      4 C4         4.3716    3.5770   -0.0406 C.2       1 RES1    0.0000
      5 C5         4.9659    2.5402    0.6750 C.2       1 RES1    0.0000
      6 C6         5.8148    2.8788    1.6806 C.2       1 RES1    0.0000
      7 C7         6.5600    1.9689    2.6000 C.2       1 RES1    0.0000
      8 C8         6.5600    0.6563    2.6000 C.2       1 RES1    0.0000
      9 C9         5.8200   -0.1643    1.6671 C.2       1 RES1    0.0000
     10 N1         3.4820    3.2671   -1.1430 N.2       1 RES1    0.0000
     11 N2         5.2729   -0.7820    0.9162 N.2       1 RES1    0.0000
     12 O1         3.1764    2.1211   -1.3114 O.2       1 RES1    0.0000
     13 O2         3.1042    4.2146   -1.8418 O.2       1 RES1    0.0000
     14 C1F        7.0323    4.2124    3.1637 C.2       1 RES1    0.0000
     15 C6F        7.3052    2.8788    3.5194 C.2       1 RES1    0.0000
     16 C9F        7.3000   -0.1643    3.5329 C.2       1 RES1    0.0000
     17 C2F        7.6844    5.2216    3.8490 C.2       1 RES1    0.0000
     18 C5F        8.1541    2.5402    4.5250 C.2       1 RES1    0.0000
     19 N2F        7.8471   -0.7820    4.2838 N.2       1 RES1    0.0000
     20 C3F        8.5542    4.8973    4.9140 C.2       1 RES1    0.0000
     21 C4F        8.7484    3.5770    5.2406 C.2       1 RES1    0.0000
     22 N1F        9.6380    3.2671    6.3430 N.2       1 RES1    0.0000
     23 O1F        9.9436    2.1211    6.5114 O.2       1 RES1    0.0000
     24 O2F       10.0158    4.2146    7.0418 O.2       1 RES1    0.0000
@<TRIPOS>BOND
     1    1    2 1
     2    2    3 1
     3    3    4 1
     4    4    5 1
     5    5    6 1
     6    6    1 1
     7    7    6 1
     8    8    7 1
     9    9    8 1
    10   10    4 1
    11   11    9 1
    12   12   10 1
    13   13   10 1
    14   14    1 1
    15   15    7 1
    16   16    8 1
    17   17   14 1
    18   18   15 1
    19   19   16 1
    20   20   17 1
    21   21   18 1
    22   22   21 1
    23   23   22 1
    24   24   22 1
    25   14   15 1
    26   20   21 1
@<TRIPOS>SUBSTRUCTURE
     1 RES1 1

@<TRIPOS>CRYSIN
  13.1200   11.0300   10.4000  90.0000  90.0000  90.0000  60 1

