# MOL2 file generated by ConQuest
# Please check atom types

@<TRIPOS>MOLECULE
CNOXPA
    27    27     1
SMALL
NO_CHARGES
****
Generated from CSD

@<TRIPOS>ATOM
      1 N1        -2.7197    2.7013    8.0267 N.3       1 RES1    0.0000
      2 C1        -3.1194    1.5708    8.6698 C.2       1 RES1    0.0000
      3 C2        -2.2110    1.0743    9.7560 C.2       1 RES1    0.0000
      4 C3        -1.2926    2.0737   10.4262 C.3       1 RES1    0.0000
      5 C4        -0.8125    3.0665    9.3980 C.2       1 RES1    0.0000
      6 C5        -1.5319    3.3742    8.3106 C.2       1 RES1    0.0000
      7 C6        -4.2381    0.8972    8.4328 C.2       1 RES1    0.0000
      8 N2        -5.2161    1.2708    7.5083 N.pl3     1 RES1    0.0000
      9 O1        -6.2850    0.6703    7.4972 O.2       1 RES1    0.0000
     10 O2        -5.0052    2.2359    6.7467 O.2       1 RES1    0.0000
     11 C7        -1.1693    4.3975    7.2935 C.3       1 RES1    0.0000
     12 C8         0.3977    3.7750    9.6399 C.1       1 RES1    0.0000
     13 N3         1.3804    4.3167    9.8720 N.1       1 RES1    0.0000
     14 C9        -0.1566    1.3639   11.1520 C.3       1 RES1    0.0000
     15 C10       -2.1837    2.8293   11.4482 C.3       1 RES1    0.0000
     16 O3        -2.2521   -0.0860   10.0905 O.2       1 RES1    0.0000
     17 H1        -3.3686    3.1072    7.2651 H         1 RES1    0.0000
     18 H2        -4.3997   -0.0181    8.9833 H         1 RES1    0.0000
     19 H3        -0.2370    4.8661    7.5700 H         1 RES1    0.0000
     20 H4        -1.9503    5.1421    7.2590 H         1 RES1    0.0000
     21 H5        -1.0685    3.9379    6.3221 H         1 RES1    0.0000
     22 H6         0.4877    2.0911   11.6235 H         1 RES1    0.0000
     23 H7         0.4149    0.7847   10.4410 H         1 RES1    0.0000
     24 H8        -0.5680    0.7065   11.9037 H         1 RES1    0.0000
     25 H9        -1.5869    3.5610   11.9716 H         1 RES1    0.0000
     26 H10       -2.5900    2.1221   12.1567 H         1 RES1    0.0000
     27 H11       -2.9925    3.3257   10.9323 H         1 RES1    0.0000
@<TRIPOS>BOND
     1    1    2 1
     2    2    3 1
     3    3    4 1
     4    4    5 1
     5    5    6 2
     6    6    1 1
     7    7    2 2
     8    8    7 1
     9    9    8 2
    10   10    8 2
    11   11    6 1
    12   12    5 1
    13   13   12 3
    14   14    4 1
    15   15    4 1
    16   16    3 2
    17   17    1 1
    18   18    7 1
    19   19   11 1
    20   20   11 1
    21   21   11 1
    22   22   14 1
    23   23   14 1
    24   24   14 1
    25   25   15 1
    26   26   15 1
    27   27   15 1
@<TRIPOS>SUBSTRUCTURE
     1 RES1 1

@<TRIPOS>CRYSIN
   6.7180    6.4640   15.7130  90.0000 128.2300  90.0000   4 1

