# MOL2 file generated by ConQuest
# Please check atom types

@<TRIPOS>MOLECULE
COBCIG
    37    38     1
SMALL
NO_CHARGES
****
Generated from CSD

@<TRIPOS>ATOM
      1 O1         5.2614   -2.9992   12.7070 O.2       1 RES1    0.0000
      2 O2         6.4627   -3.9749   11.2461 O.2       1 RES1    0.0000
      3 O3         7.0845    1.7722    7.6538 O.3       1 RES1    0.0000
      4 O4         4.8413    2.1465    8.1691 O.3       1 RES1    0.0000
      5 O5         4.3452    2.4869    5.3568 O.3       1 RES1    0.0000
      6 O6         7.2966    1.7499    4.7704 O.3       1 RES1    0.0000
      7 N1         5.8902   -2.9942   11.6714 N.pl3     1 RES1    0.0000
      8 C1         5.9861   -1.7425   10.9116 C.ar      1 RES1    0.0000
      9 C2         6.1415    0.5866    9.4597 C.ar      1 RES1    0.0000
     10 C3         6.1272    1.8631    8.6640 C.3       1 RES1    0.0000
     11 C4         7.2174    2.9818    6.8762 C.3       1 RES1    0.0000
     12 C5         6.7774   -0.5569    9.0209 C.ar      1 RES1    0.0000
     13 C6         5.4418    0.5420   10.6525 C.ar      1 RES1    0.0000
     14 C7         6.7004   -1.7318    9.7397 C.ar      1 RES1    0.0000
     15 C8         5.3538   -0.6197   11.3781 C.ar      1 RES1    0.0000
     16 C9         3.5262    1.7334    6.2169 C.3       1 RES1    0.0000
     17 C10        4.3088    1.1080    7.3084 C.3       1 RES1    0.0000
     18 C11        4.9373    1.7318    4.2860 C.3       1 RES1    0.0000
     19 C12        7.9890    2.6423    5.6490 C.3       1 RES1    0.0000
     20 C13        6.2809    2.2746    3.9480 C.3       1 RES1    0.0000
     21 H1         2.9055    2.4043    6.6577 H         1 RES1    0.0000
     22 H2         3.0187    0.9997    5.7048 H         1 RES1    0.0000
     23 H3         3.7871    0.5536    7.8415 H         1 RES1    0.0000
     24 H4         6.2227    3.3792    6.5066 H         1 RES1    0.0000
     25 H5         7.6684    3.6271    7.4028 H         1 RES1    0.0000
     26 H6         4.9028   -0.6279   12.1631 H         1 RES1    0.0000
     27 H7         6.3060    2.6109    9.2289 H         1 RES1    0.0000
     28 H8         7.2332   -0.5453    8.2256 H         1 RES1    0.0000
     29 H9         7.1499   -2.4539    9.4891 H         1 RES1    0.0000
     30 H10        5.0599    0.5205    6.9851 H         1 RES1    0.0000
     31 H11        8.2200    3.4619    5.1318 H         1 RES1    0.0000
     32 H12        4.9342    1.3220   10.9814 H         1 RES1    0.0000
     33 H13        6.2856    3.2553    4.0194 H         1 RES1    0.0000
     34 H14        8.8941    2.1151    5.8098 H         1 RES1    0.0000
     35 H15        4.2899    1.7929    3.4842 H         1 RES1    0.0000
     36 H16        4.8713    0.7601    4.5336 H         1 RES1    0.0000
     37 H17        6.4427    1.9003    3.0014 H         1 RES1    0.0000
@<TRIPOS>BOND
     1    1    7 2
     2    2    7 2
     3    3   10 1
     4    4   10 1
     5    5   16 1
     6    6   19 1
     7    7    8 1
     8    8   14 ar
     9    9   10 1
    10   10   27 1
    11   11    3 1
    12   12    9 ar
    13   13    9 ar
    14   14   12 ar
    15   15    8 ar
    16   16   17 1
    17   17    4 1
    18   18    5 1
    19   19   11 1
    20   20    6 1
    21   21   16 1
    22   22   16 1
    23   23   17 1
    24   24   11 1
    25   25   11 1
    26   26   15 1
    27   28   12 1
    28   29   14 1
    29   30   17 1
    30   31   19 1
    31   32   13 1
    32   33   20 1
    33   34   19 1
    34   35   18 1
    35   36   18 1
    36   37   20 1
    37   13   15 ar
    38   18   20 1
@<TRIPOS>SUBSTRUCTURE
     1 RES1 1

@<TRIPOS>CRYSIN
  15.7140    8.2622   20.9890  90.0000  90.0000  90.0000  61 1

