# MOL2 file generated by ConQuest
# Please check atom types

@<TRIPOS>MOLECULE
COBWAR
    78    84     2
SMALL
NO_CHARGES
****
Generated from CSD

@<TRIPOS>ATOM
      1 C1         5.1802    1.0965   11.4930 C.2       1 RES1    0.0000
      2 N1         4.9832    2.1056   12.3793 N.3       1 RES1    0.0000
      3 C2         4.3392    1.5329   13.5691 C.3       1 RES1    0.0000
      4 O1         4.6036    0.1156   13.3459 O.3       1 RES1    0.0000
      5 N2         4.9799   -0.0873   11.9750 N.2       1 RES1    0.0000
      6 C3         5.6055    1.3043   10.1028 C.ar      1 RES1    0.0000
      7 C4         6.4193    0.3557    9.4922 C.ar      1 RES1    0.0000
      8 H1         6.7653   -0.4168   10.0130 H         1 RES1    0.0000
      9 C5         6.7803    0.5188    8.1667 C.ar      1 RES1    0.0000
     10 H2         7.3328   -0.2242    7.7502 H         1 RES1    0.0000
     11 C6         6.3485    1.6158    7.4466 C.ar      1 RES1    0.0000
     12 H3         6.6301    1.7358    6.5051 H         1 RES1    0.0000
     13 C7         5.5591    2.5508    8.0541 C.ar      1 RES1    0.0000
     14 H4         5.3090    3.3188    7.5508 H         1 RES1    0.0000
     15 C8         5.1834    2.4057    9.3778 C.ar      1 RES1    0.0000
     16 H5         4.6160    3.0777    9.8171 H         1 RES1    0.0000
     17 C9         4.9976    1.9076   14.8781 C.ar      1 RES1    0.0000
     18 C10        5.8269    3.0068   15.0096 C.ar      1 RES1    0.0000
     19 H6         6.0045    3.5228   14.1783 H         1 RES1    0.0000
     20 C11        6.3568    3.3205   16.2575 C.ar      1 RES1    0.0000
     21 H7         6.9180    4.1371   16.3607 H         1 RES1    0.0000
     22 C12        6.0898    2.5344   17.3515 C.ar      1 RES1    0.0000
     23 H8         6.5260    2.7640   18.2457 H         1 RES1    0.0000
     24 C13        5.2796    1.4401   17.2158 C.ar      1 RES1    0.0000
     25 H9         4.9742    0.9552   17.9729 H         1 RES1    0.0000
     26 C14        4.7217    1.1275   15.9924 C.ar      1 RES1    0.0000
     27 H10        4.1246    0.4009   15.9025 H         1 RES1    0.0000
     28 C15        2.8419    1.7892   13.5946 C.ar      1 RES1    0.0000
     29 C16        2.3424    2.9621   14.1377 C.ar      1 RES1    0.0000
     30 H11        2.9833    3.6363   14.5280 H         1 RES1    0.0000
     31 C17        0.9715    3.1961   14.1419 C.ar      1 RES1    0.0000
     32 H12        0.6229    4.0242   14.5385 H         1 RES1    0.0000
     33 C18        0.0974    2.2720   13.6187 C.ar      1 RES1    0.0000
     34 H13       -0.8372    2.3964   13.6712 H         1 RES1    0.0000
     35 C19        0.5897    1.1314   13.0532 C.ar      1 RES1    0.0000
     36 H14       -0.0236    0.4457   12.6640 H         1 RES1    0.0000
     37 C20        1.9508    0.8788   13.0490 C.ar      1 RES1    0.0000
     38 H15        2.3215    0.0638   12.7094 H         1 RES1    0.0000
     39 C21        2.7378   -1.2312    6.0578 C.2       2 RES2    0.0000
     40 N3         2.8696   -2.2316    5.1282 N.3       2 RES2    0.0000
     41 C22        3.5761   -1.6458    3.9866 C.3       2 RES2    0.0000
     42 O2         3.3421   -0.2297    4.2311 O.3       2 RES2    0.0000
     43 N4         2.9730   -0.0458    5.6087 N.2       2 RES2    0.0000
     44 C23        2.3024   -1.4592    7.4431 C.ar      2 RES2    0.0000
     45 C24        2.6290   -0.5177    8.4192 C.ar      2 RES2    0.0000
     46 H16        3.1672    0.2837    8.1139 H         2 RES2    0.0000
     47 C25        2.2194   -0.7135    9.7139 C.ar      2 RES2    0.0000
     48 H17        2.4743    0.0136   10.3627 H         2 RES2    0.0000
     49 C26        1.4932   -1.8280   10.0682 C.ar      2 RES2    0.0000
     50 H18        1.1503   -1.9856   10.9607 H         2 RES2    0.0000
     51 C27        1.1686   -2.7684    9.1061 C.ar      2 RES2    0.0000
     52 H19        0.6747   -3.5332    9.3904 H         2 RES2    0.0000
     53 C28        1.5800   -2.5857    7.7935 C.ar      2 RES2    0.0000
     54 H20        1.3727   -3.2332    7.1171 H         2 RES2    0.0000
     55 C29        2.9554   -1.9791    2.6437 C.ar      2 RES2    0.0000
     56 C30        2.1376   -3.0668    2.4625 C.ar      2 RES2    0.0000
     57 H21        1.9379   -3.6188    3.2316 H         2 RES2    0.0000
     58 C31        1.6143   -3.3516    1.2094 C.ar      2 RES2    0.0000
     59 H22        1.0100   -4.2189    1.0352 H         2 RES2    0.0000
     60 C32        1.8876   -2.5311    0.1364 C.ar      2 RES2    0.0000
     61 H23        1.5429   -2.7444   -0.7764 H         2 RES2    0.0000
     62 C33        2.7053   -1.4368    0.3218 C.ar      2 RES2    0.0000
     63 H24        2.9536   -0.8881   -0.4197 H         2 RES2    0.0000
     64 C34        3.2467   -1.1608    1.5637 C.ar      2 RES2    0.0000
     65 H25        3.8352   -0.4173    1.6962 H         2 RES2    0.0000
     66 C35        5.0715   -1.9289    4.0115 C.ar      2 RES2    0.0000
     67 C36        5.5819   -3.0913    3.4351 C.ar      2 RES2    0.0000
     68 H26        4.9785   -3.7541    3.0357 H         2 RES2    0.0000
     69 C37        6.9395   -3.3456    3.4481 C.ar      2 RES2    0.0000
     70 H27        7.2503   -4.1529    2.9343 H         2 RES2    0.0000
     71 C38        7.8114   -2.4466    4.0185 C.ar      2 RES2    0.0000
     72 H28        8.7393   -2.6146    3.9870 H         2 RES2    0.0000
     73 C39        7.3236   -1.3136    4.6200 C.ar      2 RES2    0.0000
     74 H29        7.9478   -0.6753    5.0467 H         2 RES2    0.0000
     75 C40        5.9560   -1.0506    4.6204 C.ar      2 RES2    0.0000
     76 H30        5.6143   -0.1915    4.9872 H         2 RES2    0.0000
     77 H31        3.1350   -3.0603    5.4174 H         2 RES2    0.0000
     78 H32        4.8173    2.9370   12.1219 H         1 RES1    0.0000
@<TRIPOS>BOND
     1    1    2 1
     2    2    3 1
     3    3    4 1
     4    4    5 1
     5    5    1 2
     6    6    1 1
     7    7    6 ar
     8    8    7 1
     9    9    7 ar
    10   10    9 1
    11   11    9 ar
    12   12   11 1
    13   13   11 ar
    14   14   13 1
    15   15    6 ar
    16   16   15 1
    17   17    3 1
    18   18   17 ar
    19   19   18 1
    20   20   18 ar
    21   21   20 1
    22   22   20 ar
    23   23   22 1
    24   24   22 ar
    25   25   24 1
    26   26   17 ar
    27   27   26 1
    28   28    3 1
    29   29   28 ar
    30   30   29 1
    31   31   29 ar
    32   32   31 1
    33   33   31 ar
    34   34   33 1
    35   35   33 ar
    36   36   35 1
    37   37   28 ar
    38   38   37 1
    39   39   40 1
    40   40   41 1
    41   41   42 1
    42   42   43 1
    43   43   39 2
    44   44   39 1
    45   45   44 ar
    46   46   45 1
    47   47   45 ar
    48   48   47 1
    49   49   47 ar
    50   50   49 1
    51   51   49 ar
    52   52   51 1
    53   53   44 ar
    54   54   53 1
    55   55   41 1
    56   56   55 ar
    57   57   56 1
    58   58   56 ar
    59   59   58 1
    60   60   58 ar
    61   61   60 1
    62   62   60 ar
    63   63   62 1
    64   64   55 ar
    65   65   64 1
    66   66   41 1
    67   67   66 ar
    68   68   67 1
    69   69   67 ar
    70   70   69 1
    71   71   69 ar
    72   72   71 1
    73   73   71 ar
    74   74   73 1
    75   75   66 ar
    76   76   75 1
    77   77   40 1
    78   78    2 1
    79   13   15 ar
    80   24   26 ar
    81   35   37 ar
    82   51   53 ar
    83   62   64 ar
    84   73   75 ar
@<TRIPOS>SUBSTRUCTURE
     1 RES1 1
     2 RES2 39

@<TRIPOS>CRYSIN
  16.3000    5.4550   34.9760  90.0000  90.6670  90.0000  14 1

