# MOL2 file generated by ConQuest
# Please check atom types

@<TRIPOS>MOLECULE
COCGUW
    57    61     1
SMALL
NO_CHARGES
****
Generated from CSD

@<TRIPOS>ATOM
      1 N1         0.6384   10.6081    1.8461 N.pl3     1 RES1    0.0000
      2 N2         2.0281   14.8240   -0.1145 N.pl3     1 RES1    0.0000
      3 N3         4.3212   10.8115   -1.5157 N.pl3     1 RES1    0.0000
      4 O1         0.7186    9.3783    1.9000 O.2       1 RES1    0.0000
      5 O2        -0.1362   11.2609    2.5413 O.2       1 RES1    0.0000
      6 O3         1.1632   15.3816    0.5693 O.2       1 RES1    0.0000
      7 O4         2.8110   15.4395   -0.8535 O.2       1 RES1    0.0000
      8 O5         5.1245   11.5494   -2.0966 O.2       1 RES1    0.0000
      9 O6         4.3671    9.5740   -1.5858 O.2       1 RES1    0.0000
     10 O7         1.7775    9.4697   -0.6739 O.3       1 RES1    0.0000
     11 O8         3.3121    9.7389    1.0080 O.3       1 RES1    0.0000
     12 C1         2.4508   10.5179    0.1105 C.3       1 RES1    0.0000
     13 C2         1.4820   11.3215    0.9139 C.2       1 RES1    0.0000
     14 C3         1.3639   12.6813    0.8330 C.2       1 RES1    0.0000
     15 H1         0.7346   13.1345    1.3817 H         1 RES1    0.0000
     16 C4         2.1574   13.3998   -0.0454 C.2       1 RES1    0.0000
     17 C5         3.1202   12.7611   -0.8093 C.2       1 RES1    0.0000
     18 H2         3.6773   13.2710   -1.3856 H         1 RES1    0.0000
     19 C6         3.2729   11.4193   -0.7422 C.2       1 RES1    0.0000
     20 C7         2.1739    8.2542   -0.2329 C.ar      1 RES1    0.0000
     21 C8         1.6533    7.0991   -0.8152 C.ar      1 RES1    0.0000
     22 C9         1.9816    5.8294   -0.3731 C.ar      1 RES1    0.0000
     23 H3         1.5487    5.1212   -0.8349 H         1 RES1    0.0000
     24 C10        2.8350    5.4277    0.6316 C.ar      1 RES1    0.0000
     25 H4         2.9059    4.4851    0.7303 H         1 RES1    0.0000
     26 C11        3.6117    6.1578    1.5277 C.ar      1 RES1    0.0000
     27 H5         4.1193    5.6414    2.1436 H         1 RES1    0.0000
     28 C12        3.7488    7.5369    1.6481 C.ar      1 RES1    0.0000
     29 C13        3.0953    8.4267    0.8270 C.ar      1 RES1    0.0000
     30 C14        0.7236    7.2240   -2.0113 C.3       1 RES1    0.0000
     31 H6        -0.0282    6.5866   -1.9166 H         1 RES1    0.0000
     32 H7         0.3505    8.1396   -2.0488 H         1 RES1    0.0000
     33 C15        1.4784    6.9304   -3.2884 C.ar      1 RES1    0.0000
     34 C16        2.3749    7.8730   -3.7917 C.ar      1 RES1    0.0000
     35 H8         2.4783    8.7100   -3.3535 H         1 RES1    0.0000
     36 C17        3.1157    7.5949   -4.9326 C.ar      1 RES1    0.0000
     37 H9         3.7224    8.2387   -5.2760 H         1 RES1    0.0000
     38 C18        2.9676    6.3806   -5.5603 C.ar      1 RES1    0.0000
     39 H10        3.4796    6.1835   -6.3340 H         1 RES1    0.0000
     40 C19        2.0845    5.4495   -5.0727 C.ar      1 RES1    0.0000
     41 H11        1.9821    4.6125   -5.5109 H         1 RES1    0.0000
     42 C20        1.3350    5.7393   -3.9279 C.ar      1 RES1    0.0000
     43 H12        0.7189    5.0967   -3.5943 H         1 RES1    0.0000
     44 C21        4.5815    8.1074    2.7673 C.3       1 RES1    0.0000
     45 H13        5.1565    8.8323    2.4140 H         1 RES1    0.0000
     46 H14        5.1693    7.4004    3.1344 H         1 RES1    0.0000
     47 C22        3.6969    8.6546    3.8687 C.ar      1 RES1    0.0000
     48 C23        2.9594    7.7520    4.6444 C.ar      1 RES1    0.0000
     49 H15        3.0609    6.8171    4.5102 H         1 RES1    0.0000
     50 C24        2.0834    8.2220    5.6076 C.ar      1 RES1    0.0000
     51 H16        1.5827    7.6090    6.1327 H         1 RES1    0.0000
     52 C25        1.9386    9.5560    5.8050 C.ar      1 RES1    0.0000
     53 H17        1.3241    9.8715    6.4564 H         1 RES1    0.0000
     54 C26        2.6800   10.4651    5.0609 C.ar      1 RES1    0.0000
     55 H18        2.5853   11.3974    5.2148 H         1 RES1    0.0000
     56 C27        3.5589   10.0041    4.0957 C.ar      1 RES1    0.0000
     57 H19        4.0693   10.6222    3.5884 H         1 RES1    0.0000
@<TRIPOS>BOND
     1    1    4 2
     2    2    6 2
     3    3    8 2
     4    5    1 2
     5    7    2 2
     6    9    3 2
     7   10   12 1
     8   11   12 1
     9   12   13 1
    10   13    1 1
    11   14   13 un
    12   15   14 1
    13   16    2 1
    14   17   16 un
    15   18   17 1
    16   19    3 1
    17   20   10 1
    18   21   20 ar
    19   22   21 ar
    20   23   22 1
    21   24   22 ar
    22   25   24 1
    23   26   24 ar
    24   27   26 1
    25   28   26 ar
    26   29   11 1
    27   30   21 1
    28   31   30 1
    29   32   30 1
    30   33   30 1
    31   34   33 ar
    32   35   34 1
    33   36   34 ar
    34   37   36 1
    35   38   36 ar
    36   39   38 1
    37   40   38 ar
    38   41   40 1
    39   42   33 ar
    40   43   42 1
    41   44   28 1
    42   45   44 1
    43   46   44 1
    44   47   44 1
    45   48   47 ar
    46   49   48 1
    47   50   48 ar
    48   51   50 1
    49   52   50 ar
    50   53   52 1
    51   54   52 ar
    52   55   54 1
    53   56   47 ar
    54   57   56 1
    55   12   19 1
    56   14   16 un
    57   17   19 un
    58   20   29 ar
    59   28   29 ar
    60   40   42 ar
    61   54   56 ar
@<TRIPOS>SUBSTRUCTURE
     1 RES1 1

@<TRIPOS>CRYSIN
   9.3110   12.8770   19.8060  90.0000  94.7400  90.0000 231 1

