# MOL2 file generated by ConQuest
# Please check atom types

@<TRIPOS>MOLECULE
COCHAE
    94    96     2
SMALL
NO_CHARGES
****
Generated from CSD

@<TRIPOS>ATOM
      1 C1         2.5765    3.2837    8.5453 C.3       1 RES1    0.0000
      2 H1         1.7797    3.7019    8.2111 H         1 RES1    0.0000
      3 H2         3.0174    3.8790    9.1574 H         1 RES1    0.0000
      4 H3         2.3440    2.4714    9.0044 H         1 RES1    0.0000
      5 C2         4.6611    5.7247   31.2334 C.3       2 RES2    0.0000
      6 H4         4.5323    4.7741   31.1972 H         2 RES2    0.0000
      7 H5         5.5491    5.9396   30.9354 H         2 RES2    0.0000
      8 H6         4.0208    6.1555   30.6616 H         2 RES2    0.0000
      9 C3         4.9383    1.1288    8.2231 C.3       1 RES1    0.0000
     10 H7         4.1245    0.9674    8.7064 H         1 RES1    0.0000
     11 H8         5.6895    0.9643    8.7950 H         1 RES1    0.0000
     12 H9         4.9813    0.5429    7.4620 H         1 RES1    0.0000
     13 C4         5.8040    8.3596   32.3086 C.3       2 RES2    0.0000
     14 H10        6.5660    7.8220   32.5422 H         2 RES2    0.0000
     15 H11        5.9221    9.2474   32.6549 H         2 RES2    0.0000
     16 H12        5.7164    8.3963   31.3542 H         2 RES2    0.0000
     17 O1         5.2504   10.2892   37.1209 O.3       2 RES2    0.0000
     18 O2         4.5913    9.7306   39.2113 O.2       2 RES2    0.0000
     19 C5         6.0991   13.4136   40.5523 C.ar      2 RES2    0.0000
     20 O3         5.3291   13.1285   42.7357 O.2       2 RES2    0.0000
     21 C6         5.1181   10.5051   38.4212 C.2       2 RES2    0.0000
     22 O4         7.3520    1.0995    4.5396 O.3       1 RES1    0.0000
     23 C7         5.5921   12.2072   40.1633 C.ar      2 RES2    0.0000
     24 H13        5.1699   11.6591   40.7855 H         2 RES2    0.0000
     25 N1         7.4620   14.7426   37.3742 N.pl3     2 RES2    0.0000
     26 C8         6.3138   12.6485   37.9295 C.ar      2 RES2    0.0000
     27 H14        6.3781   12.3927   37.0363 H         2 RES2    0.0000
     28 C9         6.7323   14.2646   39.6285 C.ar      2 RES2    0.0000
     29 H15        7.0802   15.0843   39.8955 H         2 RES2    0.0000
     30 C10        6.9362   -0.5167    2.9075 C.ar      1 RES1    0.0000
     31 O5         6.5436   14.8505   42.3056 O.2       2 RES2    0.0000
     32 O6         8.0111   15.7519   37.8188 O.2       2 RES2    0.0000
     33 C11        7.6042    0.7630    3.2699 C.2       1 RES1    0.0000
     34 C12        7.0998   -1.0837    1.6470 C.ar      1 RES1    0.0000
     35 H16        7.6776   -0.6739    1.0470 H         1 RES1    0.0000
     36 C13        5.7021   11.8100   38.8730 C.ar      2 RES2    0.0000
     37 C14        5.6404   -2.8749    2.1101 C.ar      1 RES1    0.0000
     38 H17        5.2021   -3.6474    1.8363 H         1 RES1    0.0000
     39 C15        6.8190   13.8601   38.3519 C.ar      2 RES2    0.0000
     40 C16        4.5851    7.7392   34.4715 C.3       2 RES2    0.0000
     41 H18        3.6899    7.5117   34.8013 H         2 RES2    0.0000
     42 C17        6.4533   -2.2010    1.2725 C.ar      1 RES1    0.0000
     43 N2         5.9686   13.8318   41.9541 N.pl3     2 RES2    0.0000
     44 O7         8.1998    1.4348    2.5052 O.2       1 RES1    0.0000
     45 N3         4.5842   -3.0762    4.3210 N.pl3     1 RES1    0.0000
     46 C18        5.4803   -2.3865    3.3787 C.ar      1 RES1    0.0000
     47 O8         5.9686   -3.6359   -0.4712 O.2       1 RES1    0.0000
     48 O9         7.3386   -2.0448   -0.9109 O.2       1 RES1    0.0000
     49 O10        4.5574   -2.6706    5.4807 O.2       1 RES1    0.0000
     50 N4         6.6348   -2.6265   -0.1611 N.pl3     1 RES1    0.0000
     51 O11        7.3637   14.4879   36.1866 O.2       2 RES2    0.0000
     52 C19        4.7765    9.0367   36.6010 C.3       2 RES2    0.0000
     53 H19        3.8365    8.9225   36.8108 H         2 RES2    0.0000
     54 H20        5.2710    8.3020   37.0001 H         2 RES2    0.0000
     55 C20        4.4733    6.2006   32.6388 C.3       2 RES2    0.0000
     56 H21        3.6112    5.8631   32.9610 H         2 RES2    0.0000
     57 C21        4.5269    7.7339   32.9207 C.3       2 RES2    0.0000
     58 C22        4.9750    9.0430   35.0973 C.3       2 RES2    0.0000
     59 H22        4.4429    9.7547   34.7087 H         2 RES2    0.0000
     60 H23        5.9069    9.2254   34.8980 H         2 RES2    0.0000
     61 C23        5.6985    2.7146    6.4029 C.3       1 RES1    0.0000
     62 H24        5.3738    1.9903    5.8271 H         1 RES1    0.0000
     63 O12        3.9457   -4.0090    3.8418 O.2       1 RES1    0.0000
     64 C24        6.0795   -1.2472    3.8015 C.ar      1 RES1    0.0000
     65 H25        5.9364   -0.9391    4.6673 H         1 RES1    0.0000
     66 C25        7.8046    2.3823    5.0056 C.3       1 RES1    0.0000
     67 H26        7.5094    3.0814    4.4015 H         1 RES1    0.0000
     68 H27        8.7731    2.4001    5.0458 H         1 RES1    0.0000
     69 C26        7.2116    2.6066    6.4070 C.3       1 RES1    0.0000
     70 H28        7.4737    1.8709    6.9788 H         1 RES1    0.0000
     71 H29        7.5846    3.4210    6.7774 H         1 RES1    0.0000
     72 C27        3.2052    8.3712   32.4576 C.3       2 RES2    0.0000
     73 H30        3.3894    9.0493   31.8012 H         2 RES2    0.0000
     74 H31        2.7589    8.7663   33.2107 H         2 RES2    0.0000
     75 H32        2.6436    7.6962   32.0710 H         2 RES2    0.0000
     76 C28        4.9678    2.5542    7.7560 C.3       1 RES1    0.0000
     77 C29        5.5992    5.6891   33.6295 C.3       2 RES2    0.0000
     78 H33        5.4409    4.7647   33.8751 H         2 RES2    0.0000
     79 H34        6.4738    5.7551   33.2147 H         2 RES2    0.0000
     80 C30        5.5134    6.5915   34.8456 C.3       2 RES2    0.0000
     81 H35        6.3916    6.9300   35.0792 H         2 RES2    0.0000
     82 H36        5.1583    6.1031   35.6027 H         2 RES2    0.0000
     83 C31        3.5352    2.9546    7.3493 C.3       1 RES1    0.0000
     84 H37        3.1426    2.2314    6.8177 H         1 RES1    0.0000
     85 C32        3.7060    4.1934    6.4593 C.3       1 RES1    0.0000
     86 H38        3.6639    5.0078    6.9828 H         1 RES1    0.0000
     87 H39        3.0192    4.2228    5.7747 H         1 RES1    0.0000
     88 C33        5.5545    3.4231    8.7829 C.3       1 RES1    0.0000
     89 H40        6.0848    4.1023    8.3601 H         1 RES1    0.0000
     90 H41        6.1081    2.9001    9.3628 H         1 RES1    0.0000
     91 H42        4.8525    3.8350    9.2903 H         1 RES1    0.0000
     92 C34        5.1512    4.0069    5.8069 C.3       1 RES1    0.0000
     93 H43        5.0868    3.9398    4.8445 H         1 RES1    0.0000
     94 H44        5.7253    4.7563    6.0324 H         1 RES1    0.0000
@<TRIPOS>BOND
     1    1    2 1
     2    3    1 1
     3    4    1 1
     4    5    6 1
     5    7    5 1
     6    8    5 1
     7    9   10 1
     8   11    9 1
     9   12    9 1
    10   13   14 1
    11   15   13 1
    12   16   13 1
    13   17   21 1
    14   18   21 2
    15   19   23 ar
    16   20   43 2
    17   21   36 1
    18   22   33 1
    19   23   24 1
    20   25   32 2
    21   26   27 1
    22   28   19 ar
    23   29   28 1
    24   30   33 1
    25   31   43 2
    26   33   44 2
    27   34   30 ar
    28   35   34 1
    29   36   23 ar
    30   37   38 1
    31   39   25 1
    32   40   41 1
    33   42   34 ar
    34   43   19 1
    35   45   46 1
    36   46   37 ar
    37   47   50 2
    38   48   50 2
    39   49   45 2
    40   50   42 1
    41   51   25 2
    42   52   17 1
    43   53   52 1
    44   54   52 1
    45   55    5 1
    46   56   55 1
    47   57   13 1
    48   58   40 1
    49   59   58 1
    50   60   58 1
    51   61   62 1
    52   63   45 2
    53   64   30 ar
    54   65   64 1
    55   66   22 1
    56   67   66 1
    57   68   66 1
    58   69   61 1
    59   70   69 1
    60   71   69 1
    61   72   57 1
    62   73   72 1
    63   74   72 1
    64   75   72 1
    65   76    9 1
    66   77   55 1
    67   78   77 1
    68   79   77 1
    69   80   40 1
    70   81   80 1
    71   82   80 1
    72   83    1 1
    73   84   83 1
    74   85   83 1
    75   86   85 1
    76   87   85 1
    77   88   76 1
    78   89   88 1
    79   90   88 1
    80   91   88 1
    81   92   61 1
    82   93   92 1
    83   94   92 1
    84   26   36 ar
    85   26   39 ar
    86   28   39 ar
    87   37   42 ar
    88   40   57 1
    89   46   64 ar
    90   52   58 1
    91   55   57 1
    92   61   76 1
    93   66   69 1
    94   76   83 1
    95   77   80 1
    96   85   92 1
@<TRIPOS>SUBSTRUCTURE
     1 RES1 1
     2 RES2 5

@<TRIPOS>CRYSIN
   8.9430   10.4810   40.2700  90.0000  90.0000  90.0000  19 1

