# MOL2 file generated by ConQuest
# Please check atom types

@<TRIPOS>MOLECULE
COCRAP
   106   108     1
SMALL
NO_CHARGES
****
Generated from CSD

@<TRIPOS>ATOM
      1 O1        -8.0601    7.8221    9.8051 O.3       1 RES1    0.0000
      2 O2        -9.0931   10.4271    9.9638 O.3       1 RES1    0.0000
      3 O3        -9.8463   10.6768   12.0766 O.2       1 RES1    0.0000
      4 O4        -5.4262    8.4253   10.3458 O.3       1 RES1    0.0000
      5 O5        -3.7136    8.9743   11.7152 O.2       1 RES1    0.0000
      6 O6        -5.0647    6.3293   12.2689 O.3       1 RES1    0.0000
      7 O7        -5.4339    7.3284   14.2475 O.2       1 RES1    0.0000
      8 O8        -6.8651    4.5962   11.0570 O.3       1 RES1    0.0000
      9 O9        -5.4765    4.0118    9.3921 O.2       1 RES1    0.0000
     10 O10       -8.1390    3.4085    7.3167 O.2       1 RES1    0.0000
     11 O11       -6.8944    4.7623    6.0054 O.3       1 RES1    0.0000
     12 O12      -15.1011    4.9414    5.5059 O.2       1 RES1    0.0000
     13 O13      -14.4975    2.9396    6.1370 O.2       1 RES1    0.0000
     14 N1        -8.6271    5.6212    9.0668 N.3       1 RES1    0.0000
     15 N2       -14.3049    4.1461    6.0377 N.pl3     1 RES1    0.0000
     16 C1        -8.1485    6.4424   10.1768 C.3       1 RES1    0.0000
     17 H1        -8.7998    6.3611   10.9318 H         1 RES1    0.0000
     18 C2        -6.7728    5.9747   10.6711 C.3       1 RES1    0.0000
     19 H2        -6.1045    6.0701    9.9354 H         1 RES1    0.0000
     20 C3        -6.3549    6.8076   11.8378 C.3       1 RES1    0.0000
     21 H3        -7.0140    6.6780   12.5800 H         1 RES1    0.0000
     22 C4        -6.3296    8.2710   11.4558 C.3       1 RES1    0.0000
     23 H4        -6.0641    8.8483   12.2289 H         1 RES1    0.0000
     24 C5        -7.7275    8.6421   10.9292 C.3       1 RES1    0.0000
     25 H5        -8.4018    8.4948   11.6533 H         1 RES1    0.0000
     26 C6        -7.7813   10.0901   10.4865 C.3       1 RES1    0.0000
     27 H6        -7.5723   10.6780   11.2557 H         1 RES1    0.0000
     28 H7        -7.0994   10.2468    9.7883 H         1 RES1    0.0000
     29 C7       -10.0559   10.6910   10.8905 C.2       1 RES1    0.0000
     30 C8       -11.3858   11.0374   10.2245 C.3       1 RES1    0.0000
     31 C9       -12.4881   10.9690   11.2725 C.3       1 RES1    0.0000
     32 H8       -12.5501   10.0548   11.6197 H         1 RES1    0.0000
     33 H9       -13.3425   11.2235   10.8647 H         1 RES1    0.0000
     34 H10      -12.2809   11.5841   12.0069 H         1 RES1    0.0000
     35 C10      -11.6641   10.0665    9.0578 C.3       1 RES1    0.0000
     36 H11      -11.7183    9.1511    9.4011 H         1 RES1    0.0000
     37 H12      -10.9372   10.1266    8.4021 H         1 RES1    0.0000
     38 H13      -12.5132   10.3069    8.6293 H         1 RES1    0.0000
     39 C11      -11.2698   12.4913    9.6889 C.3       1 RES1    0.0000
     40 H14      -11.0853   13.1004   10.4336 H         1 RES1    0.0000
     41 H15      -12.1111   12.7493    9.2565 H         1 RES1    0.0000
     42 H16      -10.5373   12.5419    9.0371 H         1 RES1    0.0000
     43 C12       -4.1150    8.7045   10.6104 C.2       1 RES1    0.0000
     44 C13       -3.2987    8.6633    9.3353 C.3       1 RES1    0.0000
     45 C14       -3.8612    7.7054    8.2976 C.3       1 RES1    0.0000
     46 H17       -3.8493    6.7935    8.6551 H         1 RES1    0.0000
     47 H18       -3.3130    7.7455    7.4858 H         1 RES1    0.0000
     48 H19       -4.7809    7.9599    8.0833 H         1 RES1    0.0000
     49 C15       -1.8661    8.2568    9.6992 C.3       1 RES1    0.0000
     50 H20       -1.8631    7.3378   10.0412 H         1 RES1    0.0000
     51 H21       -1.5182    8.8624   10.3859 H         1 RES1    0.0000
     52 H22       -1.2967    8.3087    8.9003 H         1 RES1    0.0000
     53 C16       -3.3000   10.1148    8.7984 C.3       1 RES1    0.0000
     54 H23       -2.9327   10.7157    9.4798 H         1 RES1    0.0000
     55 H24       -4.2203   10.3835    8.5893 H         1 RES1    0.0000
     56 H25       -2.7553   10.1643    7.9878 H         1 RES1    0.0000
     57 C17       -4.7282    6.6639   13.5415 C.2       1 RES1    0.0000
     58 C18       -3.3942    6.0760   13.9545 C.3       1 RES1    0.0000
     59 C19       -2.3838    7.2931   14.1068 C.3       1 RES1    0.0000
     60 H26       -2.4231    7.8574   13.2988 H         1 RES1    0.0000
     61 H27       -1.4697    6.9549   14.2126 H         1 RES1    0.0000
     62 H28       -2.6242    7.8327   14.8863 H         1 RES1    0.0000
     63 C20       -2.8594    5.0663   12.9839 C.3       1 RES1    0.0000
     64 H29       -2.2652    5.5116   12.3386 H         1 RES1    0.0000
     65 H30       -3.6005    4.6456   12.4999 H         1 RES1    0.0000
     66 H31       -2.3529    4.3782   13.4653 H         1 RES1    0.0000
     67 C21       -3.4976    5.4904   15.3187 C.3       1 RES1    0.0000
     68 H32       -3.0720    6.0842   15.9679 H         1 RES1    0.0000
     69 H33       -3.0478    4.6150   15.3329 H         1 RES1    0.0000
     70 H34       -4.4419    5.3691   15.5523 H         1 RES1    0.0000
     71 C22       -6.1563    3.6960   10.3252 C.2       1 RES1    0.0000
     72 C23       -6.3609    2.2739   10.8569 C.3       1 RES1    0.0000
     73 C24       -6.0041    2.2292   12.3360 C.3       1 RES1    0.0000
     74 H35       -5.0538    2.4412   12.4483 H         1 RES1    0.0000
     75 H36       -6.1812    1.3314   12.6871 H         1 RES1    0.0000
     76 H37       -6.5446    2.8842   12.8226 H         1 RES1    0.0000
     77 C25       -5.5042    1.3172   10.0619 C.3       1 RES1    0.0000
     78 H38       -4.5584    1.5269   10.2103 H         1 RES1    0.0000
     79 H39       -5.7135    1.4056    9.1094 H         1 RES1    0.0000
     80 H40       -5.6853    0.3994   10.3523 H         1 RES1    0.0000
     81 C26       -7.8620    1.9535   10.6414 C.3       1 RES1    0.0000
     82 H41       -8.0680    1.9912    9.6837 H         1 RES1    0.0000
     83 H42       -8.4091    2.6097   11.1215 H         1 RES1    0.0000
     84 H43       -8.0540    1.0545   10.9821 H         1 RES1    0.0000
     85 C27       -7.9744    5.7873    7.7749 C.3       1 RES1    0.0000
     86 H44       -7.2521    6.4777    7.7323 H         1 RES1    0.0000
     87 C28       -7.7038    4.4972    7.0444 C.2       1 RES1    0.0000
     88 C29       -6.5017    3.5735    5.2310 C.3       1 RES1    0.0000
     89 H45       -5.8599    3.0456    5.7692 H         1 RES1    0.0000
     90 H46       -7.3049    3.0127    5.0903 H         1 RES1    0.0000
     91 C30       -5.9324    3.8409    4.0062 C.3       1 RES1    0.0000
     92 H47       -5.7180    2.9903    3.5596 H         1 RES1    0.0000
     93 H48       -5.1147    4.3570    4.1327 H         1 RES1    0.0000
     94 H49       -6.5632    4.3452    3.4551 H         1 RES1    0.0000
     95 C31       -9.3871    6.3081    8.0149 C.3       1 RES1    0.0000
     96 H50       -9.4355    7.2989    8.1362 H         1 RES1    0.0000
     97 C32      -10.6524    5.6990    7.5284 C.ar      1 RES1    0.0000
     98 C33      -10.9898    4.3546    7.7361 C.ar      1 RES1    0.0000
     99 H51      -10.3949    3.7879    8.2137 H         1 RES1    0.0000
    100 C34      -12.1853    3.8433    7.2496 C.ar      1 RES1    0.0000
    101 H52      -12.4141    2.9314    7.3761 H         1 RES1    0.0000
    102 C35      -13.0329    4.7116    6.5681 C.ar      1 RES1    0.0000
    103 C36      -12.7662    6.0406    6.3784 C.ar      1 RES1    0.0000
    104 H53      -13.3812    6.6073    5.9279 H         1 RES1    0.0000
    105 C37      -11.5589    6.5308    6.8675 C.ar      1 RES1    0.0000
    106 H54      -11.3466    7.4498    6.7501 H         1 RES1    0.0000
@<TRIPOS>BOND
     1    1   16 1
     2    2   26 1
     3    3   29 2
     4    4   22 1
     5    5   43 2
     6    6   20 1
     7    7   57 2
     8    8   18 1
     9    9   71 2
    10   10   87 2
    11   11   87 1
    12   12   15 2
    13   13   15 2
    14   14   16 1
    15   15  102 1
    16   16   17 1
    17   18   16 1
    18   19   18 1
    19   20   18 1
    20   21   20 1
    21   22   20 1
    22   23   22 1
    23   24    1 1
    24   25   24 1
    25   26   24 1
    26   27   26 1
    27   28   26 1
    28   29    2 1
    29   30   29 1
    30   31   30 1
    31   32   31 1
    32   33   31 1
    33   34   31 1
    34   35   30 1
    35   36   35 1
    36   37   35 1
    37   38   35 1
    38   39   30 1
    39   40   39 1
    40   41   39 1
    41   42   39 1
    42   43    4 1
    43   44   43 1
    44   45   44 1
    45   46   45 1
    46   47   45 1
    47   48   45 1
    48   49   44 1
    49   50   49 1
    50   51   49 1
    51   52   49 1
    52   53   44 1
    53   54   53 1
    54   55   53 1
    55   56   53 1
    56   57    6 1
    57   58   57 1
    58   59   58 1
    59   60   59 1
    60   61   59 1
    61   62   59 1
    62   63   58 1
    63   64   63 1
    64   65   63 1
    65   66   63 1
    66   67   58 1
    67   68   67 1
    68   69   67 1
    69   70   67 1
    70   71    8 1
    71   72   71 1
    72   73   72 1
    73   74   73 1
    74   75   73 1
    75   76   73 1
    76   77   72 1
    77   78   77 1
    78   79   77 1
    79   80   77 1
    80   81   72 1
    81   82   81 1
    82   83   81 1
    83   84   81 1
    84   85   14 1
    85   86   85 1
    86   87   85 1
    87   88   11 1
    88   89   88 1
    89   90   88 1
    90   91   88 1
    91   92   91 1
    92   93   91 1
    93   94   91 1
    94   95   14 1
    95   96   95 1
    96   97   95 1
    97   98   97 ar
    98   99   98 1
    99  100   98 ar
   100  101  100 1
   101  102  100 ar
   102  103  102 ar
   103  104  103 1
   104  105   97 ar
   105  106  105 1
   106   22   24 1
   107   85   95 1
   108  103  105 ar
@<TRIPOS>SUBSTRUCTURE
     1 RES1 1

@<TRIPOS>CRYSIN
  26.8330   11.7820   15.3390  90.0000 122.7100  90.0000   5 1

