# MOL2 file generated by ConQuest
# Please check atom types

@<TRIPOS>MOLECULE
COCTDX
    78    78     3
SMALL
NO_CHARGES
****
Generated from CSD

@<TRIPOS>ATOM
      1 C1        -6.9830    1.1771    4.2057 C.2       1 RES1    0.0000
      2 C2        -2.9664    1.3471   -1.3049 C.2       2 RES2    0.0000
      3 C3        -6.9723   -0.3041    4.5670 C.3       1 RES1    0.0000
      4 C4        -1.7959    2.2005   -0.9142 C.3       2 RES2    0.0000
      5 C5        -3.6184   -5.1879    4.6135 C.2       3 RES3    0.0000
      6 C6        -4.3614   -4.8392    3.3522 C.3       3 RES3    0.0000
      7 C7        -3.4714   -4.4206    2.1830 C.3       3 RES3    0.0000
      8 C8        -2.5548   -5.5389    1.6643 C.3       3 RES3    0.0000
      9 C9        -1.6355   -6.0838    2.6989 C.2       3 RES3    0.0000
     10 C10       -0.7055   -5.1585    3.4471 C.3       3 RES3    0.0000
     11 C11       -1.0903   -4.8958    4.8999 C.3       3 RES3    0.0000
     12 C12       -2.5067   -4.2909    5.1132 C.3       3 RES3    0.0000
     13 C13       -6.7291   -1.2011    3.3797 C.3       1 RES1    0.0000
     14 C14       -0.4249    1.5814   -1.2243 C.3       2 RES2    0.0000
     15 C15       -5.3582   -1.0245    2.7235 C.3       1 RES1    0.0000
     16 C16       -0.1523    1.3438   -2.6818 C.3       2 RES2    0.0000
     17 C17       -5.1310    0.3608    2.1545 C.2       1 RES1    0.0000
     18 C18       -1.1224    0.3640   -3.3409 C.2       2 RES2    0.0000
     19 C19       -6.1492    0.9624    1.2072 C.3       1 RES1    0.0000
     20 C20       -1.3549   -0.9558   -2.6827 C.3       2 RES2    0.0000
     21 C21       -7.0070    2.0686    1.8663 C.3       1 RES1    0.0000
     22 C22       -2.7258   -1.0888   -2.0180 C.3       2 RES2    0.0000
     23 C23       -7.8275    1.6621    3.0706 C.3       1 RES1    0.0000
     24 C24       -3.0225   -0.0905   -0.8601 C.3       2 RES2    0.0000
     25 H1        -5.6922    3.6839    5.0734 H         1 RES1    0.0000
     26 H2        -0.6654   -4.2659    2.9502 H         3 RES3    0.0000
     27 H3        -0.6280   -1.1062   -1.9810 H         2 RES2    0.0000
     28 H4        -1.0315   -5.7732    5.4138 H         3 RES3    0.0000
     29 H5        -3.4421   -0.9711   -2.7377 H         2 RES2    0.0000
     30 H6        -0.4009   -4.2659    5.3086 H         3 RES3    0.0000
     31 H7        -2.8194   -2.0381   -1.6614 H         2 RES2    0.0000
     32 H8        -2.6403   -4.1067    6.1061 H         3 RES3    0.0000
     33 H9        -3.9445   -0.2877   -0.4723 H         2 RES2    0.0000
     34 H10       -2.5575   -3.3918    4.6343 H         3 RES3    0.0000
     35 H11       -2.3490   -0.2387   -0.1062 H         2 RES2    0.0000
     36 H12       -5.2379    1.4169   -3.0346 H         2 RES2    0.0000
     37 H13       -3.4741   -7.3568    6.8752 H         3 RES3    0.0000
     38 H14       -2.8327    0.2180   -5.8320 H         2 RES2    0.0000
     39 H15       -1.0690   -8.5012    4.3432 H         3 RES3    0.0000
     40 H16       -3.2871    2.5068    2.5130 H         1 RES1    0.0000
     41 H17       -6.2588   -0.4741    5.2697 H         1 RES1    0.0000
     42 H18       -7.8702   -0.5482    4.9900 H         1 RES1    0.0000
     43 H19       -4.9199   -5.6424    3.0659 H         3 RES3    0.0000
     44 H20       -1.8707    3.0964   -1.3968 H         2 RES2    0.0000
     45 H21       -6.8280   -2.1711    3.6756 H         1 RES1    0.0000
     46 H22       -7.4507   -1.0289    2.6808 H         1 RES1    0.0000
     47 H23       -5.0108   -4.0817    3.5523 H         3 RES3    0.0000
     48 H24       -1.8520    2.3956    0.0835 H         2 RES2    0.0000
     49 H25       -4.6286   -1.2283    3.4072 H         1 RES1    0.0000
     50 H26       -5.2566   -1.7133    1.9734 H         1 RES1    0.0000
     51 H27       -4.0620   -4.0980    1.4149 H         3 RES3    0.0000
     52 H28        0.2993    2.1929   -0.8525 H         2 RES2    0.0000
     53 H29       -2.8969   -3.6283    2.4665 H         3 RES3    0.0000
     54 H30       -0.3447    0.6943   -0.7292 H         2 RES2    0.0000
     55 H31       -5.6682    1.3482    0.3945 H         1 RES1    0.0000
     56 H32       -6.7638    0.2245    0.8601 H         1 RES1    0.0000
     57 H33       -3.1267   -6.2985    1.2963 H         3 RES3    0.0000
     58 H34       -0.1817    2.2332   -3.1778 H         2 RES2    0.0000
     59 H35       -6.3844    2.8294    2.1413 H         1 RES1    0.0000
     60 H36       -7.6377    2.4457    1.1569 H         1 RES1    0.0000
     61 H37       -2.0016   -5.1836    0.8838 H         3 RES3    0.0000
     62 H38        0.8017    0.9864   -2.7852 H         2 RES2    0.0000
     63 H39       -8.3860    2.4545    3.3769 H         1 RES1    0.0000
     64 H40       -8.4795    0.9264    2.7956 H         1 RES1    0.0000
     65 H41        0.2325   -5.5509    3.4205 H         3 RES3    0.0000
     66 H42       -1.2453   -1.6959   -3.3788 H         2 RES2    0.0000
     67 N1        -6.2481    1.9335    4.9786 N.2       1 RES1    0.0000
     68 N2        -3.8429    1.8964   -2.0445 N.2       2 RES2    0.0000
     69 N3        -4.0540    0.9330    2.5120 N.2       1 RES1    0.0000
     70 N4        -1.6355    0.7400   -4.4248 N.2       2 RES2    0.0000
     71 N5        -4.0006   -6.2288    5.2450 N.2       3 RES3    0.0000
     72 N6        -1.7130   -7.3416    2.9653 N.2       3 RES3    0.0000
     73 O1        -6.3363    3.2850    4.5329 O.3       1 RES1    0.0000
     74 O2        -4.9333    1.0441   -2.2968 O.3       2 RES2    0.0000
     75 O3        -3.8990    2.1972    1.8975 O.3       1 RES1    0.0000
     76 O4        -2.4827   -0.2321   -4.9966 O.3       2 RES2    0.0000
     77 O5        -3.3058   -6.4511    6.4276 O.3       3 RES3    0.0000
     78 O6        -0.8071   -7.7601    3.9345 O.3       3 RES3    0.0000
@<TRIPOS>BOND
     1    1    3 1
     2    2    4 1
     3    3   13 1
     4    4   14 1
     5    5    6 1
     6    6    7 1
     7    7    8 1
     8    8    9 1
     9    9   10 1
    10   10   11 1
    11   11   12 1
    12   12    5 1
    13   13   15 1
    14   14   16 1
    15   15   17 1
    16   16   18 1
    17   17   19 1
    18   18   20 1
    19   19   21 1
    20   20   22 1
    21   21   23 1
    22   22   24 1
    23   23    1 1
    24   24    2 1
    25   25   73 1
    26   26   10 1
    27   27   20 1
    28   28   11 1
    29   29   22 1
    30   30   11 1
    31   31   22 1
    32   32   12 1
    33   33   24 1
    34   34   12 1
    35   35   24 1
    36   36   74 1
    37   37   77 1
    38   38   76 1
    39   39   78 1
    40   40   75 1
    41   41    3 1
    42   42    3 1
    43   43    6 1
    44   44    4 1
    45   45   13 1
    46   46   13 1
    47   47    6 1
    48   48    4 1
    49   49   15 1
    50   50   15 1
    51   51    7 1
    52   52   14 1
    53   53    7 1
    54   54   14 1
    55   55   19 1
    56   56   19 1
    57   57    8 1
    58   58   16 1
    59   59   21 1
    60   60   21 1
    61   61    8 1
    62   62   16 1
    63   63   23 1
    64   64   23 1
    65   65   10 1
    66   66   20 1
    67   67    1 2
    68   68    2 2
    69   69   17 2
    70   70   18 2
    71   71    5 2
    72   72    9 2
    73   73   67 1
    74   74   68 1
    75   75   69 1
    76   76   70 1
    77   77   71 1
    78   78   72 1
@<TRIPOS>SUBSTRUCTURE
     1 RES1 1
     2 RES2 2
     3 RES3 5

@<TRIPOS>CRYSIN
  26.7240   10.8990    9.4830  90.0000  90.0000  90.0000  33 1

