# MOL2 file generated by ConQuest
# Please check atom types

@<TRIPOS>MOLECULE
COCTDX01
    59    59     3
SMALL
NO_CHARGES
****
Generated from CSD

@<TRIPOS>ATOM
      1 C1        18.4203    3.9308    5.0845 C.2       1 RES1    0.0000
      2 C2        19.4399    2.9979    4.4917 C.3       1 RES1    0.0000
      3 C3        20.2863    3.6350    3.3857 C.3       1 RES1    0.0000
      4 C4        21.1142    4.8476    3.8063 C.3       1 RES1    0.0000
      5 C5        20.2704    5.9920    4.2847 C.2       1 RES1    0.0000
      6 C6        20.2597    6.3267    5.7689 C.3       1 RES1    0.0000
      7 C7        20.0015    5.1406    6.6624 C.3       1 RES1    0.0000
      8 C8        18.6306    4.4722    6.4663 C.3       1 RES1    0.0000
      9 N1        17.3423    4.2864    4.5233 N.2       1 RES1    0.0000
     10 N2        19.5330    6.7021    3.5372 N.2       1 RES1    0.0000
     11 O1        17.1906    3.6938    3.2626 O.3       1 RES1    0.0000
     12 O2        19.6315    6.3343    2.1783 O.3       1 RES1    0.0000
     13 C9        16.9244    6.3997   -0.2550 C.2       2 RES2    0.0000
     14 C10       15.8170    6.8889   -1.1529 C.3       2 RES2    0.0000
     15 C11       14.9306    4.5130    0.6451 C.2       2 RES2    0.0000
     16 C12       15.8596    3.4539    0.0970 C.3       2 RES2    0.0000
     17 C13       16.7780    3.9545   -1.0047 C.3       2 RES2    0.0000
     18 C14       17.6457    5.1368   -0.5906 C.3       2 RES2    0.0000
     19 N3        17.2970    7.0103    0.7900 N.2       2 RES2    0.0000
     20 N4        15.0025    4.7405    1.9015 N.2       2 RES2    0.0000
     21 O3        16.5996    8.2077    1.0178 O.3       2 RES2    0.0000
     22 O4        14.1081    5.7151    2.3178 O.3       2 RES2    0.0000
     23 C15       14.4195    7.9290    5.0900 C.2       3 RES3    0.0000
     24 C16       14.6617    8.5822    6.4227 C.3       3 RES3    0.0000
     25 C17       16.0220    9.2487    6.5556 C.3       3 RES3    0.0000
     26 C18       16.3387   10.3836    5.5498 C.3       3 RES3    0.0000
     27 C19       16.2536    9.9370    4.1180 C.2       3 RES3    0.0000
     28 C20       15.0983   10.3381    3.2593 C.3       3 RES3    0.0000
     29 C21       13.7407   10.0328    3.8684 C.3       3 RES3    0.0000
     30 C22       13.4506    8.5642    4.1223 C.3       3 RES3    0.0000
     31 N5        14.9359    6.8320    4.7097 N.2       3 RES3    0.0000
     32 N6        17.1426    9.2174    3.5688 N.2       3 RES3    0.0000
     33 O5        15.7824    6.2745    5.6806 O.3       3 RES3    0.0000
     34 O6        18.2287    8.9396    4.4144 O.3       3 RES3    0.0000
     35 H1        15.7851    7.8597   -1.2749 H         2 RES2    0.0000
     36 H2        15.7584    6.4945   -2.0595 H         2 RES2    0.0000
     37 H3        13.6822    7.1202   -1.1660 H         2 RES2    0.0000
     38 H4        13.1498    5.3094    0.1526 H         2 RES2    0.0000
     39 H5        13.9750    4.6741   -1.0570 H         2 RES2    0.0000
     40 H6        16.4772    3.1287    0.8282 H         2 RES2    0.0000
     41 H7        15.2261    2.6452   -0.2724 H         2 RES2    0.0000
     42 H8        17.3822    3.1761   -1.2532 H         2 RES2    0.0000
     43 H9        16.2642    4.2570   -1.8089 H         2 RES2    0.0000
     44 H10       18.1275    5.3662   -1.2749 H         2 RES2    0.0000
     45 H11       18.1009    4.8922    0.1635 H         2 RES2    0.0000
     46 H12       14.5872    7.8408    7.1048 H         3 RES3    0.0000
     47 H13       13.9484    9.3767    6.6363 H         3 RES3    0.0000
     48 H14       16.7167    8.5708    6.4074 H         3 RES3    0.0000
     49 H15       16.2376    9.5663    7.5080 H         3 RES3    0.0000
     50 H16       17.1959   10.6282    5.7427 H         3 RES3    0.0000
     51 H17       15.7318   11.1307    5.7100 H         3 RES3    0.0000
     52 H18       15.4390    9.9361    2.4191 H         3 RES3    0.0000
     53 H19       15.1728   11.3298    3.1492 H         3 RES3    0.0000
     54 H20       12.8037   10.3248    3.3454 H         3 RES3    0.0000
     55 H21       13.6822   10.4575    4.7838 H         3 RES3    0.0000
     56 H22       12.5109    8.4381    4.5876 H         3 RES3    0.0000
     57 H23       13.4958    8.0778    3.2255 H         3 RES3    0.0000
     58 C23       14.4089    6.6756   -0.5557 C.3       2 RES2    0.0000
     59 C24       14.0069    5.2288   -0.2855 C.3       2 RES2    0.0000
@<TRIPOS>BOND
     1    1    2 1
     2    2    3 1
     3    3    4 1
     4    4    5 1
     5    5    6 1
     6    6    7 1
     7    7    8 1
     8    8    1 1
     9    9    1 2
    10   10    5 2
    11   11    9 1
    12   12   10 1
    13   13   14 1
    14   14   35 1
    15   15   16 1
    16   16   17 1
    17   17   18 1
    18   18   13 1
    19   19   13 2
    20   20   15 2
    21   21   19 1
    22   22   20 1
    23   23   24 1
    24   24   25 1
    25   25   26 1
    26   26   27 1
    27   27   28 1
    28   28   29 1
    29   29   30 1
    30   30   23 1
    31   31   23 2
    32   32   27 2
    33   33   31 1
    34   34   32 1
    35   36   14 1
    36   37   58 1
    37   38   59 1
    38   39   59 1
    39   40   16 1
    40   41   16 1
    41   42   17 1
    42   43   17 1
    43   44   18 1
    44   45   18 1
    45   46   24 1
    46   47   24 1
    47   48   25 1
    48   49   25 1
    49   50   26 1
    50   51   26 1
    51   52   28 1
    52   53   28 1
    53   54   29 1
    54   55   29 1
    55   56   30 1
    56   57   30 1
    57   58   14 1
    58   59   15 1
    59   58   59 1
@<TRIPOS>SUBSTRUCTURE
     1 RES1 1
     2 RES2 13
     3 RES3 23

@<TRIPOS>CRYSIN
  26.6190    9.4810   10.8970  90.0000  90.0000  90.0000  33 4

