# MOL2 file generated by ConQuest
# Please check atom types

@<TRIPOS>MOLECULE
CODFEI
    57    54     2
SMALL
NO_CHARGES
****
Generated from CSD

@<TRIPOS>ATOM
      1 O1         4.0007    1.8982    0.9846 O.3       1 RES1    0.0000
      2 O2         3.1267    2.2223    6.7748 O.3       1 RES1    0.0000
      3 O3         0.0658    1.4236    5.2082 O.3       1 RES1    0.0000
      4 O4         0.4574    0.8000    2.4439 O.3       1 RES1    0.0000
      5 O5         6.4916    2.9511    4.4122 O.3       1 RES1    0.0000
      6 N1         6.2890    3.1817    3.0192 N.2       1 RES1    0.0000
      7 C1         4.5152    3.1259    1.4328 C.3       1 RES1    0.0000
      8 H1         3.8147    3.7975    1.4123 H         1 RES1    0.0000
      9 H2         5.2259    3.4155    0.8405 H         1 RES1    0.0000
     10 C2         5.0470    2.9996    2.8301 C.2       1 RES1    0.0000
     11 C3         4.3838    2.6567    4.0425 C.2       1 RES1    0.0000
     12 H3         3.4775    2.4805    4.1575 H         1 RES1    0.0000
     13 C4         5.3228    2.6392    4.9679 C.2       1 RES1    0.0000
     14 C5         5.3793    2.3043    6.4050 C.3       1 RES1    0.0000
     15 H4         6.1536    1.7409    6.5587 H         1 RES1    0.0000
     16 H5         5.5104    3.1242    6.9059 H         1 RES1    0.0000
     17 C6         4.2184    1.6362    6.9220 C.3       1 RES1    0.0000
     18 H6         4.1539    0.7658    6.4964 H         1 RES1    0.0000
     19 H7         4.3538    1.4827    7.8711 H         1 RES1    0.0000
     20 C7         1.9915    1.4513    7.2273 C.3       1 RES1    0.0000
     21 H8         1.8686    0.7012    6.6243 H         1 RES1    0.0000
     22 H9         2.1954    1.0902    8.1044 H         1 RES1    0.0000
     23 C8         0.8473    2.1212    7.3036 C.ar      1 RES1    0.0000
     24 C9         0.7025    2.9428    8.4257 C.ar      1 RES1    0.0000
     25 H10        1.3050    2.8538    9.1287 H         1 RES1    0.0000
     26 C10       -0.2990    3.8742    8.5246 C.ar      1 RES1    0.0000
     27 H11       -0.3656    4.4167    9.2770 H         1 RES1    0.0000
     28 C11       -1.1955    3.9979    7.5014 C.ar      1 RES1    0.0000
     29 H12       -1.8785    4.6261    7.5605 H         1 RES1    0.0000
     30 C12       -1.0965    3.2035    6.3867 C.ar      1 RES1    0.0000
     31 H13       -1.7151    3.2951    5.6978 H         1 RES1    0.0000
     32 C13       -0.0808    2.2640    6.2814 C.ar      1 RES1    0.0000
     33 C14       -0.9651    1.4368    4.2177 C.3       1 RES1    0.0000
     34 H14       -1.0034    2.3061    3.7878 H         1 RES1    0.0000
     35 H15       -1.8254    1.2594    4.6294 H         1 RES1    0.0000
     36 C15       -0.6551    0.3864    3.2149 C.3       1 RES1    0.0000
     37 H16       -0.4524   -0.4500    3.6642 H         1 RES1    0.0000
     38 H17       -1.4212    0.2442    2.6377 H         1 RES1    0.0000
     39 C16        1.0144   -0.0944    1.5800 C.ar      1 RES1    0.0000
     40 C17        0.5171   -1.3625    1.3522 C.ar      1 RES1    0.0000
     41 H18       -0.2569   -1.6537    1.7778 H         1 RES1    0.0000
     42 C18        1.1961   -2.1909    0.4772 C.ar      1 RES1    0.0000
     43 H19        0.8823   -3.0509    0.3171 H         1 RES1    0.0000
     44 C19        2.3340   -1.7461   -0.1548 C.ar      1 RES1    0.0000
     45 H20        2.7812   -2.3061   -0.7470 H         1 RES1    0.0000
     46 C20        2.8123   -0.4849    0.0817 C.ar      1 RES1    0.0000
     47 H21        3.5884   -0.2006   -0.3440 H         1 RES1    0.0000
     48 C21        2.1621    0.3639    0.9383 C.ar      1 RES1    0.0000
     49 C22        2.6406    1.7611    1.2275 C.3       1 RES1    0.0000
     50 H22        2.1510    2.3880    0.6729 H         1 RES1    0.0000
     51 H23        2.4572    1.9764    2.1561 H         1 RES1    0.0000
     52 O6         3.0617    1.1426    6.4996 Du        2 SUP2    0.0000
     53 H24        4.6089    0.8757    7.3810 Du        2 SUP2    0.0000
     54 H25        3.9369    2.2345    7.6314 Du        2 SUP2    0.0000
     55 C23        1.9605    0.8530    7.1972 Du        2 SUP2    0.0000
     56 H26        2.2208    0.5931    8.0947 Du        2 SUP2    0.0000
     57 H27        1.5242    0.0907    6.7866 Du        2 SUP2    0.0000
@<TRIPOS>BOND
     1    1    7 1
     2    2   17 1
     3    3   32 1
     4    4   36 1
     5    5    6 1
     6    6   10 2
     7    7    8 1
     8    9    7 1
     9   10    7 1
    10   11   10 1
    11   12   11 1
    12   13    5 1
    13   14   13 1
    14   15   14 1
    15   16   14 1
    16   17   14 1
    17   18   17 1
    18   19   17 1
    19   20    2 1
    20   21   20 1
    21   22   20 1
    22   23   20 1
    23   24   23 ar
    24   25   24 1
    25   26   24 ar
    26   27   26 1
    27   28   26 ar
    28   29   28 1
    29   30   28 ar
    30   31   30 1
    31   32   23 ar
    32   33    3 1
    33   34   33 1
    34   35   33 1
    35   36   33 1
    36   37   36 1
    37   38   36 1
    38   39    4 1
    39   40   39 ar
    40   41   40 1
    41   42   40 ar
    42   43   42 1
    43   44   42 ar
    44   45   44 1
    45   46   44 ar
    46   47   46 1
    47   48   39 ar
    48   49    1 1
    49   50   49 1
    50   51   49 1
    51   11   13 2
    52   30   32 ar
    53   46   48 ar
    54   48   49 1
@<TRIPOS>SUBSTRUCTURE
     1 RES1 1
     2 SUP2 52

@<TRIPOS>CRYSIN
  10.4541   17.4437   11.0894  90.0000 104.2440  90.0000  14 1

