# MOL2 file generated by ConQuest
# Please check atom types

@<TRIPOS>MOLECULE
COFDUW10
    44    40     3
SMALL
NO_CHARGES
****
Generated from CSD

@<TRIPOS>ATOM
      1 O1         3.7652    3.4075   10.6019 O.2       1 RES1    0.0000
      2 O2         2.7167    2.6134   12.3149 O.2       1 RES1    0.0000
      3 O3         8.3444   -0.7052    9.6800 O.2       1 RES1    0.0000
      4 O4         7.5037    1.1061    8.6630 O.3       1 RES1    0.0000
      5 O5         4.3807   -1.3913   14.5424 O.2       1 RES1    0.0000
      6 O6         6.0258   -2.5413   13.5603 O.3       1 RES1    0.0000
      7 N1         3.6016    2.5772   11.4784 N.pl3     1 RES1    0.0000
      8 C1         4.5474    1.4502   11.5210 C.ar      1 RES1    0.0000
      9 C2         5.5361    1.3835   10.5585 C.ar      1 RES1    0.0000
     10 C3         6.4486    0.3421   10.6220 C.ar      1 RES1    0.0000
     11 C4         6.3614   -0.6088   11.6308 C.ar      1 RES1    0.0000
     12 C5         5.3370   -0.5273   12.5700 C.ar      1 RES1    0.0000
     13 C6         4.4197    0.5084   12.5203 C.ar      1 RES1    0.0000
     14 C7         7.5236    0.2160    9.5991 C.2       1 RES1    0.0000
     15 C8         5.2198   -1.5582   13.6389 C.2       1 RES1    0.0000
     16 H1         8.1322    0.8967    8.0870 H         1 RES1    0.0000
     17 H2         5.9174   -3.0350   14.2160 H         1 RES1    0.0000
     18 H3         5.6283    2.0201    9.9030 H         1 RES1    0.0000
     19 H4         6.9994   -1.2712   11.6906 H         1 RES1    0.0000
     20 H5         3.7128    0.5617   13.1662 H         1 RES1    0.0000
     21 O7         7.4619    3.3376    6.0238 O.2       2 RES2    0.0000
     22 O8         8.4625    2.6460    4.2472 O.2       2 RES2    0.0000
     23 O9         2.6602   -0.5333    6.6773 O.2       2 RES2    0.0000
     24 O10        3.6613    1.1006    7.8188 O.3       2 RES2    0.0000
     25 O11        6.3748   -0.7912    1.4869 O.2       2 RES2    0.0000
     26 O12        4.4802   -1.7987    2.3052 O.3       2 RES2    0.0000
     27 N2         7.5668    2.5841    5.0729 N.pl3     2 RES2    0.0000
     28 C9         6.5322    1.5601    4.9106 C.ar      2 RES2    0.0000
     29 C10        5.5890    1.4211    5.9083 C.ar      2 RES2    0.0000
     30 C11        4.5945    0.4758    5.7574 C.ar      2 RES2    0.0000
     31 C12        4.5478   -0.3100    4.6045 C.ar      2 RES2    0.0000
     32 C13        5.5001   -0.1361    3.6099 C.ar      2 RES2    0.0000
     33 C14        6.5115    0.8029    3.7592 C.ar      2 RES2    0.0000
     34 C15        3.5544    0.3097    6.8033 C.2       2 RES2    0.0000
     35 C16        5.4323   -0.9502    2.3702 C.2       2 RES2    0.0000
     36 H6         2.9943    0.9755    8.3707 H         2 RES2    0.0000
     37 H7         4.5116   -2.2270    1.5890 H         2 RES2    0.0000
     38 H8         5.6252    1.9609    6.6682 H         2 RES2    0.0000
     39 H9         3.8739   -0.9558    4.5117 H         2 RES2    0.0000
     40 H10        7.1708    0.9361    3.1497 H         2 RES2    0.0000
     41 H11        8.8213   -0.5124    9.1085 Du        3 SUP3    0.0000
     42 H12        4.2624   -1.9117   15.1808 Du        3 SUP3    0.0000
     43 H13        2.2288   -0.7193    7.2925 Du        3 SUP3    0.0000
     44 H14        6.3006   -1.1234    0.9931 Du        3 SUP3    0.0000
@<TRIPOS>BOND
     1    1    7 2
     2    2    7 2
     3    3   14 2
     4    4   14 1
     5    5   15 2
     6    6   15 1
     7    7    8 1
     8    8    9 ar
     9    9   10 ar
    10   10   11 ar
    11   11   12 ar
    12   12   13 ar
    13   13    8 ar
    14   14   10 1
    15   15   12 1
    16   16    4 1
    17   17    6 1
    18   18    9 1
    19   19   11 1
    20   20   13 1
    21   21   27 2
    22   22   27 2
    23   23   34 2
    24   24   34 1
    25   25   35 2
    26   26   35 1
    27   27   28 1
    28   28   29 ar
    29   29   30 ar
    30   30   31 ar
    31   31   32 ar
    32   32   33 ar
    33   33   28 ar
    34   34   30 1
    35   35   32 1
    36   36   24 1
    37   37   26 1
    38   38   29 1
    39   39   31 1
    40   40   33 1
@<TRIPOS>SUBSTRUCTURE
     1 RES1 1
     2 RES2 21
     3 SUP3 41

@<TRIPOS>CRYSIN
  12.9580    9.8540   31.4720  90.0000 115.6300  90.0000  15 2

