# MOL2 file generated by ConQuest
# Please check atom types

@<TRIPOS>MOLECULE
COGDUZ
    26    27     1
SMALL
NO_CHARGES
****
Generated from CSD

@<TRIPOS>ATOM
      1 N1         7.9490    4.4292    4.5196 N.pl3     1 RES1    0.0000
      2 N2         8.2475    5.5428    5.2092 N.2       1 RES1    0.0000
      3 C1         7.1874    6.2988    5.0071 C.2       1 RES1    0.0000
      4 C2         6.1814    5.7244    4.2231 C.2       1 RES1    0.0000
      5 H1         5.3449    6.0907    3.9631 H         1 RES1    0.0000
      6 C3         6.7102    4.5083    3.9301 C.2       1 RES1    0.0000
      7 N3         8.7294    3.2880    4.5166 N.2       1 RES1    0.0000
      8 N4         7.1391    7.6182    5.6154 N.pl3     1 RES1    0.0000
      9 O1         8.0013    7.9113    6.4274 O.2       1 RES1    0.0000
     10 O2         6.2085    8.3429    5.2696 O.2       1 RES1    0.0000
     11 O3         4.9422    3.5738    2.8902 O.2       1 RES1    0.0000
     12 N5         6.1540    3.5030    3.0506 N.pl3     1 RES1    0.0000
     13 O4         6.9027    2.7082    2.5097 O.2       1 RES1    0.0000
     14 N1D       10.5852    2.3669    5.0949 N.pl3     1 RES1    0.0000
     15 N2D       10.2868    1.2533    4.4053 N.2       1 RES1    0.0000
     16 C1D       11.3468    0.4973    4.6074 C.2       1 RES1    0.0000
     17 C2D       12.3528    1.0717    5.3914 C.2       1 RES1    0.0000
     18 H1D       13.1894    0.7054    5.6514 H         1 RES1    0.0000
     19 C3D       11.8240    2.2878    5.6844 C.2       1 RES1    0.0000
     20 N3D        9.8048    3.5081    5.0979 N.2       1 RES1    0.0000
     21 N4D       11.3951   -0.8221    3.9992 N.pl3     1 RES1    0.0000
     22 O1D       10.5329   -1.1152    3.1871 O.2       1 RES1    0.0000
     23 O2D       12.3257   -1.5468    4.3449 O.2       1 RES1    0.0000
     24 O3D       13.5921    3.2223    6.7243 O.2       1 RES1    0.0000
     25 N5D       12.3802    3.2931    6.5639 N.pl3     1 RES1    0.0000
     26 O4D       11.6315    4.0879    7.1048 O.2       1 RES1    0.0000
@<TRIPOS>BOND
     1    1    2 1
     2    2    3 2
     3    3    4 1
     4    4    5 1
     5    6    1 1
     6    7    1 1
     7    8    3 1
     8    9    8 2
     9   10    8 2
    10   11   12 2
    11   12    6 1
    12   13   12 2
    13   14   15 1
    14   15   16 2
    15   16   17 1
    16   17   18 1
    17   19   14 1
    18   20    7 2
    19   21   16 1
    20   22   21 2
    21   23   21 2
    22   24   25 2
    23   25   19 1
    24   26   25 2
    25    4    6 2
    26   14   20 1
    27   17   19 2
@<TRIPOS>SUBSTRUCTURE
     1 RES1 1

@<TRIPOS>CRYSIN
  18.8110    6.7961    9.6185  90.0000  91.6490  90.0000  15 1

