# MOL2 file generated by ConQuest
# Please check atom types

@<TRIPOS>MOLECULE
COGFOV
   114   104     3
SMALL
NO_CHARGES
****
Generated from CSD

@<TRIPOS>ATOM
      1 N1         6.9235    5.4892    9.9423 N.3       1 RES1    0.0000
      2 O1         7.2262    5.1991   11.3108 O.3       1 RES1    0.0000
      3 C1         6.6812    6.2684   12.1104 C.3       1 RES1    0.0000
      4 H1         7.2547    7.0725   12.0463 H         1 RES1    0.0000
      5 C2         5.3433    6.5126   11.4131 C.3       1 RES1    0.0000
      6 H2         5.0140    7.4196   11.5841 H         1 RES1    0.0000
      7 H3         4.6675    5.8657   11.7069 H         1 RES1    0.0000
      8 C3         5.6890    6.3195    9.9287 C.3       1 RES1    0.0000
      9 C4         5.8625    7.6939    9.2740 C.2       1 RES1    0.0000
     10 O2         5.2144    8.0643    8.3297 O.2       1 RES1    0.0000
     11 O3         6.7618    8.4190    9.9459 O.3       1 RES1    0.0000
     12 C5         6.9942    9.8325    9.6281 C.3       1 RES1    0.0000
     13 H4         7.3325   10.3134   10.4118 H         1 RES1    0.0000
     14 H5         6.1665   10.2615    9.3267 H         1 RES1    0.0000
     15 C6         7.9975    9.8197    8.5519 C.3       1 RES1    0.0000
     16 H6         8.8184    9.4214    8.8801 H         1 RES1    0.0000
     17 H7         8.1723   10.7289    8.2616 H         1 RES1    0.0000
     18 H8         7.6623    9.3012    7.8039 H         1 RES1    0.0000
     19 C7         4.5461    5.6087    9.1943 C.2       1 RES1    0.0000
     20 O4         3.4093    5.6763    9.5428 O.2       1 RES1    0.0000
     21 O5         4.9667    4.9204    8.1415 O.3       1 RES1    0.0000
     22 C8         3.9446    4.2275    7.3676 C.3       1 RES1    0.0000
     23 H9         3.6487    3.4273    7.8485 H         1 RES1    0.0000
     24 H10        3.1703    4.8144    7.2389 H         1 RES1    0.0000
     25 C9         4.4857    3.8578    6.1002 C.3       1 RES1    0.0000
     26 H11        4.7829    4.6529    5.6313 H         1 RES1    0.0000
     27 H12        3.8042    3.4085    5.5755 H         1 RES1    0.0000
     28 H13        5.2387    3.2605    6.2319 H         1 RES1    0.0000
     29 C10        6.5555    5.8296   13.5327 C.ar      1 RES1    0.0000
     30 C11        7.1235    6.6111   14.5491 C.ar      1 RES1    0.0000
     31 H14        7.6308    7.3723   14.3328 H         1 RES1    0.0000
     32 C12        6.9307    6.2519   15.8783 C.ar      1 RES1    0.0000
     33 H15        7.3104    6.7741   16.5612 H         1 RES1    0.0000
     34 C13        6.1924    5.1435   16.2012 C.ar      1 RES1    0.0000
     35 H16        6.0630    4.9121   17.1037 H         1 RES1    0.0000
     36 C14        5.6430    4.3718   15.2109 C.ar      1 RES1    0.0000
     37 H17        5.1426    3.6076   15.4336 H         1 RES1    0.0000
     38 C15        5.8242    4.7152   13.8953 C.ar      1 RES1    0.0000
     39 H18        5.4423    4.1795   13.2253 H         1 RES1    0.0000
     40 C16        8.0696    5.8942    9.2101 C.ar      1 RES1    0.0000
     41 C17        9.3291    5.9746    9.7869 C.ar      1 RES1    0.0000
     42 H19        9.4449    5.7980   10.7021 H         1 RES1    0.0000
     43 C18       10.4117    6.3195    8.9955 C.ar      1 RES1    0.0000
     44 H20       11.2613    6.3879    9.3914 H         1 RES1    0.0000
     45 C19       10.2846    6.5615    7.6663 C.ar      1 RES1    0.0000
     46 H21       11.0329    6.7967    7.1496 H         1 RES1    0.0000
     47 C20        9.0345    6.4555    7.0889 C.ar      1 RES1    0.0000
     48 H22        8.9347    6.6156    6.1672 H         1 RES1    0.0000
     49 C21        7.9330    6.1196    7.8420 C.ar      1 RES1    0.0000
     50 H23        7.0891    6.0422    7.4332 H         1 RES1    0.0000
     51 C22        7.0814    9.5582    9.0476 Du        3 SUP3    0.0000
     52 H24        6.8076    9.3350    8.1343 Du        3 SUP3    0.0000
     53 H25        6.5615   10.3434    9.3311 Du        3 SUP3    0.0000
     54 C23        8.5038    9.9114    9.0453 Du        3 SUP3    0.0000
     55 H26        8.7622   10.2240    9.9273 Du        3 SUP3    0.0000
     56 H27        8.6615   10.6162    8.3956 Du        3 SUP3    0.0000
     57 H28        9.0292    9.1321    8.8109 Du        3 SUP3    0.0000
     58 N2        -0.9642    6.6870   23.4837 N.3       2 RES2    0.0000
     59 O6        -1.4834    6.8034   22.1371 O.3       2 RES2    0.0000
     60 C24       -0.3162    6.9086   21.3167 C.3       2 RES2    0.0000
     61 H29        0.0942    7.8051   21.4065 H         2 RES2    0.0000
     62 C25        0.5990    5.8356   21.8946 C.3       2 RES2    0.0000
     63 H30        1.5409    6.0475   21.7280 H         2 RES2    0.0000
     64 H31        0.3962    4.9564   21.5114 H         2 RES2    0.0000
     65 C26        0.2812    5.8702   23.4047 C.3       2 RES2    0.0000
     66 C27        0.1280    4.4425   23.9401 C.2       2 RES2    0.0000
     67 O7         0.7994    3.9848   24.8152 O.2       2 RES2    0.0000
     68 O8        -0.8310    3.8143   23.2845 O.3       2 RES2    0.0000
     69 C28       -1.1544    2.4459   23.6739 C.3       2 RES2    0.0000
     70 H32       -0.3605    2.0198   24.0591 H         2 RES2    0.0000
     71 H33       -1.4186    1.9342   22.8802 H         2 RES2    0.0000
     72 C29       -2.2436    2.4256   24.6531 C.3       2 RES2    0.0000
     73 H34       -1.9247    2.7803   25.4971 H         2 RES2    0.0000
     74 H35       -2.5479    1.5134   24.7781 H         2 RES2    0.0000
     75 H36       -2.9778    2.9697   24.3293 H         2 RES2    0.0000
     76 C30        1.4402    6.5367   24.1659 C.2       2 RES2    0.0000
     77 O9         2.5833    6.3556   23.8738 O.2       2 RES2    0.0000
     78 O10        1.0260    7.3152   25.1534 O.3       2 RES2    0.0000
     79 C31        2.1523    7.7472   26.0129 C.3       2 RES2    0.0000
     80 H37        2.9697    7.3212   25.6779 H         2 RES2    0.0000
     81 H38        2.2625    8.7128   25.9057 H         2 RES2    0.0000
     82 C32        2.0615    7.4940   27.2633 C.3       2 RES2    0.0000
     83 H39        1.1420    7.6037   27.5491 H         2 RES2    0.0000
     84 H40        2.6299    8.1049   27.7567 H         2 RES2    0.0000
     85 H41        2.3460    6.5818   27.4307 H         2 RES2    0.0000
     86 C33       -0.7256    6.6487   19.8886 C.ar      2 RES2    0.0000
     87 C34       -1.5985    5.6192   19.5894 C.ar      2 RES2    0.0000
     88 H42       -1.9678    5.0977   20.2789 H         2 RES2    0.0000
     89 C35       -1.9302    5.3584   18.2655 C.ar      2 RES2    0.0000
     90 H43       -2.5325    4.6671   18.0594 H         2 RES2    0.0000
     91 C36       -1.3793    6.1061   17.2589 C.ar      2 RES2    0.0000
     92 H44       -1.5988    5.9205   16.3647 H         2 RES2    0.0000
     93 C37       -0.5098    7.1236   17.5517 C.ar      2 RES2    0.0000
     94 H45       -0.1292    7.6293   16.8559 H         2 RES2    0.0000
     95 C38       -0.1897    7.4099   18.8686 C.ar      2 RES2    0.0000
     96 H46        0.3918    8.1215   19.0687 H         2 RES2    0.0000
     97 C39       -2.0355    6.2744   24.3425 C.ar      2 RES2    0.0000
     98 C40       -3.3359    6.1783   23.8852 C.ar      2 RES2    0.0000
     99 H47       -3.5322    6.3488   22.9829 H         2 RES2    0.0000
    100 C41       -4.3533    5.8281   24.7665 C.ar      2 RES2    0.0000
    101 H48       -5.2371    5.7717   24.4499 H         2 RES2    0.0000
    102 C42       -4.0950    5.5636   26.0883 C.ar      2 RES2    0.0000
    103 H49       -4.7867    5.3081   26.6716 H         2 RES2    0.0000
    104 C43       -2.7897    5.6808   26.5443 C.ar      2 RES2    0.0000
    105 H50       -2.5984    5.5162   27.4486 H         2 RES2    0.0000
    106 C44       -1.7680    6.0362   25.6851 C.ar      2 RES2    0.0000
    107 H51       -0.8892    6.1174   26.0106 H         2 RES2    0.0000
    108 C45        1.8830    8.2259   25.9526 Du        3 SUP3    0.0000
    109 H52        2.8193    7.9546   25.8521 Du        3 SUP3    0.0000
    110 H53        1.7950    9.1366   25.6043 Du        3 SUP3    0.0000
    111 C46        1.5790    8.2206   27.1985 Du        3 SUP3    0.0000
    112 H54        0.9093    8.9037   27.3682 Du        3 SUP3    0.0000
    113 H55        2.3717    8.4123   27.7255 Du        3 SUP3    0.0000
    114 H56        1.2277    7.3542   27.4441 Du        3 SUP3    0.0000
@<TRIPOS>BOND
     1    1    2 1
     2    2    3 1
     3    3    4 1
     4    5    3 1
     5    6    5 1
     6    7    5 1
     7    8    1 1
     8    9    8 1
     9   10    9 2
    10   11    9 1
    11   12   11 1
    12   13   12 1
    13   14   12 1
    14   15   12 1
    15   16   15 1
    16   17   15 1
    17   18   15 1
    18   19    8 1
    19   20   19 2
    20   21   19 1
    21   22   21 1
    22   23   22 1
    23   24   22 1
    24   25   22 1
    25   26   25 1
    26   27   25 1
    27   28   25 1
    28   29    3 1
    29   30   29 ar
    30   31   30 1
    31   32   30 ar
    32   33   32 1
    33   34   32 ar
    34   35   34 1
    35   36   34 ar
    36   37   36 1
    37   38   29 ar
    38   39   38 1
    39   40    1 1
    40   41   40 ar
    41   42   41 1
    42   43   41 ar
    43   44   43 1
    44   45   43 ar
    45   46   45 1
    46   47   45 ar
    47   48   47 1
    48   49   40 ar
    49   50   49 1
    50   58   59 1
    51   59   60 1
    52   60   61 1
    53   62   60 1
    54   63   62 1
    55   64   62 1
    56   65   58 1
    57   66   65 1
    58   67   66 2
    59   68   66 1
    60   69   68 1
    61   70   69 1
    62   71   69 1
    63   72   69 1
    64   73   72 1
    65   74   72 1
    66   75   72 1
    67   76   65 1
    68   77   76 2
    69   78   76 1
    70   79   78 1
    71   80   79 1
    72   81   79 1
    73   82   79 1
    74   83   82 1
    75   84   82 1
    76   85   82 1
    77   86   60 1
    78   87   86 ar
    79   88   87 1
    80   89   87 ar
    81   90   89 1
    82   91   89 ar
    83   92   91 1
    84   93   91 ar
    85   94   93 1
    86   95   86 ar
    87   96   95 1
    88   97   58 1
    89   98   97 ar
    90   99   98 1
    91  100   98 ar
    92  101  100 1
    93  102  100 ar
    94  103  102 1
    95  104  102 ar
    96  105  104 1
    97  106   97 ar
    98  107  106 1
    99    5    8 1
   100   36   38 ar
   101   47   49 ar
   102   62   65 1
   103   93   95 ar
   104  104  106 ar
@<TRIPOS>SUBSTRUCTURE
     1 RES1 1
     2 RES2 58
     3 SUP3 51

@<TRIPOS>CRYSIN
  11.5047    7.5143   22.6494  90.0000  99.6540  90.0000   4 1

