# MOL2 file generated by ConQuest
# Please check atom types

@<TRIPOS>MOLECULE
COGFUB
    26    27     1
SMALL
NO_CHARGES
****
Generated from CSD

@<TRIPOS>ATOM
      1 O1         0.2869    6.2584    5.8220 O.2       1 RES1    0.0000
      2 O2        -1.7428    5.6469    5.3433 O.2       1 RES1    0.0000
      3 O3        -2.0231    3.1994    3.8144 O.2       1 RES1    0.0000
      4 O4        -2.7775    4.0486    1.9484 O.2       1 RES1    0.0000
      5 N1        -0.5680    5.8476    5.0614 N.pl3     1 RES1    0.0000
      6 N2        -0.3821    4.2582    0.4590 N.2       1 RES1    0.0000
      7 N3        -1.9513    3.9489    2.8566 N.pl3     1 RES1    0.0000
      8 C1        -0.1694    5.6091    3.6809 C.2       1 RES1    0.0000
      9 C2        -0.7898    4.8063    2.7782 C.2       1 RES1    0.0000
     10 N4        -0.1148    5.0184    1.5949 N.pl3     1 RES1    0.0000
     11 N5         0.8578    6.3146    3.1199 N.2       1 RES1    0.0000
     12 C3         0.8801    5.9418    1.8613 C.2       1 RES1    0.0000
     13 H1         1.4858    6.2575    1.2301 H         1 RES1    0.0000
     14 O1B       -0.2869    2.5886   -5.8220 O.2       1 RES1    0.0000
     15 O2B        1.7428    3.2001   -5.3433 O.2       1 RES1    0.0000
     16 O3B        2.0231    5.6476   -3.8144 O.2       1 RES1    0.0000
     17 O4B        2.7775    4.7984   -1.9484 O.2       1 RES1    0.0000
     18 N1B        0.5680    2.9994   -5.0614 N.pl3     1 RES1    0.0000
     19 N2B        0.3821    4.5888   -0.4590 N.2       1 RES1    0.0000
     20 N3B        1.9513    4.8981   -2.8566 N.pl3     1 RES1    0.0000
     21 C1B        0.1694    3.2379   -3.6809 C.2       1 RES1    0.0000
     22 C2B        0.7898    4.0407   -2.7782 C.2       1 RES1    0.0000
     23 N4B        0.1148    3.8286   -1.5949 N.pl3     1 RES1    0.0000
     24 N5B       -0.8578    2.5324   -3.1199 N.2       1 RES1    0.0000
     25 C3B       -0.8801    2.9052   -1.8613 C.2       1 RES1    0.0000
     26 H1B       -1.4858    2.5895   -1.2301 H         1 RES1    0.0000
@<TRIPOS>BOND
     1    1    5 2
     2    2    5 2
     3    3    7 2
     4    4    7 2
     5    5    8 1
     6    6   10 1
     7    7    9 1
     8    8    9 2
     9    9   10 1
    10   10   12 1
    11   11    8 1
    12   12   11 2
    13   13   12 1
    14   14   18 2
    15   15   18 2
    16   16   20 2
    17   17   20 2
    18   18   21 1
    19   19    6 2
    20   20   22 1
    21   21   22 2
    22   22   23 1
    23   23   19 1
    24   24   21 1
    25   25   23 1
    26   26   25 1
    27   24   25 2
@<TRIPOS>SUBSTRUCTURE
     1 RES1 1

@<TRIPOS>CRYSIN
   5.8780    8.8470   12.6540  90.0000 102.3240  90.0000 231 1

