# MOL2 file generated by ConQuest
# Please check atom types

@<TRIPOS>MOLECULE
COGGAI
    20    21     1
SMALL
NO_CHARGES
****
Generated from CSD

@<TRIPOS>ATOM
      1 N1         3.6008    4.7893   12.5784 N.pl3     1 RES1    0.0000
      2 N2         3.7942    5.2644   11.3329 N.2       1 RES1    0.0000
      3 C1         3.0973    4.3962   10.6551 C.2       1 RES1    0.0000
      4 N3         2.4776    3.4077   11.3295 N.2       1 RES1    0.0000
      5 C2         2.8164    3.6770   12.5609 C.2       1 RES1    0.0000
      6 H1         2.5621    3.1863   13.3085 H         1 RES1    0.0000
      7 N4         4.2378    5.4657   13.5985 N.2       1 RES1    0.0000
      8 N5         3.0061    4.4973    9.2108 N.pl3     1 RES1    0.0000
      9 O1         3.5857    5.4270    8.6664 O.2       1 RES1    0.0000
     10 O2         2.3511    3.6501    8.6261 O.2       1 RES1    0.0000
     11 N1B        4.7353    5.5291   15.6804 N.pl3     1 RES1    0.0000
     12 N2B        4.5419    5.0540   16.9259 N.2       1 RES1    0.0000
     13 C1B        5.2388    5.9222   17.6036 C.2       1 RES1    0.0000
     14 N3B        5.8585    6.9107   16.9293 N.2       1 RES1    0.0000
     15 C2B        5.5198    6.6414   15.6979 C.2       1 RES1    0.0000
     16 H1B        5.7740    7.1321   14.9503 H         1 RES1    0.0000
     17 N4B        4.0983    4.8527   14.6602 N.2       1 RES1    0.0000
     18 N5B        5.3300    5.8211   19.0480 N.pl3     1 RES1    0.0000
     19 O1B        4.7504    4.8914   19.5924 O.2       1 RES1    0.0000
     20 O2B        5.9851    6.6683   19.6326 O.2       1 RES1    0.0000
@<TRIPOS>BOND
     1    1    2 1
     2    2    3 2
     3    3    4 1
     4    4    5 2
     5    5    1 1
     6    6    5 1
     7    7    1 1
     8    8    3 1
     9    9    8 2
    10   10    8 2
    11   11   12 1
    12   12   13 2
    13   13   14 1
    14   14   15 2
    15   15   11 1
    16   16   15 1
    17   17    7 2
    18   18   13 1
    19   19   18 2
    20   20   18 2
    21   11   17 1
@<TRIPOS>SUBSTRUCTURE
     1 RES1 1

@<TRIPOS>CRYSIN
   6.3640    5.1592   14.2990  90.0000  98.8340  90.0000  14 1

