# MOL2 file generated by ConQuest
# Please check atom types

@<TRIPOS>MOLECULE
COGHOX
    54    57     1
SMALL
NO_CHARGES
****
Generated from CSD

@<TRIPOS>ATOM
      1 O1         3.3692    3.8973    6.7594 O.3       1 RES1    0.0000
      2 O2         3.4420    0.1947    6.1507 O.2       1 RES1    0.0000
      3 O3         5.7951    2.9489    8.9493 O.2       1 RES1    0.0000
      4 O4         1.0369    1.2349    4.6352 O.2       1 RES1    0.0000
      5 O5         2.7276    1.2125    3.1505 O.3       1 RES1    0.0000
      6 O6         3.3315    4.9651    3.5311 O.2       1 RES1    0.0000
      7 O7         1.4003    3.9151    3.0836 O.3       1 RES1    0.0000
      8 N1         2.2302    3.2811    6.0669 N.3       1 RES1    0.0000
      9 N2         4.5159    1.8776    7.3482 N.am      1 RES1    0.0000
     10 C1         2.7798    2.9195    4.7205 C.3       1 RES1    0.0000
     11 C2         4.2815    2.7009    4.9902 C.3       1 RES1    0.0000
     12 H1         4.5385    1.7730    4.8097 H         1 RES1    0.0000
     13 H2         4.8266    3.2964    4.4341 H         1 RES1    0.0000
     14 C3         4.4460    3.0326    6.4614 C.3       1 RES1    0.0000
     15 H3         5.2862    3.5459    6.5645 H         1 RES1    0.0000
     16 C4         4.1030    0.5561    7.0944 C.2       1 RES1    0.0000
     17 C5         4.6590   -0.2638    8.1973 C.ar      1 RES1    0.0000
     18 C6         4.5630   -1.6256    8.4333 C.ar      1 RES1    0.0000
     19 H4         4.0955   -2.1934    7.8473 H         1 RES1    0.0000
     20 C7         5.1858   -2.1147    9.5709 C.ar      1 RES1    0.0000
     21 H5         5.1350   -3.0334    9.7639 H         1 RES1    0.0000
     22 C8         5.8779   -1.2847   10.4242 C.ar      1 RES1    0.0000
     23 H6         6.2855   -1.6482   11.1893 H         1 RES1    0.0000
     24 C9         5.9850    0.0796   10.1801 C.ar      1 RES1    0.0000
     25 H7         6.4601    0.6474   10.7597 H         1 RES1    0.0000
     26 C10        5.3625    0.5586    9.0498 C.ar      1 RES1    0.0000
     27 C11        5.2924    1.9405    8.5194 C.2       1 RES1    0.0000
     28 C12        2.0568    1.6817    4.2070 C.2       1 RES1    0.0000
     29 C13        2.0864    0.1373    2.4112 C.3       1 RES1    0.0000
     30 H8         1.4469   -0.3266    2.9895 H         1 RES1    0.0000
     31 H9         2.7606   -0.5117    2.1207 H         1 RES1    0.0000
     32 C14        1.3898    0.6876    1.2385 C.3       1 RES1    0.0000
     33 H10        0.6911    1.2931    1.5333 H         1 RES1    0.0000
     34 H11        0.9953   -0.0360    0.7281 H         1 RES1    0.0000
     35 H12        2.0221    1.1691    0.6819 H         1 RES1    0.0000
     36 C15        2.5718    4.0509    3.6979 C.2       1 RES1    0.0000
     37 C16        1.0058    4.9814    2.1781 C.3       1 RES1    0.0000
     38 H13        1.4905    4.8968    1.3310 H         1 RES1    0.0000
     39 H14        1.2250    5.8515    2.5715 H         1 RES1    0.0000
     40 C17       -0.4278    4.8935    1.9397 C.3       1 RES1    0.0000
     41 H15       -0.6329    4.0442    1.5159 H         1 RES1    0.0000
     42 H16       -0.7038    5.6187    1.3580 H         1 RES1    0.0000
     43 H17       -0.9005    4.9571    2.7834 H         1 RES1    0.0000
     44 C18        1.1574    4.2519    6.0820 C.ar      1 RES1    0.0000
     45 C19       -0.1328    3.7444    6.1039 C.ar      1 RES1    0.0000
     46 H18       -0.2736    2.8165    6.1600 H         1 RES1    0.0000
     47 C20       -1.2114    4.6079    6.0429 C.ar      1 RES1    0.0000
     48 H19       -2.0857    4.2645    6.0425 H         1 RES1    0.0000
     49 C21       -1.0093    5.9705    5.9826 C.ar      1 RES1    0.0000
     50 H20       -1.7446    6.5550    5.9404 H         1 RES1    0.0000
     51 C22        0.2766    6.4755    5.9851 C.ar      1 RES1    0.0000
     52 H21        0.4120    7.4051    5.9539 H         1 RES1    0.0000
     53 C23        1.3686    5.6229    6.0326 C.ar      1 RES1    0.0000
     54 H22        2.2429    5.9696    6.0309 H         1 RES1    0.0000
@<TRIPOS>BOND
     1    1    8 1
     2    2   16 2
     3    3   27 2
     4    4   28 2
     5    5   28 1
     6    6   36 2
     7    7   36 1
     8    8   10 1
     9    9   14 1
    10   10   11 1
    11   11   12 1
    12   13   11 1
    13   14    1 1
    14   15   14 1
    15   16    9 1
    16   17   16 1
    17   18   17 ar
    18   19   18 1
    19   20   18 ar
    20   21   20 1
    21   22   20 ar
    22   23   22 1
    23   24   22 ar
    24   25   24 1
    25   26   17 ar
    26   27    9 1
    27   28   10 1
    28   29    5 1
    29   30   29 1
    30   31   29 1
    31   32   29 1
    32   33   32 1
    33   34   32 1
    34   35   32 1
    35   36   10 1
    36   37    7 1
    37   38   37 1
    38   39   37 1
    39   40   37 1
    40   41   40 1
    41   42   40 1
    42   43   40 1
    43   44    8 1
    44   45   44 ar
    45   46   45 1
    46   47   45 ar
    47   48   47 1
    48   49   47 ar
    49   50   49 1
    50   51   49 ar
    51   52   51 1
    52   53   44 ar
    53   54   53 1
    54   11   14 1
    55   24   26 ar
    56   26   27 1
    57   51   53 ar
@<TRIPOS>SUBSTRUCTURE
     1 RES1 1

@<TRIPOS>CRYSIN
  13.5403    8.3749   20.2887  90.0000 108.3060  90.0000  14 1

