# MOL2 file generated by ConQuest
# Please check atom types

@<TRIPOS>MOLECULE
COGMOB
    34    35     1
SMALL
NO_CHARGES
****
Generated from CSD

@<TRIPOS>ATOM
      1 C1         6.6658    5.7875    2.8200 C.3       1 RES1    0.0000
      2 H1         7.4805    6.3208    2.9306 H         1 RES1    0.0000
      3 H2         6.2937    5.6107    3.7102 H         1 RES1    0.0000
      4 C2         5.6607    6.5599    1.9926 C.3       1 RES1    0.0000
      5 H3         4.8582    6.0008    1.8385 H         1 RES1    0.0000
      6 C3         5.2568    7.8539    2.6981 C.3       1 RES1    0.0000
      7 H4         6.0711    8.3756    2.9112 H         1 RES1    0.0000
      8 C4         4.3129    8.7177    1.8668 C.3       1 RES1    0.0000
      9 H5         3.5834    8.1605    1.4971 H         1 RES1    0.0000
     10 C5         3.7323    9.8287    2.7163 C.3       1 RES1    0.0000
     11 H6         4.4316   10.4837    2.9209 H         1 RES1    0.0000
     12 H7         3.0230   10.2855    2.2173 H         1 RES1    0.0000
     13 O1         3.1943    9.3017    3.9419 O.3       1 RES1    0.0000
     14 C6         4.1959    8.6111    4.6654 C.3       1 RES1    0.0000
     15 H8         4.9711    9.2101    4.8092 H         1 RES1    0.0000
     16 O2         4.6081    7.4682    3.9236 O.3       1 RES1    0.0000
     17 O3         5.0244    9.3576    0.8047 O.3       1 RES1    0.0000
     18 H9         5.5050    8.8013    0.4188 H         1 RES1    0.0000
     19 N1         6.9979    4.4962    2.1504 N.pl3     1 RES1    0.0000
     20 O4         6.1267    3.6821    1.9888 O.2       1 RES1    0.0000
     21 O5         8.1261    4.3060    1.8040 O.2       1 RES1    0.0000
     22 O6         6.2340    6.9269    0.7443 O.3       1 RES1    0.0000
     23 H10        5.9489    6.4230    0.1493 H         1 RES1    0.0000
     24 C7         3.6523    8.1729    5.9847 C.ar      1 RES1    0.0000
     25 C8         4.2800    8.5524    7.1507 C.ar      1 RES1    0.0000
     26 H11        5.0382    9.1070    7.1121 H         1 RES1    0.0000
     27 C9         3.8020    8.1223    8.3894 C.ar      1 RES1    0.0000
     28 H12        4.2418    8.3765    9.1801 H         1 RES1    0.0000
     29 C10        2.6889    7.3269    8.4482 C.ar      1 RES1    0.0000
     30 H13        2.3659    7.0353    9.2824 H         1 RES1    0.0000
     31 C11        2.0405    6.9500    7.2974 C.ar      1 RES1    0.0000
     32 H14        1.2773    6.4034    7.3444 H         1 RES1    0.0000
     33 C12        2.5121    7.3784    6.0657 C.ar      1 RES1    0.0000
     34 H15        2.0594    7.1296    5.2805 H         1 RES1    0.0000
@<TRIPOS>BOND
     1    1    2 1
     2    3    1 1
     3    4    1 1
     4    5    4 1
     5    6    4 1
     6    7    6 1
     7    8    6 1
     8    9    8 1
     9   10    8 1
    10   11   10 1
    11   12   10 1
    12   13   10 1
    13   14   13 1
    14   15   14 1
    15   16    6 1
    16   17    8 1
    17   18   17 1
    18   19    1 1
    19   20   19 2
    20   21   19 2
    21   22    4 1
    22   23   22 1
    23   24   14 1
    24   25   24 ar
    25   26   25 1
    26   27   25 ar
    27   28   27 1
    28   29   27 ar
    29   30   29 1
    30   31   29 ar
    31   32   31 1
    32   33   24 ar
    33   34   33 1
    34   14   16 1
    35   31   33 ar
@<TRIPOS>SUBSTRUCTURE
     1 RES1 1

@<TRIPOS>CRYSIN
   5.1511    8.8875   13.8985  90.0000  95.9590  90.0000   4 1

