# MOL2 file generated by ConQuest
# Please check atom types

@<TRIPOS>MOLECULE
COGMUH
    42    44     1
SMALL
NO_CHARGES
****
Generated from CSD

@<TRIPOS>ATOM
      1 C1        18.8977   -0.1235    3.5801 C.3       1 RES1    0.0000
      2 H1        18.4370   -0.9374    3.9050 H         1 RES1    0.0000
      3 C2        20.1214   -0.5707    2.7517 C.3       1 RES1    0.0000
      4 H2        19.8374   -1.2682    2.1094 H         1 RES1    0.0000
      5 O1        21.1136   -1.1179    3.6223 O.3       1 RES1    0.0000
      6 C3        21.5101   -0.2011    4.6441 C.3       1 RES1    0.0000
      7 H3        21.8266    0.6453    4.2398 H         1 RES1    0.0000
      8 C4        20.3295    0.0632    5.5469 C.3       1 RES1    0.0000
      9 H4        19.9982   -0.7952    5.9139 H         1 RES1    0.0000
     10 C5        19.2196    0.7387    4.7830 C.3       1 RES1    0.0000
     11 H5        19.5110    1.6373    4.4866 H         1 RES1    0.0000
     12 C6        22.6140   -0.8321    5.4762 C.3       1 RES1    0.0000
     13 H6        22.3225   -1.6995    5.8259 H         1 RES1    0.0000
     14 H7        23.4145   -0.9714    4.9268 H         1 RES1    0.0000
     15 O2        22.9051    0.0709    6.5613 O.3       1 RES1    0.0000
     16 C7        21.7742    0.3035    7.3772 C.3       1 RES1    0.0000
     17 H8        21.4534   -0.5529    7.7567 H         1 RES1    0.0000
     18 O3        20.7252    0.9216    6.6307 O.3       1 RES1    0.0000
     19 O4        18.0238    0.8459    5.5605 O.3       1 RES1    0.0000
     20 H9        17.9795    1.6033    5.8966 H         1 RES1    0.0000
     21 N1        17.9642    0.5865    2.6141 N.pl3     1 RES1    0.0000
     22 O5        17.7268    1.7666    2.7666 O.2       1 RES1    0.0000
     23 O6        17.5148   -0.0972    1.7039 O.2       1 RES1    0.0000
     24 O7        20.5718    0.5400    2.0437 O.3       1 RES1    0.0000
     25 C8        21.2822    0.2011    0.8172 C.3       1 RES1    0.0000
     26 H10       21.0847   -0.7286    0.5878 H         1 RES1    0.0000
     27 H11       20.9383    0.7655    0.0930 H         1 RES1    0.0000
     28 C9        22.6525    0.3543    0.8767 C.3       1 RES1    0.0000
     29 H12       23.0414    0.1250    0.0186 H         1 RES1    0.0000
     30 H13       23.0155   -0.2274    1.5625 H         1 RES1    0.0000
     31 H14       22.8678    1.2778    1.0900 H         1 RES1    0.0000
     32 C10       22.1465    1.2466    8.4908 C.ar      1 RES1    0.0000
     33 C11       23.4157    1.8092    8.5603 C.ar      1 RES1    0.0000
     34 H15       24.0682    1.5889    7.9204 H         1 RES1    0.0000
     35 C12       23.7073    2.6967    9.5809 C.ar      1 RES1    0.0000
     36 H16       24.5676    3.0740    9.6292 H         1 RES1    0.0000
     37 C13       22.7698    3.0386   10.5246 C.ar      1 RES1    0.0000
     38 H17       22.9805    3.6547   11.2029 H         1 RES1    0.0000
     39 C14       21.5118    2.4636   10.4663 C.ar      1 RES1    0.0000
     40 H18       20.8657    2.6809   11.1111 H         1 RES1    0.0000
     41 C15       21.2068    1.5616    9.4469 C.ar      1 RES1    0.0000
     42 H19       20.3552    1.1657    9.4135 H         1 RES1    0.0000
@<TRIPOS>BOND
     1    1    2 1
     2    3    1 1
     3    4    3 1
     4    5    3 1
     5    6    5 1
     6    7    6 1
     7    8    6 1
     8    9    8 1
     9   10    1 1
    10   11   10 1
    11   12    6 1
    12   13   12 1
    13   14   12 1
    14   15   12 1
    15   16   15 1
    16   17   16 1
    17   18    8 1
    18   19   10 1
    19   20   19 1
    20   21    1 1
    21   22   21 2
    22   23   21 2
    23   24    3 1
    24   25   24 1
    25   26   25 1
    26   27   25 1
    27   28   25 1
    28   29   28 1
    29   30   28 1
    30   31   28 1
    31   32   16 1
    32   33   32 ar
    33   34   33 1
    34   35   33 ar
    35   36   35 1
    36   37   35 ar
    37   38   37 1
    38   39   37 ar
    39   40   39 1
    40   41   32 ar
    41   42   41 1
    42    8   10 1
    43   16   18 1
    44   39   41 ar
@<TRIPOS>SUBSTRUCTURE
     1 RES1 1

@<TRIPOS>CRYSIN
  26.1806    4.7874   12.9169  90.0000 106.2510  90.0000   5 1

