# MOL2 file generated by ConQuest
# Please check atom types

@<TRIPOS>MOLECULE
COGPIZ
    72    74     2
SMALL
NO_CHARGES
****
Generated from CSD

@<TRIPOS>ATOM
      1 O1         5.2805    3.5543    8.4315 O.3       1 RES1    0.0000
      2 H1         4.8027    3.6700    7.7374 H         1 RES1    0.0000
      3 O2         5.5494    1.6205   12.9839 O.2       1 RES1    0.0000
      4 O3         3.6526    0.6188   13.2816 O.2       1 RES1    0.0000
      5 N1         4.4204    1.3013   12.6019 N.pl3     1 RES1    0.0000
      6 N2         2.9363    3.0303    7.4736 N.2       1 RES1    0.0000
      7 N3         0.7877    4.8879    1.6930 N.3       1 RES1    0.0000
      8 C1         4.4579    2.8461    9.2400 C.ar      1 RES1    0.0000
      9 C2         4.8765    2.4518   10.4939 C.ar      1 RES1    0.0000
     10 H2         5.7450    2.6684   10.8116 H         1 RES1    0.0000
     11 C3         3.9849    1.7261   11.2784 C.ar      1 RES1    0.0000
     12 C4         2.7095    1.3887   10.8449 C.ar      1 RES1    0.0000
     13 H3         2.1236    0.8932   11.4045 H         1 RES1    0.0000
     14 C5         2.3068    1.7898    9.5801 C.ar      1 RES1    0.0000
     15 H4         1.4392    1.5602    9.2692 H         1 RES1    0.0000
     16 C6         3.1629    2.5289    8.7573 C.ar      1 RES1    0.0000
     17 C7         1.8294    2.8430    6.8482 C.2       1 RES1    0.0000
     18 H5         1.1412    2.3473    7.2770 H         1 RES1    0.0000
     19 C8         1.5892    3.3556    5.5227 C.ar      1 RES1    0.0000
     20 C9         0.3528    3.1346    4.8946 C.ar      1 RES1    0.0000
     21 H6        -0.3162    2.6386    5.3524 H         1 RES1    0.0000
     22 C10        0.0831    3.6165    3.6353 C.ar      1 RES1    0.0000
     23 H7        -0.7637    3.4468    3.2397 H         1 RES1    0.0000
     24 C11        1.0527    4.3633    2.9191 C.ar      1 RES1    0.0000
     25 C12        2.3131    4.5649    3.5509 C.ar      1 RES1    0.0000
     26 H8         2.9940    5.0424    3.0907 H         1 RES1    0.0000
     27 C13        2.5625    4.0830    4.8102 C.ar      1 RES1    0.0000
     28 H9         3.4094    4.2431    5.2109 H         1 RES1    0.0000
     29 C14        1.8325    5.5500    0.9150 C.3       1 RES1    0.0000
     30 H10        2.1990    6.2975    1.4310 H         1 RES1    0.0000
     31 H11        1.4517    5.8868    0.0767 H         1 RES1    0.0000
     32 H12        2.5470    4.9087    0.7163 H         1 RES1    0.0000
     33 C15       -0.4830    4.6222    1.0374 C.3       1 RES1    0.0000
     34 H13       -1.2168    4.9175    1.6161 H         1 RES1    0.0000
     35 H14       -0.5682    3.6617    0.8667 H         1 RES1    0.0000
     36 H15       -0.5202    5.1090    0.1881 H         1 RES1    0.0000
     37 O4         2.9487   -2.0625    8.9018 O.3       2 RES2    0.0000
     38 H16        2.4658   -1.7789    8.2791 H         2 RES2    0.0000
     39 O5         3.3180   -2.8000   13.7808 O.2       2 RES2    0.0000
     40 O6         1.3444   -2.3802   14.5635 O.2       2 RES2    0.0000
     41 N4         2.1461   -2.4352   13.6365 N.pl3     2 RES2    0.0000
     42 N5         0.6149   -1.0516    8.4148 N.2       2 RES2    0.0000
     43 N6        -1.6150    0.5694    2.5906 N.3       2 RES2    0.0000
     44 C16        2.1381   -1.8996    9.9745 C.ar      2 RES2    0.0000
     45 C17        2.5728   -2.2487   11.2389 C.ar      2 RES2    0.0000
     46 H17        3.4427   -2.6044   11.3789 H         2 RES2    0.0000
     47 C18        1.6966   -2.0619   12.2977 C.ar      2 RES2    0.0000
     48 C19        0.4147   -1.5465   12.1394 C.ar      2 RES2    0.0000
     49 H18       -0.1639   -1.4399   12.8851 H         2 RES2    0.0000
     50 C20        0.0024   -1.1918   10.8595 C.ar      2 RES2    0.0000
     51 H19       -0.8669   -0.8309   10.7303 H         2 RES2    0.0000
     52 C21        0.8492   -1.3593    9.7625 C.ar      2 RES2    0.0000
     53 C22       -0.5116   -0.5958    8.0036 C.2       2 RES2    0.0000
     54 H20       -1.2025   -0.4472    8.6387 H         2 RES2    0.0000
     55 C23       -0.7713   -0.2998    6.6143 C.ar      2 RES2    0.0000
     56 C24       -2.0276    0.1777    6.2211 C.ar      2 RES2    0.0000
     57 H21       -2.6973    0.3095    6.8812 H         2 RES2    0.0000
     58 C25       -2.3229    0.4625    4.9052 C.ar      2 RES2    0.0000
     59 H22       -3.1879    0.7810    4.6752 H         2 RES2    0.0000
     60 C26       -1.3510    0.2852    3.8944 C.ar      2 RES2    0.0000
     61 C27       -0.0763   -0.2109    4.2917 C.ar      2 RES2    0.0000
     62 H23        0.5967   -0.3474    3.6355 H         2 RES2    0.0000
     63 C28        0.1944   -0.4954    5.6058 C.ar      2 RES2    0.0000
     64 H24        1.0512   -0.8317    5.8414 H         2 RES2    0.0000
     65 C29       -0.5834    0.4626    1.5675 C.3       2 RES2    0.0000
     66 H25       -0.2142   -0.4457    1.5695 H         2 RES2    0.0000
     67 H26        0.1313    1.1062    1.7560 H         2 RES2    0.0000
     68 H27       -0.9730    0.6549    0.6892 H         2 RES2    0.0000
     69 C30       -2.9259    1.0550    2.1921 C.3       2 RES2    0.0000
     70 H28       -3.1570    1.8451    2.7236 H         2 RES2    0.0000
     71 H29       -3.5934    0.3535    2.3414 H         2 RES2    0.0000
     72 H30       -2.9108    1.2949    1.2414 H         2 RES2    0.0000
@<TRIPOS>BOND
     1    1    2 1
     2    3    5 2
     3    4    5 2
     4    5   11 1
     5    6   16 1
     6    7   24 1
     7    8    1 1
     8    9    8 ar
     9   10    9 1
    10   11    9 ar
    11   12   11 ar
    12   13   12 1
    13   14   12 ar
    14   15   14 1
    15   16    8 ar
    16   17    6 2
    17   18   17 1
    18   19   17 1
    19   20   19 ar
    20   21   20 1
    21   22   20 ar
    22   23   22 1
    23   24   22 ar
    24   25   24 ar
    25   26   25 1
    26   27   19 ar
    27   28   27 1
    28   29    7 1
    29   30   29 1
    30   31   29 1
    31   32   29 1
    32   33    7 1
    33   34   33 1
    34   35   33 1
    35   36   33 1
    36   37   38 1
    37   39   41 2
    38   40   41 2
    39   41   47 1
    40   42   52 1
    41   43   60 1
    42   44   37 1
    43   45   44 ar
    44   46   45 1
    45   47   45 ar
    46   48   47 ar
    47   49   48 1
    48   50   48 ar
    49   51   50 1
    50   52   44 ar
    51   53   42 2
    52   54   53 1
    53   55   53 1
    54   56   55 ar
    55   57   56 1
    56   58   56 ar
    57   59   58 1
    58   60   58 ar
    59   61   60 ar
    60   62   61 1
    61   63   55 ar
    62   64   63 1
    63   65   43 1
    64   66   65 1
    65   67   65 1
    66   68   65 1
    67   69   43 1
    68   70   69 1
    69   71   69 1
    70   72   69 1
    71   14   16 ar
    72   25   27 ar
    73   50   52 ar
    74   61   63 ar
@<TRIPOS>SUBSTRUCTURE
     1 RES1 1
     2 RES2 37

@<TRIPOS>CRYSIN
   6.1435   14.3844   15.8516 108.0380  91.2580  96.0330   2 1

