# MOL2 file generated by ConQuest
# Please check atom types

@<TRIPOS>MOLECULE
COHYEE
    43    45     1
SMALL
NO_CHARGES
****
Generated from CSD

@<TRIPOS>ATOM
      1 O1         5.2321    5.5327    4.3503 O.2       1 RES1    0.0000
      2 N1         4.5425    6.2125    3.5765 N.pl3     1 RES1    0.0000
      3 O2         3.8244    7.1184    3.9756 O.2       1 RES1    0.0000
      4 C1         4.6131    5.9330    2.1576 C.ar      1 RES1    0.0000
      5 C2         3.8386    6.7424    1.3378 C.ar      1 RES1    0.0000
      6 C3         3.9079    6.5696   -0.0185 C.ar      1 RES1    0.0000
      7 N2         3.1123    7.4432   -0.8748 N.pl3     1 RES1    0.0000
      8 O3         2.2886    8.1834   -0.3388 O.2       1 RES1    0.0000
      9 O4         3.3160    7.4082   -2.0872 O.2       1 RES1    0.0000
     10 C4         4.7492    5.6135   -0.5958 C.ar      1 RES1    0.0000
     11 C5         5.4912    4.7981    0.2140 C.ar      1 RES1    0.0000
     12 C6         5.4398    4.9045    1.6231 C.ar      1 RES1    0.0000
     13 N3         6.1613    4.0598    2.4052 N.3       1 RES1    0.0000
     14 N4         6.7175    2.9294    1.8352 N.2       1 RES1    0.0000
     15 C7         7.3902    2.1802    2.6308 C.2       1 RES1    0.0000
     16 C8         7.8786    0.8551    2.1355 C.3       1 RES1    0.0000
     17 C9         7.3517   -0.2475    3.0679 C.3       1 RES1    0.0000
     18 C10        7.9469   -0.1078    4.4672 C.3       1 RES1    0.0000
     19 C11        7.8304    1.2873    5.0435 C.3       1 RES1    0.0000
     20 C12        7.6333    2.4967    4.0763 C.3       1 RES1    0.0000
     21 C13        6.5699    2.0371    5.0346 C.2       1 RES1    0.0000
     22 C14        5.3386    2.1403    5.3822 C.2       1 RES1    0.0000
     23 C15        4.0893    2.2109    5.7452 C.2       1 RES1    0.0000
     24 C16        8.4598    3.7224    4.3377 C.2       1 RES1    0.0000
     25 O5         9.1297    4.2613    3.4944 O.2       1 RES1    0.0000
     26 O6         8.3900    4.1210    5.6046 O.3       1 RES1    0.0000
     27 C17        9.1997    5.2860    5.9142 C.3       1 RES1    0.0000
     28 H1         3.2969    7.3947    1.7340 H         1 RES1    0.0000
     29 H2         4.7821    5.4940   -1.5288 H         1 RES1    0.0000
     30 H3         6.0534    4.1194   -0.1824 H         1 RES1    0.0000
     31 H4         6.0599    4.1194    3.2735 H         1 RES1    0.0000
     32 H5         7.5933    0.7302    1.2271 H         1 RES1    0.0000
     33 H6         8.8615    0.8440    2.1578 H         1 RES1    0.0000
     34 H7         6.4012   -0.1921    3.1019 H         1 RES1    0.0000
     35 H8         7.6198   -1.1253    2.6768 H         1 RES1    0.0000
     36 H9         7.5075   -0.7267    5.0920 H         1 RES1    0.0000
     37 H10        8.8856   -0.3339    4.4255 H         1 RES1    0.0000
     38 H11        8.3954    1.4783    5.7987 H         1 RES1    0.0000
     39 H12        3.7982    2.7744    6.5149 H         1 RES1    0.0000
     40 H13        3.4627    1.7423    5.2315 H         1 RES1    0.0000
     41 H14        9.0103    5.5164    6.8260 H         1 RES1    0.0000
     42 H15       10.1372    5.0513    5.8135 H         1 RES1    0.0000
     43 H16        8.9899    5.9963    5.3119 H         1 RES1    0.0000
@<TRIPOS>BOND
     1    1    2 2
     2    2    3 2
     3    4    2 1
     4    5    4 ar
     5    6    5 ar
     6    7    6 1
     7    8    7 2
     8    9    7 2
     9   10    6 ar
    10   11   10 ar
    11   12    4 ar
    12   13   12 1
    13   14   13 1
    14   15   14 2
    15   16   15 1
    16   17   16 1
    17   18   17 1
    18   19   18 1
    19   20   15 1
    20   21   19 1
    21   22   21 2
    22   23   22 2
    23   24   20 1
    24   25   24 2
    25   26   24 1
    26   27   26 1
    27   28    5 1
    28   29   10 1
    29   30   11 1
    30   31   13 1
    31   32   16 1
    32   33   16 1
    33   34   17 1
    34   35   17 1
    35   36   18 1
    36   37   18 1
    37   38   19 1
    38   39   23 1
    39   40   23 1
    40   41   27 1
    41   42   27 1
    42   43   27 1
    43   11   12 ar
    44   19   20 1
    45   20   21 1
@<TRIPOS>SUBSTRUCTURE
     1 RES1 1

@<TRIPOS>CRYSIN
   7.3557    8.7509   13.5113  83.0250  89.3690  89.6720   2 1

