# MOL2 file generated by ConQuest
# Please check atom types

@<TRIPOS>MOLECULE
COJDEK
    84    91     1
SMALL
NO_CHARGES
****
Generated from CSD

@<TRIPOS>ATOM
      1 C1         5.9475    3.2981   14.4751 C.3       1 RES1    0.0000
      2 C2         4.7175    4.0719   14.9795 C.3       1 RES1    0.0000
      3 C3         3.5486    3.0343   14.7063 C.3       1 RES1    0.0000
      4 O1         4.2201    1.8273   14.3259 O.3       1 RES1    0.0000
      5 N1         5.3937    2.3069   13.5944 N.3       1 RES1    0.0000
      6 O2         6.6687    2.8057   15.6101 O.3       1 RES1    0.0000
      7 C4         6.1962    1.1367   13.1531 C.3       1 RES1    0.0000
      8 C5         5.4023    0.4620   12.0370 C.3       1 RES1    0.0000
      9 C6         7.4990    1.7122   12.5877 C.3       1 RES1    0.0000
     10 C7         6.4918    0.1295   14.2481 C.3       1 RES1    0.0000
     11 C8         4.4410    5.3748   14.2376 C.ar      1 RES1    0.0000
     12 C9         3.5840    6.3309   14.7399 C.ar      1 RES1    0.0000
     13 C10        3.2110    7.4340   13.9896 C.ar      1 RES1    0.0000
     14 C11        3.6883    7.5890   12.7117 C.ar      1 RES1    0.0000
     15 C12        4.5195    6.6490   12.1883 C.ar      1 RES1    0.0000
     16 C13        4.8992    5.5475   12.9366 C.ar      1 RES1    0.0000
     17 C14        2.4888    3.4004   13.6722 C.ar      1 RES1    0.0000
     18 C15        1.3525    4.0751   14.0379 C.ar      1 RES1    0.0000
     19 C16        0.4247    4.4460   13.0522 C.ar      1 RES1    0.0000
     20 C17        0.6351    4.1214   11.7470 C.ar      1 RES1    0.0000
     21 C18        1.7485    3.4452   11.3939 C.ar      1 RES1    0.0000
     22 C19        2.6753    3.0823   12.3355 C.ar      1 RES1    0.0000
     23 H1         6.5712    3.8209   13.9770 H         1 RES1    0.0000
     24 H2         5.3086    1.0871   11.3497 H         1 RES1    0.0000
     25 H3         4.5338    0.1119   12.3586 H         1 RES1    0.0000
     26 H4         5.9112   -0.3357   11.7070 H         1 RES1    0.0000
     27 H5         8.0442    2.0783   13.3254 H         1 RES1    0.0000
     28 H6         7.9390    1.0232   12.1274 H         1 RES1    0.0000
     29 H7         7.2216    2.4780   11.8752 H         1 RES1    0.0000
     30 H8         5.7007   -0.1599   14.6916 H         1 RES1    0.0000
     31 H9         6.8772   -0.6395   13.8509 H         1 RES1    0.0000
     32 H10        6.9825    0.5276   14.9648 H         1 RES1    0.0000
     33 H11        3.2330    6.2349   15.5954 H         1 RES1    0.0000
     34 H12        2.7165    8.0734   14.3553 H         1 RES1    0.0000
     35 H13        3.4243    8.3452   12.1904 H         1 RES1    0.0000
     36 H14        4.8112    6.6986   11.2656 H         1 RES1    0.0000
     37 H15        5.3851    4.8600   12.5267 H         1 RES1    0.0000
     38 H16        1.2052    4.2525   14.9648 H         1 RES1    0.0000
     39 H17       -0.1817    4.8600   13.4515 H         1 RES1    0.0000
     40 H18        0.0670    4.3645   11.0765 H         1 RES1    0.0000
     41 H19        1.9034    3.2454   10.3619 H         1 RES1    0.0000
     42 H20        3.5295    2.6219   12.1064 H         1 RES1    0.0000
     43 C2C        4.8475    4.0719   16.5475 C.3       1 RES1    0.0000
     44 O2C        2.8963    2.8057   15.9169 O.3       1 RES1    0.0000
     45 C3C        6.0164    3.0343   16.8207 C.3       1 RES1    0.0000
     46 C1C        3.6175    3.2981   17.0519 C.3       1 RES1    0.0000
     47 C8C        5.1240    5.3748   17.2894 C.ar      1 RES1    0.0000
     48 O1C        5.3449    1.8273   17.2011 O.3       1 RES1    0.0000
     49 C14C       7.0762    3.4004   17.8548 C.ar      1 RES1    0.0000
     50 N1C        4.1713    2.3069   17.9326 N.3       1 RES1    0.0000
     51 H1C        2.9938    3.8209   17.5500 H         1 RES1    0.0000
     52 C9C        5.9810    6.3309   16.7871 C.ar      1 RES1    0.0000
     53 C13C       4.6658    5.5475   18.5904 C.ar      1 RES1    0.0000
     54 C15C       8.2125    4.0751   17.4891 C.ar      1 RES1    0.0000
     55 C19C       6.8897    3.0823   19.1915 C.ar      1 RES1    0.0000
     56 C4C        3.3688    1.1367   18.3739 C.3       1 RES1    0.0000
     57 C10C       6.3540    7.4340   17.5374 C.ar      1 RES1    0.0000
     58 H11C       6.3320    6.2349   15.9316 H         1 RES1    0.0000
     59 C12C       5.0455    6.6490   19.3387 C.ar      1 RES1    0.0000
     60 H15C       4.1799    4.8600   19.0003 H         1 RES1    0.0000
     61 C16C       9.1403    4.4460   18.4748 C.ar      1 RES1    0.0000
     62 H16C       8.3598    4.2525   16.5622 H         1 RES1    0.0000
     63 C18C       7.8165    3.4452   20.1331 C.ar      1 RES1    0.0000
     64 H20C       6.0355    2.6219   19.4206 H         1 RES1    0.0000
     65 C5C        4.1627    0.4620   19.4900 C.3       1 RES1    0.0000
     66 C6C        2.0660    1.7122   18.9393 C.3       1 RES1    0.0000
     67 C7C        3.0732    0.1295   17.2789 C.3       1 RES1    0.0000
     68 C11C       5.8767    7.5890   18.8153 C.ar      1 RES1    0.0000
     69 H12C       6.8485    8.0734   17.1717 H         1 RES1    0.0000
     70 H14C       4.7538    6.6986   20.2614 H         1 RES1    0.0000
     71 C17C       8.9299    4.1214   19.7800 C.ar      1 RES1    0.0000
     72 H17C       9.7467    4.8600   18.0755 H         1 RES1    0.0000
     73 H19C       7.6616    3.2454   21.1651 H         1 RES1    0.0000
     74 H2C        4.2564    1.0871   20.1773 H         1 RES1    0.0000
     75 H3C        5.0312    0.1119   19.1684 H         1 RES1    0.0000
     76 H4C        3.6538   -0.3357   19.8200 H         1 RES1    0.0000
     77 H5C        1.5208    2.0783   18.2016 H         1 RES1    0.0000
     78 H6C        1.6261    1.0232   19.3996 H         1 RES1    0.0000
     79 H7C        2.3434    2.4780   19.6518 H         1 RES1    0.0000
     80 H8C        3.8643   -0.1599   16.8354 H         1 RES1    0.0000
     81 H9C        2.6878   -0.6395   17.6761 H         1 RES1    0.0000
     82 H10C       2.5826    0.5276   16.5622 H         1 RES1    0.0000
     83 H13C       6.1407    8.3452   19.3366 H         1 RES1    0.0000
     84 H18C       9.4980    4.3645   20.4505 H         1 RES1    0.0000
@<TRIPOS>BOND
     1    1    2 1
     2    2    3 1
     3    3    4 1
     4    4    5 1
     5    5    1 1
     6    6    1 1
     7    7    5 1
     8    8    7 1
     9    9    7 1
    10   10    7 1
    11   11    2 1
    12   12   11 ar
    13   13   12 ar
    14   14   13 ar
    15   15   14 ar
    16   16   11 ar
    17   17    3 1
    18   18   17 ar
    19   19   18 ar
    20   20   19 ar
    21   21   20 ar
    22   22   17 ar
    23   23    1 1
    24   24    8 1
    25   25    8 1
    26   26    8 1
    27   27    9 1
    28   28    9 1
    29   29    9 1
    30   30   10 1
    31   31   10 1
    32   32   10 1
    33   33   12 1
    34   34   13 1
    35   35   14 1
    36   36   15 1
    37   37   16 1
    38   38   18 1
    39   39   19 1
    40   40   20 1
    41   41   21 1
    42   42   22 1
    43   43    2 1
    44   44    3 1
    45   45    6 1
    46   46   43 1
    47   47   43 1
    48   48   45 1
    49   49   45 1
    50   50   46 1
    51   51   46 1
    52   52   47 ar
    53   53   47 ar
    54   54   49 ar
    55   55   49 ar
    56   56   50 1
    57   57   52 ar
    58   58   52 1
    59   59   53 ar
    60   60   53 1
    61   61   54 ar
    62   62   54 1
    63   63   55 ar
    64   64   55 1
    65   65   56 1
    66   66   56 1
    67   67   56 1
    68   68   57 ar
    69   69   57 1
    70   70   59 1
    71   71   61 ar
    72   72   61 1
    73   73   63 1
    74   74   65 1
    75   75   65 1
    76   76   65 1
    77   77   66 1
    78   78   66 1
    79   79   66 1
    80   80   67 1
    81   81   67 1
    82   82   67 1
    83   83   68 1
    84   84   71 1
    85   15   16 ar
    86   21   22 ar
    87   43   45 1
    88   44   46 1
    89   48   50 1
    90   59   68 ar
    91   63   71 ar
@<TRIPOS>SUBSTRUCTURE
     1 RES1 1

@<TRIPOS>CRYSIN
   9.5650   15.9870   21.0180  90.0000  90.0000  90.0000  60 1

