# MOL2 file generated by ConQuest
# Please check atom types

@<TRIPOS>MOLECULE
COJJAN
    51    50     1
SMALL
NO_CHARGES
****
Generated from CSD

@<TRIPOS>ATOM
      1 O1        -0.9316   11.5576    5.0422 O.2       1 RES1    0.0000
      2 O2        -1.6991   10.6631    3.2504 O.2       1 RES1    0.0000
      3 O3        -3.8087    7.4787    3.5247 O.3       1 RES1    0.0000
      4 O4        -3.6729    8.8007    5.3239 O.2       1 RES1    0.0000
      5 O5         1.6595   10.8192    3.1477 O.2       1 RES1    0.0000
      6 O6         2.3237    9.0732    1.8559 O.3       1 RES1    0.0000
      7 N1        -1.2125   10.5827    4.3625 N.pl3     1 RES1    0.0000
      8 N2         1.1728    8.6866    3.7084 N.am      1 RES1    0.0000
      9 H1         1.3890    7.8270    3.4694 H         1 RES1    0.0000
     10 C1        -5.7418    6.2697    2.8829 C.3       1 RES1    0.0000
     11 H2        -5.4243    5.4113    3.2330 H         1 RES1    0.0000
     12 H3        -5.4159    6.3897    1.9665 H         1 RES1    0.0000
     13 H4        -6.7224    6.2802    2.8845 H         1 RES1    0.0000
     14 C2        -5.2395    7.3599    3.7293 C.3       1 RES1    0.0000
     15 H5        -5.6875    8.2102    3.4897 H         1 RES1    0.0000
     16 H6        -5.4306    7.1654    4.6814 H         1 RES1    0.0000
     17 C3        -3.1539    8.2079    4.4154 C.2       1 RES1    0.0000
     18 C4        -1.6762    8.1589    4.1867 C.3       1 RES1    0.0000
     19 H7        -1.4997    8.2719    3.2205 H         1 RES1    0.0000
     20 H8        -1.3420    7.2668    4.4527 H         1 RES1    0.0000
     21 C5        -0.9086    9.2153    4.9506 C.3       1 RES1    0.0000
     22 H9        -1.2469    9.2107    5.8918 H         1 RES1    0.0000
     23 C6         0.6109    9.0162    5.0050 C.3       1 RES1    0.0000
     24 H10        1.0214    9.8769    5.3068 H         1 RES1    0.0000
     25 C7         1.7127    9.6393    2.9156 C.2       1 RES1    0.0000
     26 C8         2.9116    9.9084    0.8059 C.3       1 RES1    0.0000
     27 C9         1.8547   10.7796    0.1742 C.3       1 RES1    0.0000
     28 H11        1.6166   11.5029    0.7903 H         1 RES1    0.0000
     29 H12        1.0600   10.2403   -0.0202 H         1 RES1    0.0000
     30 H13        2.2025   11.1628   -0.6581 H         1 RES1    0.0000
     31 C10        4.0614   10.6946    1.3551 C.3       1 RES1    0.0000
     32 H14        4.7288   10.0807    1.7269 H         1 RES1    0.0000
     33 H15        3.7398   11.2944    2.0599 H         1 RES1    0.0000
     34 H16        4.4677   11.2233    0.6363 H         1 RES1    0.0000
     35 C11        3.4213    8.8752   -0.1789 C.3       1 RES1    0.0000
     36 H17        2.6672    8.3488   -0.5196 H         1 RES1    0.0000
     37 H18        4.0562    8.2812    0.2723 H         1 RES1    0.0000
     38 H19        3.8682    9.3272   -0.9241 H         1 RES1    0.0000
     39 C12        0.9493    7.9504    6.0412 C.3       1 RES1    0.0000
     40 H20        0.5211    7.1002    5.7689 H         1 RES1    0.0000
     41 H21        0.5545    8.2183    6.9093 H         1 RES1    0.0000
     42 C13        2.4406    7.6977    6.2450 C.3       1 RES1    0.0000
     43 H22        2.8135    7.3448    5.3877 H         1 RES1    0.0000
     44 C14        3.1988    8.9708    6.5966 C.3       1 RES1    0.0000
     45 H23        2.8218    9.3609    7.4118 H         1 RES1    0.0000
     46 H24        3.1184    9.6125    5.8607 H         1 RES1    0.0000
     47 H25        4.1450    8.7576    6.7428 H         1 RES1    0.0000
     48 C15        2.6328    6.6331    7.3123 C.3       1 RES1    0.0000
     49 H26        2.2349    6.9395    8.1555 H         1 RES1    0.0000
     50 H27        3.5894    6.4701    7.4445 H         1 RES1    0.0000
     51 H28        2.1952    5.8038    7.0291 H         1 RES1    0.0000
@<TRIPOS>BOND
     1    1    7 2
     2    2    7 2
     3    3   14 1
     4    4   17 2
     5    5   25 2
     6    6   25 1
     7    7   21 1
     8    8    9 1
     9   10   11 1
    10   12   10 1
    11   13   10 1
    12   14   10 1
    13   15   14 1
    14   16   14 1
    15   17    3 1
    16   18   17 1
    17   19   18 1
    18   20   18 1
    19   21   18 1
    20   22   21 1
    21   23    8 1
    22   24   23 1
    23   25    8 1
    24   26    6 1
    25   27   26 1
    26   28   27 1
    27   29   27 1
    28   30   27 1
    29   31   26 1
    30   32   31 1
    31   33   31 1
    32   34   31 1
    33   35   26 1
    34   36   35 1
    35   37   35 1
    36   38   35 1
    37   39   23 1
    38   40   39 1
    39   41   39 1
    40   42   39 1
    41   43   42 1
    42   44   42 1
    43   45   44 1
    44   46   44 1
    45   47   44 1
    46   48   42 1
    47   49   48 1
    48   50   48 1
    49   51   48 1
    50   21   23 1
@<TRIPOS>SUBSTRUCTURE
     1 RES1 1

@<TRIPOS>CRYSIN
  10.4434   11.6473   15.5580  90.0000  90.0000  90.0000  19 1

