# MOL2 file generated by ConQuest
# Please check atom types

@<TRIPOS>MOLECULE
COJWAZ
    25    28     1
SMALL
NO_CHARGES
****
Generated from CSD

@<TRIPOS>ATOM
      1 C1         1.7338   -1.5437    8.5076 C.3       1 RES1    0.0000
      2 C2         2.4290   -0.2002    8.4352 C.3       1 RES1    0.0000
      3 C3         3.5411   -0.3787    9.4178 C.2       1 RES1    0.0000
      4 N1         3.5993   -1.5458    9.9313 N.2       1 RES1    0.0000
      5 O1         2.5861   -2.3569    9.3767 O.3       1 RES1    0.0000
      6 C4         1.3908   -2.3073    7.2584 C.3       1 RES1    0.0000
      7 C5         0.2374   -3.1855    7.6896 C.3       1 RES1    0.0000
      8 O2        -0.4416   -2.3919    8.7216 O.3       1 RES1    0.0000
      9 C6         0.3899   -1.4674    9.2072 C.2       1 RES1    0.0000
     10 O3         0.0658   -0.7110   10.0762 O.2       1 RES1    0.0000
     11 C7         4.4700    0.6852    9.8639 C.ar      1 RES1    0.0000
     12 C8         5.4312    1.1867    8.9817 C.ar      1 RES1    0.0000
     13 C9         6.3160    2.1443    9.4442 C.ar      1 RES1    0.0000
     14 C10        6.2413    2.6561   10.7280 C.ar      1 RES1    0.0000
     15 C11        5.2547    2.1752   11.5641 C.ar      1 RES1    0.0000
     16 C12        4.3676    1.1836   11.1674 C.ar      1 RES1    0.0000
     17 C13        5.5096    0.7326    7.5415 C.3       1 RES1    0.0000
     18 C14        7.2104    3.7004   11.2036 C.3       1 RES1    0.0000
     19 C15        3.3409    0.6625   12.1484 C.3       1 RES1    0.0000
     20 C16       -0.7589   -3.5374    6.6247 C.ar      1 RES1    0.0000
     21 C17       -1.4600   -2.5705    5.9450 C.ar      1 RES1    0.0000
     22 C18       -2.3333   -2.9275    4.9492 C.ar      1 RES1    0.0000
     23 C19       -2.5076   -4.2597    4.6167 C.ar      1 RES1    0.0000
     24 C20       -1.8290   -5.2070    5.2916 C.ar      1 RES1    0.0000
     25 C21       -0.9530   -4.8633    6.2989 C.ar      1 RES1    0.0000
@<TRIPOS>BOND
     1    1    2 1
     2    2    3 1
     3    3    4 2
     4    4    5 1
     5    5    1 1
     6    6    1 1
     7    7    6 1
     8    8    7 1
     9    9    1 1
    10   10    9 2
    11   11    3 1
    12   12   11 ar
    13   13   12 ar
    14   14   13 ar
    15   15   14 ar
    16   16   11 ar
    17   17   12 1
    18   18   14 1
    19   19   16 1
    20   20    7 1
    21   21   20 ar
    22   22   21 ar
    23   23   22 ar
    24   24   23 ar
    25   25   20 ar
    26    8    9 1
    27   15   16 ar
    28   24   25 ar
@<TRIPOS>SUBSTRUCTURE
     1 RES1 1

@<TRIPOS>CRYSIN
  20.9690   10.3190   16.6010  90.0000  97.5000  90.0000  15 1

