# MOL2 file generated by ConQuest
# Please check atom types

@<TRIPOS>MOLECULE
COJYAD
    28    29     1
SMALL
NO_CHARGES
****
Generated from CSD

@<TRIPOS>ATOM
      1 C1         7.3723   -1.3477    4.2199 C.3       1 RES1    0.0000
      2 H1         7.3255   -0.3798    4.3639 H         1 RES1    0.0000
      3 H2         7.5430   -1.5291    3.2719 H         1 RES1    0.0000
      4 H3         8.0980   -1.7233    4.7606 H         1 RES1    0.0000
      5 C2         4.9594   -1.3105    4.9589 C.2       1 RES1    0.0000
      6 C3         4.5341   -3.3965    5.2278 C.2       1 RES1    0.0000
      7 H4         4.0848   -4.2100    5.4250 H         1 RES1    0.0000
      8 C4         5.8264   -3.2993    4.7847 C.2       1 RES1    0.0000
      9 C5         4.7874    0.1257    4.8919 C.2       1 RES1    0.0000
     10 H5         5.4700    0.6520    4.4930 H         1 RES1    0.0000
     11 C6         3.7009    0.7344    5.3731 C.2       1 RES1    0.0000
     12 H6         3.0422    0.1720    5.7639 H         1 RES1    0.0000
     13 C7         3.4086    2.1636    5.3669 C.ar      1 RES1    0.0000
     14 C8         2.1595    2.6082    5.8144 C.ar      1 RES1    0.0000
     15 H7         1.5129    1.9745    6.1027 H         1 RES1    0.0000
     16 C9         1.8522    3.9589    5.8431 C.ar      1 RES1    0.0000
     17 H8         0.9977    4.2434    6.1458 H         1 RES1    0.0000
     18 C10        2.7800    4.8927    5.4345 C.ar      1 RES1    0.0000
     19 H9         2.5693    5.8182    5.4613 H         1 RES1    0.0000
     20 C11        4.0266    4.4721    4.9839 C.ar      1 RES1    0.0000
     21 H10        4.6676    5.1131    4.7001 H         1 RES1    0.0000
     22 C12        4.3363    3.1309    4.9476 C.ar      1 RES1    0.0000
     23 H11        5.1906    2.8565    4.6342 H         1 RES1    0.0000
     24 N1         6.1008   -1.9613    4.6139 N.pl3     1 RES1    0.0000
     25 N2         6.7159   -4.3596    4.5198 N.pl3     1 RES1    0.0000
     26 N3         3.9957   -2.1663    5.3423 N.2       1 RES1    0.0000
     27 O1         6.3364   -5.4962    4.8078 O.2       1 RES1    0.0000
     28 O2         7.8246   -4.1209    4.0210 O.2       1 RES1    0.0000
@<TRIPOS>BOND
     1    1    2 1
     2    3    1 1
     3    4    1 1
     4    5    9 1
     5    6    7 1
     6    8    6 2
     7    9   10 1
     8   11    9 2
     9   12   11 1
    10   13   11 1
    11   14   13 ar
    12   15   14 1
    13   16   14 ar
    14   17   16 1
    15   18   16 ar
    16   19   18 1
    17   20   18 ar
    18   21   20 1
    19   22   13 ar
    20   23   22 1
    21   24    1 1
    22   25    8 1
    23   26    5 2
    24   27   25 2
    25   28   25 2
    26    5   24 1
    27    6   26 1
    28    8   24 1
    29   20   22 ar
@<TRIPOS>SUBSTRUCTURE
     1 RES1 1

@<TRIPOS>CRYSIN
   6.4969   12.3713   13.7871  90.0000 102.7320  90.0000 231 1

