# MOL2 file generated by ConQuest
# Please check atom types

@<TRIPOS>MOLECULE
COKQOJ
    70    74     2
SMALL
NO_CHARGES
****
Generated from CSD

@<TRIPOS>ATOM
      1 O1        10.4508    2.3180    5.1321 O.2       1 RES1    0.0000
      2 O2         9.2888    4.2283    5.4549 O.3       1 RES1    0.0000
      3 O3         9.6730    4.4092   -0.2234 O.2       1 RES1    0.0000
      4 O4         6.3757   -0.4155    1.0458 O.2       1 RES1    0.0000
      5 O5         5.6051    0.3206   -0.8305 O.2       1 RES1    0.0000
      6 N1         9.0408    3.0953    3.5301 N.am      1 RES1    0.0000
      7 N2         6.0325    0.5009    0.3072 N.pl3     1 RES1    0.0000
      8 C1         8.2516    4.1772    2.9401 C.3       1 RES1    0.0000
      9 H1         7.8635    4.7436    3.6668 H         1 RES1    0.0000
     10 C2         7.1277    3.5963    2.0903 C.ar      1 RES1    0.0000
     11 C3         6.0915    4.4549    1.7092 C.ar      1 RES1    0.0000
     12 H2         6.0851    5.3504    2.0283 H         1 RES1    0.0000
     13 C4         5.0715    4.0207    0.8728 C.ar      1 RES1    0.0000
     14 H3         4.3713    4.6134    0.6257 H         1 RES1    0.0000
     15 C5         5.0813    2.7219    0.4016 C.ar      1 RES1    0.0000
     16 H4         4.4010    2.4133   -0.1859 H         1 RES1    0.0000
     17 C6         6.1037    1.8797    0.8036 C.ar      1 RES1    0.0000
     18 C7         7.1665    2.2765    1.6325 C.ar      1 RES1    0.0000
     19 C8         8.3231    1.3675    1.9890 C.3       1 RES1    0.0000
     20 H5         8.6014    0.8660    1.1820 H         1 RES1    0.0000
     21 H6         8.0217    0.7100    2.6651 H         1 RES1    0.0000
     22 C9         9.5220    2.1349    2.5390 C.3       1 RES1    0.0000
     23 H7        10.1221    1.4838    3.0036 H         1 RES1    0.0000
     24 C10       10.3529    2.8762    1.4738 C.3       1 RES1    0.0000
     25 H8        11.2382    3.0941    1.8591 H         1 RES1    0.0000
     26 H9        10.5021    2.2666    0.7089 H         1 RES1    0.0000
     27 C11        9.7264    4.1474    0.9598 C.2       1 RES1    0.0000
     28 C12        9.1567    5.0449    2.0341 C.3       1 RES1    0.0000
     29 H10        8.6292    5.7761    1.6246 H         1 RES1    0.0000
     30 H11        9.8886    5.4471    2.5666 H         1 RES1    0.0000
     31 C13        9.6611    3.1567    4.7366 C.2       1 RES1    0.0000
     32 C14        9.8642    4.2797    6.7857 C.3       1 RES1    0.0000
     33 H12        9.5490    5.0854    7.2475 H         1 RES1    0.0000
     34 H13       10.8415    4.3040    6.7189 H         1 RES1    0.0000
     35 H14        9.5905    3.4853    7.2905 H         1 RES1    0.0000
     36 O6         6.5881    7.2364    3.0841 O.2       2 RES2    0.0000
     37 O7         5.5024    9.2005    3.3018 O.3       2 RES2    0.0000
     38 O8        10.6870   10.9732    4.3725 O.2       2 RES2    0.0000
     39 O9        10.8045    9.1090    9.8004 O.2       2 RES2    0.0000
     40 O10       10.0062    7.4819    8.6332 O.2       2 RES2    0.0000
     41 N3         7.3200    8.8025    4.5616 N.am      2 RES2    0.0000
     42 N4        10.0606    8.6750    8.9350 N.pl3     2 RES2    0.0000
     43 C15        7.3608   10.2051    4.9577 C.3       2 RES2    0.0000
     44 H15        6.4418   10.5951    4.8960 H         2 RES2    0.0000
     45 C16        7.8683   10.3316    6.3850 C.ar      2 RES2    0.0000
     46 C17        7.5859   11.5145    7.0651 C.ar      2 RES2    0.0000
     47 H16        7.0301   12.1662    6.6551 H         2 RES2    0.0000
     48 C18        8.1006   11.7594    8.3293 C.ar      2 RES2    0.0000
     49 H17        7.8880   12.5622    8.7889 H         2 RES2    0.0000
     50 C19        8.9282   10.8165    8.9092 C.ar      2 RES2    0.0000
     51 H18        9.3184   10.9798    9.7600 H         2 RES2    0.0000
     52 C20        9.1831    9.6340    8.2398 C.ar      2 RES2    0.0000
     53 C21        8.6732    9.3372    6.9635 C.ar      2 RES2    0.0000
     54 C22        8.9442    8.0514    6.2112 C.3       2 RES2    0.0000
     55 H19        8.4116    7.3241    6.6204 H         2 RES2    0.0000
     56 H20        9.9003    7.8172    6.3125 H         2 RES2    0.0000
     57 C23        8.6130    8.1284    4.7278 C.3       2 RES2    0.0000
     58 H21        8.5266    7.1955    4.3785 H         2 RES2    0.0000
     59 C24        9.6888    8.8546    3.8994 C.3       2 RES2    0.0000
     60 H22       10.5801    8.5000    4.1454 H         2 RES2    0.0000
     61 H23        9.5404    8.6631    2.9398 H         2 RES2    0.0000
     62 C25        9.6797   10.3444    4.1098 C.2       2 RES2    0.0000
     63 C26        8.3126   10.9844    4.0232 C.3       2 RES2    0.0000
     64 H24        7.9784   10.9491    3.0910 H         2 RES2    0.0000
     65 H25        8.3628   11.9329    4.3022 H         2 RES2    0.0000
     66 C27        6.4774    8.3325    3.5955 C.2       2 RES2    0.0000
     67 C28        4.5486    8.7243    2.3209 C.3       2 RES2    0.0000
     68 H26        3.8715    9.4147    2.1629 H         2 RES2    0.0000
     69 H27        4.1147    7.9113    2.6554 H         2 RES2    0.0000
     70 H28        5.0145    8.5243    1.4817 H         2 RES2    0.0000
@<TRIPOS>BOND
     1    1   31 2
     2    2   31 1
     3    3   27 2
     4    4    7 2
     5    5    7 2
     6    6    8 1
     7    7   17 1
     8    8    9 1
     9   10    8 1
    10   11   10 ar
    11   12   11 1
    12   13   11 ar
    13   14   13 1
    14   15   13 ar
    15   16   15 1
    16   17   15 ar
    17   18   10 ar
    18   19   18 1
    19   20   19 1
    20   21   19 1
    21   22    6 1
    22   23   22 1
    23   24   22 1
    24   25   24 1
    25   26   24 1
    26   27   24 1
    27   28    8 1
    28   29   28 1
    29   30   28 1
    30   31    6 1
    31   32    2 1
    32   33   32 1
    33   34   32 1
    34   35   32 1
    35   36   66 2
    36   37   66 1
    37   38   62 2
    38   39   42 2
    39   40   42 2
    40   41   43 1
    41   42   52 1
    42   43   44 1
    43   45   43 1
    44   46   45 ar
    45   47   46 1
    46   48   46 ar
    47   49   48 1
    48   50   48 ar
    49   51   50 1
    50   52   50 ar
    51   53   45 ar
    52   54   53 1
    53   55   54 1
    54   56   54 1
    55   57   41 1
    56   58   57 1
    57   59   57 1
    58   60   59 1
    59   61   59 1
    60   62   59 1
    61   63   43 1
    62   64   63 1
    63   65   63 1
    64   66   41 1
    65   67   37 1
    66   68   67 1
    67   69   67 1
    68   70   67 1
    69   17   18 ar
    70   19   22 1
    71   27   28 1
    72   52   53 ar
    73   54   57 1
    74   62   63 1
@<TRIPOS>SUBSTRUCTURE
     1 RES1 1
     2 RES2 36

@<TRIPOS>CRYSIN
   8.6268   11.8442   14.4040  74.4020  84.7070  69.8680   2 1

