# MOL2 file generated by ConQuest
# Please check atom types

@<TRIPOS>MOLECULE
COLNOI
    43    44     1
SMALL
NO_CHARGES
****
Generated from CSD

@<TRIPOS>ATOM
      1 C1         2.2958    3.5346    8.0667 C.3       1 RES1    0.0000
      2 C2         3.0570    4.7789    7.6145 C.3       1 RES1    0.0000
      3 C3         2.1843    6.0193    7.4409 C.3       1 RES1    0.0000
      4 C4         1.1760    5.7204    6.3589 C.3       1 RES1    0.0000
      5 C5         0.4994    4.4033    6.5285 C.2       1 RES1    0.0000
      6 C6         0.9608    3.4263    7.3642 C.3       1 RES1    0.0000
      7 H1         1.3894    2.9648    6.6011 H         1 RES1    0.0000
      8 C7         3.1858    2.3427    7.8972 C.ar      1 RES1    0.0000
      9 C8         3.3335    1.7300    6.6718 C.ar      1 RES1    0.0000
     10 C9         4.2554    0.6968    6.4518 C.ar      1 RES1    0.0000
     11 C10        5.0063    0.3232    7.5358 C.ar      1 RES1    0.0000
     12 C11        4.8940    0.9098    8.7531 C.ar      1 RES1    0.0000
     13 C12        3.9815    1.9112    8.9408 C.ar      1 RES1    0.0000
     14 C13        4.2131    5.0404    8.5553 C.2       1 RES1    0.0000
     15 C14        5.6016    4.9320    8.0122 C.3       1 RES1    0.0000
     16 C15        3.0034    7.2318    7.0977 C.3       1 RES1    0.0000
     17 C16        0.1037    2.2848    7.5923 C.2       1 RES1    0.0000
     18 C17        0.3603    1.3302    8.7188 C.3       1 RES1    0.0000
     19 H2        -0.3327    0.6520    8.7309 H         1 RES1    0.0000
     20 H3         0.3543    1.8140    9.5585 H         1 RES1    0.0000
     21 H4         1.2244    0.9079    8.5936 H         1 RES1    0.0000
     22 O1         6.6316   -1.1545    8.2969 O.2       1 RES1    0.0000
     23 O2         6.1952   -1.1863    6.2156 O.2       1 RES1    0.0000
     24 O3         4.0057    5.3038    9.7382 O.2       1 RES1    0.0000
     25 O4         1.4473    6.3201    8.6663 O.3       1 RES1    0.0000
     26 H5         0.9807    5.6663    8.8782 H         1 RES1    0.0000
     27 O5        -0.6213    4.2726    5.8441 O.2       1 RES1    0.0000
     28 O6        -0.9530    2.1241    6.9201 O.2       1 RES1    0.0000
     29 N1         6.0138   -0.7323    7.3339 N.pl3     1 RES1    0.0000
     30 H6         2.0910    3.6617    8.9630 H         1 RES1    0.0000
     31 H7         3.3957    4.5771    6.8030 H         1 RES1    0.0000
     32 H8         1.7195    5.6233    5.5918 H         1 RES1    0.0000
     33 H9         0.3888    6.3706    6.3791 H         1 RES1    0.0000
     34 H10        2.7909    1.9242    5.9754 H         1 RES1    0.0000
     35 H11        4.3030    0.2615    5.5312 H         1 RES1    0.0000
     36 H12        5.3312    0.5605    9.5081 H         1 RES1    0.0000
     37 H13        3.9573    2.2979    9.9118 H         1 RES1    0.0000
     38 H14        6.1348    4.9507    8.7208 H         1 RES1    0.0000
     39 H15        5.7805    3.8485    7.6912 H         1 RES1    0.0000
     40 H16        5.5731    5.5299    7.3077 H         1 RES1    0.0000
     41 H17        2.3675    7.8278    6.8434 H         1 RES1    0.0000
     42 H18        3.4821    7.0618    6.2580 H         1 RES1    0.0000
     43 H19        3.5340    7.3981    7.9133 H         1 RES1    0.0000
@<TRIPOS>BOND
     1    1    2 1
     2    2    3 1
     3    3    4 1
     4    4    5 1
     5    5    6 1
     6    6    1 1
     7    7    6 1
     8    8    1 1
     9    9    8 ar
    10   10    9 ar
    11   11   10 ar
    12   12   11 ar
    13   13    8 ar
    14   14    2 1
    15   15   14 1
    16   16    3 1
    17   17    6 1
    18   18   17 1
    19   19   18 1
    20   20   18 1
    21   21   18 1
    22   22   29 2
    23   23   29 2
    24   24   14 2
    25   25    3 1
    26   26   25 1
    27   27    5 2
    28   28   17 2
    29   29   11 1
    30   30    1 1
    31   31    2 1
    32   32    4 1
    33   33    4 1
    34   34    9 1
    35   35   10 1
    36   36   12 1
    37   37   13 1
    38   38   15 1
    39   39   15 1
    40   40   15 1
    41   41   16 1
    42   42   16 1
    43   43   16 1
    44   12   13 ar
@<TRIPOS>SUBSTRUCTURE
     1 RES1 1

@<TRIPOS>CRYSIN
   8.6405   18.6820   20.1870  90.0000  90.0000  90.0000  61 1

