# MOL2 file generated by ConQuest
# Please check atom types

@<TRIPOS>MOLECULE
COLQUQ
    63    67     1
SMALL
NO_CHARGES
****
Generated from CSD

@<TRIPOS>ATOM
      1 N1         2.3416    7.0673    5.8518 N.3       1 RES1    0.0000
      2 N2         2.2795    6.3283    6.9565 N.2       1 RES1    0.0000
      3 N3         1.3408    6.8343    7.7043 N.2       1 RES1    0.0000
      4 C1         0.8001    7.9186    7.0499 C.ar      1 RES1    0.0000
      5 C2         1.4463    8.0833    5.8319 C.ar      1 RES1    0.0000
      6 C3         1.1294    9.0844    4.9217 C.ar      1 RES1    0.0000
      7 H1         1.5705    9.1746    4.1085 H         1 RES1    0.0000
      8 C4         0.1220    9.9278    5.3022 C.ar      1 RES1    0.0000
      9 H2        -0.1319   10.6159    4.7302 H         1 RES1    0.0000
     10 C5        -0.5385    9.7827    6.5336 C.ar      1 RES1    0.0000
     11 H3        -1.2163   10.3821    6.7566 H         1 RES1    0.0000
     12 C6        -0.2212    8.7996    7.4025 C.ar      1 RES1    0.0000
     13 H4        -0.6701    8.7125    8.2121 H         1 RES1    0.0000
     14 O1         3.3028    6.8343    4.9098 O.3       1 RES1    0.0000
     15 C7         2.9185    5.8544    3.9606 C.2       1 RES1    0.0000
     16 O2         1.9415    5.2095    4.1058 O.2       1 RES1    0.0000
     17 C8         3.8927    5.8348    2.8602 C.ar      1 RES1    0.0000
     18 C9         3.6892    4.9161    1.8385 C.ar      1 RES1    0.0000
     19 H5         2.9962    4.2963    1.9015 H         1 RES1    0.0000
     20 C10        4.5117    4.9223    0.7296 C.ar      1 RES1    0.0000
     21 H6         4.3634    4.3064    0.0485 H         1 RES1    0.0000
     22 C11        5.5633    5.8395    0.6120 C.ar      1 RES1    0.0000
     23 C12        5.7555    6.7307    1.6664 C.ar      1 RES1    0.0000
     24 H7         6.4532    7.3427    1.6204 H         1 RES1    0.0000
     25 C13        4.9409    6.7276    2.7693 C.ar      1 RES1    0.0000
     26 H8         5.0934    7.3301    3.4601 H         1 RES1    0.0000
     27 C14        6.4316    5.8709   -0.5854 C.ar      1 RES1    0.0000
     28 C15        5.9847    5.4339   -1.8240 C.ar      1 RES1    0.0000
     29 H9         5.1134    5.1153   -1.9027 H         1 RES1    0.0000
     30 C16        6.7874    5.4582   -2.9377 C.ar      1 RES1    0.0000
     31 H10        6.4425    5.1608   -3.7485 H         1 RES1    0.0000
     32 C17        8.1033    5.9140   -2.8881 C.ar      1 RES1    0.0000
     33 C18        8.5415    6.3612   -1.6482 C.ar      1 RES1    0.0000
     34 H11        9.4082    6.6821   -1.5670 H         1 RES1    0.0000
     35 C19        7.7294    6.3440   -0.5381 C.ar      1 RES1    0.0000
     36 H12        8.0647    6.6601    0.2703 H         1 RES1    0.0000
     37 C20        8.9577    5.9305   -4.1036 C.ar      1 RES1    0.0000
     38 C21        8.5852    5.2683   -5.2622 C.ar      1 RES1    0.0000
     39 H13        7.7758    4.8070   -5.2683 H         1 RES1    0.0000
     40 C22        9.3558    5.2613   -6.4051 C.ar      1 RES1    0.0000
     41 H14        9.0648    4.7992   -7.1589 H         1 RES1    0.0000
     42 C23       10.5438    5.9328   -6.4318 C.ar      1 RES1    0.0000
     43 C24       10.9421    6.6076   -5.2950 C.ar      1 RES1    0.0000
     44 H15       11.7506    7.0681   -5.2962 H         1 RES1    0.0000
     45 C25       10.1658    6.6099   -4.1654 C.ar      1 RES1    0.0000
     46 H16       10.4583    7.0807   -3.4177 H         1 RES1    0.0000
     47 O3        11.3905    5.9870   -7.5078 O.3       1 RES1    0.0000
     48 C26       11.0590    5.2024   -8.6654 C.3       1 RES1    0.0000
     49 H17       10.2461    5.5406   -9.0689 H         1 RES1    0.0000
     50 H18       10.9072    4.2798   -8.4048 H         1 RES1    0.0000
     51 C27       12.1842    5.2770   -9.6507 C.3       1 RES1    0.0000
     52 H19       11.8893    4.8753  -10.4833 H         1 RES1    0.0000
     53 H20       12.3727    6.2114   -9.8300 H         1 RES1    0.0000
     54 C28       13.4266    4.6266   -9.2422 C.3       1 RES1    0.0000
     55 H21       13.2428    3.6866   -9.0883 H         1 RES1    0.0000
     56 H22       13.7037    5.0094   -8.3951 H         1 RES1    0.0000
     57 C29       14.5610    4.7285  -10.1973 C.3       1 RES1    0.0000
     58 H23       14.5787    5.6606  -10.4639 H         1 RES1    0.0000
     59 H24       15.3534    4.5936   -9.6567 H         1 RES1    0.0000
     60 C30       14.7601    4.1378  -11.1692 C.3       1 RES1    0.0000
     61 H25       15.6231    4.3708  -11.5134 H         1 RES1    0.0000
     62 H26       14.0897    4.3543  -11.8188 H         1 RES1    0.0000
     63 H27       14.7330    3.1963  -10.9826 H         1 RES1    0.0000
@<TRIPOS>BOND
     1    1    2 1
     2    2    3 2
     3    3    4 1
     4    4    5 ar
     5    5    1 1
     6    6    5 ar
     7    7    6 1
     8    8    6 ar
     9    9    8 1
    10   10    8 ar
    11   11   10 1
    12   12    4 ar
    13   13   12 1
    14   14    1 1
    15   15   14 1
    16   16   15 2
    17   17   15 1
    18   18   17 ar
    19   19   18 1
    20   20   18 ar
    21   21   20 1
    22   22   20 ar
    23   23   22 ar
    24   24   23 1
    25   25   17 ar
    26   26   25 1
    27   27   22 1
    28   28   27 ar
    29   29   28 1
    30   30   28 ar
    31   31   30 1
    32   32   30 ar
    33   33   32 ar
    34   34   33 1
    35   35   27 ar
    36   36   35 1
    37   37   32 1
    38   38   37 ar
    39   39   38 1
    40   40   38 ar
    41   41   40 1
    42   42   40 ar
    43   43   42 ar
    44   44   43 1
    45   45   37 ar
    46   46   45 1
    47   47   42 1
    48   48   47 1
    49   49   48 1
    50   50   48 1
    51   51   48 1
    52   52   51 1
    53   53   51 1
    54   54   51 1
    55   55   54 1
    56   56   54 1
    57   57   54 1
    58   58   57 1
    59   59   57 1
    60   60   57 1
    61   61   60 1
    62   62   60 1
    63   63   60 1
    64   10   12 ar
    65   23   25 ar
    66   33   35 ar
    67   43   45 ar
@<TRIPOS>SUBSTRUCTURE
     1 RES1 1

@<TRIPOS>CRYSIN
  52.7951    7.8456   12.2836  90.0000  99.3790  90.0000  15 1

