# MOL2 file generated by ConQuest
# Please check atom types

@<TRIPOS>MOLECULE
COLXUW
    21    21     1
SMALL
NO_CHARGES
****
Generated from CSD

@<TRIPOS>ATOM
      1 C1         4.8960    9.9695    3.4818 C.2       1 RES1    0.0000
      2 N1         5.1824    7.9014    2.2660 N.pl3     1 RES1    0.0000
      3 C2         4.1995    8.6176    3.2550 C.3       1 RES1    0.0000
      4 N2         2.4181   11.2952    4.3858 N.pl3     1 RES1    0.0000
      5 C3         2.8393    8.7145    2.6068 C.2       1 RES1    0.0000
      6 N3         4.9914   12.3892    3.3227 N.pl3     1 RES1    0.0000
      7 C4         2.1828    9.8628    2.4509 C.2       1 RES1    0.0000
      8 O1         5.8892   10.0648    4.1461 O.2       1 RES1    0.0000
      9 C5         2.7709   11.2164    2.8787 C.3       1 RES1    0.0000
     10 O2         6.1380    7.3379    2.7315 O.2       1 RES1    0.0000
     11 C6         4.3128   11.1654    2.7229 C.3       1 RES1    0.0000
     12 O3         4.9550    7.9950    1.0900 O.2       1 RES1    0.0000
     13 C7         4.1870    7.7979    4.5417 C.3       1 RES1    0.0000
     14 O4         3.0589   10.5921    5.1415 O.2       1 RES1    0.0000
     15 C8         2.2153    7.3938    2.2305 C.3       1 RES1    0.0000
     16 O5         1.4949   11.9868    4.7309 O.2       1 RES1    0.0000
     17 C9         0.7837    9.9252    1.8908 C.3       1 RES1    0.0000
     18 O6         4.4369   12.9543    4.2557 O.2       1 RES1    0.0000
     19 C10        2.1888   12.4221    2.1800 C.3       1 RES1    0.0000
     20 O7         6.0633   12.7112    2.8755 O.2       1 RES1    0.0000
     21 C11        4.7099   11.0964    1.2426 C.3       1 RES1    0.0000
@<TRIPOS>BOND
     1    1    3 1
     2    2    3 1
     3    3    5 1
     4    4    9 1
     5    5    7 2
     6    6   11 1
     7    7    9 1
     8    8    1 2
     9    9   11 1
    10   10    2 2
    11   11    1 1
    12   12    2 2
    13   13    3 1
    14   14    4 2
    15   15    5 1
    16   16    4 2
    17   17    7 1
    18   18    6 2
    19   19    9 1
    20   20    6 2
    21   21   11 1
@<TRIPOS>SUBSTRUCTURE
     1 RES1 1

@<TRIPOS>CRYSIN
   7.7740   16.4270   11.1980  90.0000 106.2700  90.0000 231 1

