# MOL2 file generated by ConQuest
# Please check atom types

@<TRIPOS>MOLECULE
COLYEH
    21    21     1
SMALL
NO_CHARGES
****
Generated from CSD

@<TRIPOS>ATOM
      1 C1         2.6352    3.1002    8.0487 C.2       1 RES1    0.0000
      2 N1         2.6836    5.2371    9.1596 N.pl3     1 RES1    0.0000
      3 C2         3.5802    4.0297    8.8119 C.3       1 RES1    0.0000
      4 N2         1.7643    1.1813   10.2100 N.pl3     1 RES1    0.0000
      5 C3         4.1030    3.4447   10.1052 C.2       1 RES1    0.0000
      6 N3         4.2952    1.4838    7.3286 N.pl3     1 RES1    0.0000
      7 C4         3.9815    2.1528   10.4283 C.2       1 RES1    0.0000
      8 O1         1.7118    3.5057    7.4100 O.2       1 RES1    0.0000
      9 C5         3.2054    1.1494    9.5862 C.3       1 RES1    0.0000
     10 O2         2.8532    6.2842    8.5579 O.2       1 RES1    0.0000
     11 C6         2.9730    1.5974    8.1116 C.3       1 RES1    0.0000
     12 O3         1.8374    5.0737    9.9967 O.2       1 RES1    0.0000
     13 C7         4.7029    4.5217    7.8884 C.3       1 RES1    0.0000
     14 O4         1.1248    2.1936   10.0683 O.2       1 RES1    0.0000
     15 C8         4.8665    4.4315   10.9560 C.3       1 RES1    0.0000
     16 O5         1.3743    0.1991   10.7760 O.2       1 RES1    0.0000
     17 C9         4.5740    1.5995   11.6945 C.3       1 RES1    0.0000
     18 O6         5.3256    1.2783    7.9242 O.2       1 RES1    0.0000
     19 C10        3.7076   -0.2857    9.6885 C.3       1 RES1    0.0000
     20 O7         4.2221    1.6333    6.1339 O.2       1 RES1    0.0000
     21 C11        1.9535    0.7640    7.3422 C.3       1 RES1    0.0000
@<TRIPOS>BOND
     1    1    3 1
     2    2    3 1
     3    3    5 1
     4    4    9 1
     5    5    7 2
     6    6   11 1
     7    7    9 1
     8    8    1 2
     9    9   11 1
    10   10    2 2
    11   11    1 1
    12   12    2 2
    13   13    3 1
    14   14    4 2
    15   15    5 1
    16   16    4 2
    17   17    7 1
    18   18    6 2
    19   19    9 1
    20   20    6 2
    21   21   11 1
@<TRIPOS>SUBSTRUCTURE
     1 RES1 1

@<TRIPOS>CRYSIN
   6.5550    8.7100   12.4730  87.7100  81.3100  71.9600   2 1

