# MOL2 file generated by ConQuest
# Please check atom types

@<TRIPOS>MOLECULE
COLYAD
    21    21     1
SMALL
NO_CHARGES
****
Generated from CSD

@<TRIPOS>ATOM
      1 C1         2.0383    1.2722    1.4873 C.2       1 RES1    0.0000
      2 N1         4.1938    2.2801    1.8286 N.pl3     1 RES1    0.0000
      3 C2         3.3101    1.0778    2.3314 C.3       1 RES1    0.0000
      4 N2         0.6946   -0.5591    3.3355 N.pl3     1 RES1    0.0000
      5 C3         3.1547    1.2394    3.8201 C.2       1 RES1    0.0000
      6 N3         0.8512    3.2116    2.4353 N.pl3     1 RES1    0.0000
      7 C4         1.9699    1.2252    4.4183 C.2       1 RES1    0.0000
      8 O1         2.0904    1.2001    0.2949 O.2       1 RES1    0.0000
      9 C5         0.6762    1.0025    3.6248 C.3       1 RES1    0.0000
     10 O2         3.8177    3.3863    2.1656 O.2       1 RES1    0.0000
     11 C6         0.7367    1.6500    2.2359 C.3       1 RES1    0.0000
     12 O3         5.1610    2.0628    1.1404 O.2       1 RES1    0.0000
     13 C7         4.0235   -0.1987    1.9409 C.3       1 RES1    0.0000
     14 O4         0.3628   -1.2700    4.2639 O.2       1 RES1    0.0000
     15 C8         4.4779    1.3694    4.5841 C.3       1 RES1    0.0000
     16 O5         1.0701   -0.9653    2.2527 O.2       1 RES1    0.0000
     17 C9         1.8053    1.2613    5.9267 C.3       1 RES1    0.0000
     18 O6         0.8570    3.6735    3.5448 O.2       1 RES1    0.0000
     19 C10       -0.6243    1.2831    4.3650 C.3       1 RES1    0.0000
     20 O7         0.9025    3.8373    1.4016 O.2       1 RES1    0.0000
     21 C11       -0.4943    1.4294    1.3454 C.3       1 RES1    0.0000
@<TRIPOS>BOND
     1    1    3 1
     2    2    3 1
     3    3    5 1
     4    4    9 1
     5    5    7 2
     6    6   11 1
     7    7    9 1
     8    8    1 2
     9    9   11 1
    10   10    2 2
    11   11    1 1
    12   12    2 2
    13   13    3 1
    14   14    4 2
    15   15    5 1
    16   16    4 2
    17   17    7 1
    18   18    6 2
    19   19    9 1
    20   20    6 2
    21   21   11 1
@<TRIPOS>SUBSTRUCTURE
     1 RES1 1

@<TRIPOS>CRYSIN
   9.0450   10.9200   14.4290  90.0000 103.2600  90.0000  14 1

