# MOL2 file generated by ConQuest
# Please check atom types

@<TRIPOS>MOLECULE
COLYIL
    21    21     1
SMALL
NO_CHARGES
****
Generated from CSD

@<TRIPOS>ATOM
      1 C1         4.5724   -3.1787    4.7883 C.2       1 RES1    0.0000
      2 N1         3.0572    0.4196    3.7773 N.pl3     1 RES1    0.0000
      3 C2         3.2252   -2.8131    5.2526 C.2       1 RES1    0.0000
      4 N2         3.9786   -2.7434    1.8944 N.pl3     1 RES1    0.0000
      5 C3         2.5216   -1.8244    4.6993 C.2       1 RES1    0.0000
      6 N3         6.5074   -2.7603    3.3104 N.pl3     1 RES1    0.0000
      7 C4         2.9419   -1.1091    3.4265 C.3       1 RES1    0.0000
      8 O1         5.1675   -4.1775    5.1339 O.2       1 RES1    0.0000
      9 C5         4.3471   -1.5545    2.8320 C.3       1 RES1    0.0000
     10 O2         3.2565    0.7300    4.9250 O.2       1 RES1    0.0000
     11 C6         5.2777   -2.1079    3.9475 C.3       1 RES1    0.0000
     12 O3         2.9015    1.2058    2.8642 O.2       1 RES1    0.0000
     13 C7         2.6991   -3.6376    6.4119 C.3       1 RES1    0.0000
     14 O4         3.5521   -3.7535    2.4258 O.2       1 RES1    0.0000
     15 C8         1.1643   -1.4420    5.2307 C.3       1 RES1    0.0000
     16 O5         4.0916   -2.5848    0.7015 O.2       1 RES1    0.0000
     17 C9         1.8326   -1.1912    2.3651 C.3       1 RES1    0.0000
     18 O6         6.3553   -3.5128    2.3858 O.2       1 RES1    0.0000
     19 C10        5.0498   -0.5005    1.9899 C.3       1 RES1    0.0000
     20 O7         7.5664   -2.5364    3.7566 O.2       1 RES1    0.0000
     21 C11        5.7846   -1.0506    4.9250 C.3       1 RES1    0.0000
@<TRIPOS>BOND
     1    1    3 1
     2    2    7 1
     3    3    5 2
     4    4    9 1
     5    5    7 1
     6    6   11 1
     7    7    9 1
     8    8    1 2
     9    9   11 1
    10   10    2 2
    11   11    1 1
    12   12    2 2
    13   13    3 1
    14   14    4 2
    15   15    5 1
    16   16    4 2
    17   17    7 1
    18   18    6 2
    19   19    9 1
    20   20    6 2
    21   21   11 1
@<TRIPOS>SUBSTRUCTURE
     1 RES1 1

@<TRIPOS>CRYSIN
   9.3740   11.2480   13.0400  90.0000  98.5200  90.0000 231 1

