# MOL2 file generated by ConQuest
# Please check atom types

@<TRIPOS>MOLECULE
COLYOR
    21    21     1
SMALL
NO_CHARGES
****
Generated from CSD

@<TRIPOS>ATOM
      1 C1         4.4002   11.4484    2.8023 C.2       1 RES1    0.0000
      2 N1         5.4331    7.6213    4.0813 N.pl3     1 RES1    0.0000
      3 C2         5.0944   11.1923    4.0813 C.2       1 RES1    0.0000
      4 N2         5.2240    8.7906    1.7167 N.pl3     1 RES1    0.0000
      5 C3         5.0698    9.9885    4.6631 C.2       1 RES1    0.0000
      6 N3         3.1152   10.6144    0.8402 N.pl3     1 RES1    0.0000
      7 C4         4.3474    8.7817    4.0696 C.3       1 RES1    0.0000
      8 O1         4.5023   12.4890    2.1919 O.2       1 RES1    0.0000
      9 C5         3.9000    8.9419    2.5633 C.3       1 RES1    0.0000
     10 O2         6.6174    7.9372    3.9476 O.2       1 RES1    0.0000
     11 C6         3.3665   10.3778    2.3517 C.3       1 RES1    0.0000
     12 C7         5.8320   12.3827    4.6592 C.3       1 RES1    0.0000
     13 O3         5.9874    9.7519    1.6634 O.2       1 RES1    0.0000
     14 C8         5.7284    9.7654    6.0058 C.3       1 RES1    0.0000
     15 O4         5.4404    7.7141    1.2063 O.2       1 RES1    0.0000
     16 C9         3.1970    8.3055    4.9812 C.3       1 RES1    0.0000
     17 O5         3.6917    9.9361    0.0208 O.2       1 RES1    0.0000
     18 C10        2.9163    7.8638    2.1088 C.3       1 RES1    0.0000
     19 C11        2.0423   10.7087    3.0840 C.3       1 RES1    0.0000
     20 O6         5.0196    6.4863    4.2086 O.2       1 RES1    0.0000
     21 O7         2.3638   11.5292    0.5480 O.2       1 RES1    0.0000
@<TRIPOS>BOND
     1    1    3 1
     2    2    7 1
     3    3    5 2
     4    4    9 1
     5    5    7 1
     6    6   11 1
     7    7    9 1
     8    8    1 2
     9    9   11 1
    10   10    2 2
    11   11    1 1
    12   12    3 1
    13   13    4 2
    14   14    5 1
    15   15    4 2
    16   16    7 1
    17   17    6 2
    18   18    9 1
    19   19   11 1
    20   20    2 2
    21   21    6 2
@<TRIPOS>SUBSTRUCTURE
     1 RES1 1

@<TRIPOS>CRYSIN
   6.9820   14.9730   13.0810  90.0000  96.9300  90.0000  14 1

