# MOL2 file generated by ConQuest
# Please check atom types

@<TRIPOS>MOLECULE
COLYUX
    19    19     1
SMALL
NO_CHARGES
****
Generated from CSD

@<TRIPOS>ATOM
      1 C1         0.3257    4.7147    0.5714 C.2       1 RES1    0.0000
      2 C2         2.5277    3.8569   -0.2808 C.3       1 RES1    0.0000
      3 C3         0.7600    5.3971    1.9557 C.3       1 RES1    0.0000
      4 N1        -0.3345    2.0832    1.8365 N.pl3     1 RES1    0.0000
      5 C4         1.4791    4.4702    2.9743 C.2       1 RES1    0.0000
      6 N2         0.4047    2.8554   -1.1133 N.pl3     1 RES1    0.0000
      7 C5         1.6219    3.1524    2.7719 C.2       1 RES1    0.0000
      8 O1        -0.4607    5.2051   -0.2334 O.2       1 RES1    0.0000
      9 C6         1.1210    2.4589    1.4349 C.3       1 RES1    0.0000
     10 O2         1.7332    6.3752    1.5002 O.3       1 RES1    0.0000
     11 C7         1.0945    3.4480    0.1926 C.3       1 RES1    0.0000
     12 O3        -1.1362    3.0142    1.9230 O.2       1 RES1    0.0000
     13 C8        -0.4492    6.0464    2.6560 C.3       1 RES1    0.0000
     14 O4        -0.6272    0.9324    2.1156 O.2       1 RES1    0.0000
     15 C9         2.0139    5.1803    4.2590 C.3       1 RES1    0.0000
     16 O5        -0.5232    2.0887   -0.8978 O.2       1 RES1    0.0000
     17 C10        2.1950    2.2310    3.8852 C.3       1 RES1    0.0000
     18 O6         0.7662    3.2380   -2.2756 O.2       1 RES1    0.0000
     19 C11        1.8648    1.1811    1.0497 C.3       1 RES1    0.0000
@<TRIPOS>BOND
     1    1    3 1
     2    2   11 1
     3    3    5 1
     4    4    9 1
     5    5    7 2
     6    6   11 1
     7    7    9 1
     8    8    1 2
     9    9   11 1
    10   10    3 1
    11   11    1 1
    12   12    4 2
    13   13    3 1
    14   14    4 2
    15   15    5 1
    16   16    6 2
    17   17    7 1
    18   18    6 2
    19   19    9 1
@<TRIPOS>SUBSTRUCTURE
     1 RES1 1

@<TRIPOS>CRYSIN
   6.1190   13.8140   16.6210  90.0000 100.8400  90.0000  14 1

