# MOL2 file generated by ConQuest
# Please check atom types

@<TRIPOS>MOLECULE
COMDIT
    39    41     1
SMALL
NO_CHARGES
****
Generated from CSD

@<TRIPOS>ATOM
      1 C1         1.8503   -0.4027    1.5000 C.3       1 RES1    0.0000
      2 H1         1.0364   -0.9202    1.6028 H         1 RES1    0.0000
      3 H2         2.1722   -0.3233    0.5891 H         1 RES1    0.0000
      4 C2         2.8659   -0.4788    2.5925 C.3       1 RES1    0.0000
      5 H3         3.8028   -0.4474    2.3402 H         1 RES1    0.0000
      6 H4         2.6668   -1.0443    3.3551 H         1 RES1    0.0000
      7 C3         2.0582    0.7662    2.4213 C.3       1 RES1    0.0000
      8 H5         2.5285    1.5374    2.0400 H         1 RES1    0.0000
      9 C4         0.9981    1.0735    3.4304 C.3       1 RES1    0.0000
     10 H6         0.5810    0.2361    3.7215 H         1 RES1    0.0000
     11 C5        -0.0789    2.0207    2.9555 C.ar      1 RES1    0.0000
     12 C6        -0.6312    1.8535    1.6975 C.ar      1 RES1    0.0000
     13 H7        -0.3462    1.1469    1.1633 H         1 RES1    0.0000
     14 C7        -1.5951    2.7169    1.2226 C.ar      1 RES1    0.0000
     15 H8        -1.9424    2.5961    0.3676 H         1 RES1    0.0000
     16 C8        -2.0482    3.7523    2.0000 C.ar      1 RES1    0.0000
     17 H9        -2.6912    4.3393    1.6747 H         1 RES1    0.0000
     18 C9        -1.5359    3.9101    3.2683 C.ar      1 RES1    0.0000
     19 H10       -1.8501    4.5969    3.8094 H         1 RES1    0.0000
     20 C10       -0.5603    3.0595    3.7410 C.ar      1 RES1    0.0000
     21 H11       -0.2204    3.1825    4.5983 H         1 RES1    0.0000
     22 C11        1.5234    1.1336    5.7604 C.2       1 RES1    0.0000
     23 C12        2.2178    1.9297    6.8175 C.ar      1 RES1    0.0000
     24 C13        2.9619    3.0561    6.5138 C.ar      1 RES1    0.0000
     25 H12        3.0283    3.3529    5.6348 H         1 RES1    0.0000
     26 C14        3.6018    3.7319    7.5253 C.ar      1 RES1    0.0000
     27 C15        3.5099    3.3513    8.8495 C.ar      1 RES1    0.0000
     28 H13        3.9422    3.8235    9.5242 H         1 RES1    0.0000
     29 C16        2.1053    1.5143    8.1429 C.ar      1 RES1    0.0000
     30 H14        1.6073    0.7602    8.3621 H         1 RES1    0.0000
     31 C17        2.7469    2.2419    9.1224 C.ar      1 RES1    0.0000
     32 N1         4.4142    4.9009    7.1748 N.pl3     1 RES1    0.0000
     33 N2         2.5822    1.8182   10.5242 N.pl3     1 RES1    0.0000
     34 O1         1.6680    1.6980    4.5719 O.3       1 RES1    0.0000
     35 O2         0.9494    0.1136    5.9796 O.2       1 RES1    0.0000
     36 O3         2.0921    0.7205   10.7320 O.2       1 RES1    0.0000
     37 O4         2.9432    2.5856   11.3975 O.2       1 RES1    0.0000
     38 O5         5.1335    5.3824    8.0356 O.2       1 RES1    0.0000
     39 O6         4.3182    5.3400    6.0344 O.2       1 RES1    0.0000
@<TRIPOS>BOND
     1    1    2 1
     2    3    1 1
     3    4    1 1
     4    5    4 1
     5    6    4 1
     6    7    1 1
     7    8    7 1
     8    9    7 1
     9   10    9 1
    10   11    9 1
    11   12   11 ar
    12   13   12 1
    13   14   12 ar
    14   15   14 1
    15   16   14 ar
    16   17   16 1
    17   18   16 ar
    18   19   18 1
    19   20   11 ar
    20   21   20 1
    21   22   23 1
    22   23   24 ar
    23   24   25 1
    24   26   24 ar
    25   27   26 ar
    26   28   27 1
    27   29   23 ar
    28   30   29 1
    29   31   27 ar
    30   32   26 1
    31   33   31 1
    32   34    9 1
    33   35   22 2
    34   36   33 2
    35   37   33 2
    36   38   32 2
    37   39   32 2
    38    4    7 1
    39   18   20 ar
    40   22   34 1
    41   29   31 ar
@<TRIPOS>SUBSTRUCTURE
     1 RES1 1

@<TRIPOS>CRYSIN
  24.7550    5.5165   11.6413  90.0000 101.2960  90.0000   5 1

