# MOL2 file generated by ConQuest
# Please check atom types

@<TRIPOS>MOLECULE
COMGEQ
    26    28     1
SMALL
NO_CHARGES
****
Generated from CSD

@<TRIPOS>ATOM
      1 O1         1.3735    1.0437    1.0409 O.3       1 RES1    0.0000
      2 C1         2.1584    2.0587    1.4936 C.2       1 RES1    0.0000
      3 C2         3.3843    1.6752    1.9263 C.2       1 RES1    0.0000
      4 C3         1.7397   -1.3528    0.8055 C.ar      1 RES1    0.0000
      5 C4         2.6207   -2.3545    1.0092 C.ar      1 RES1    0.0000
      6 C5         4.8090   -3.1978    1.7816 C.ar      1 RES1    0.0000
      7 C6         6.0504   -2.9975    2.3106 C.ar      1 RES1    0.0000
      8 C7         6.4579   -1.7096    2.6295 C.ar      1 RES1    0.0000
      9 C8         5.6355   -0.6354    2.4496 C.ar      1 RES1    0.0000
     10 C9         4.3337   -0.8071    1.9227 C.ar      1 RES1    0.0000
     11 C10        3.9194   -2.1236    1.5728 C.ar      1 RES1    0.0000
     12 C11        3.3867    0.2480    1.7110 C.ar      1 RES1    0.0000
     13 C12        2.1544   -0.0706    1.1769 C.ar      1 RES1    0.0000
     14 N1         1.5404    3.3295    1.4346 N.pl3     1 RES1    0.0000
     15 O2         0.3407    3.3791    1.1553 O.2       1 RES1    0.0000
     16 O3         2.2252    4.3140    1.6606 O.2       1 RES1    0.0000
     17 C13        4.4716    2.5319    2.5165 C.3       1 RES1    0.0000
     18 H1         0.8279   -1.4901    0.3750 H         1 RES1    0.0000
     19 H2         2.3731   -3.3466    0.7609 H         1 RES1    0.0000
     20 H3         4.4928   -4.1385    1.5217 H         1 RES1    0.0000
     21 H4         6.6772   -3.7969    2.4654 H         1 RES1    0.0000
     22 H5         7.4138   -1.5665    3.0089 H         1 RES1    0.0000
     23 H6         5.9559    0.3015    2.6706 H         1 RES1    0.0000
     24 H7         5.3002    2.5567    1.8759 H         1 RES1    0.0000
     25 H8         4.8036    2.1828    3.4415 H         1 RES1    0.0000
     26 H9         4.0961    3.5184    2.6662 H         1 RES1    0.0000
@<TRIPOS>BOND
     1    1    2 1
     2    2    3 2
     3    3   12 1
     4    4    5 ar
     5    5   11 ar
     6    6    7 ar
     7    7    8 ar
     8    8    9 ar
     9    9   10 ar
    10   10   11 ar
    11   11    6 ar
    12   12   10 ar
    13   13    1 1
    14   14    2 1
    15   15   14 2
    16   16   14 2
    17   17    3 1
    18   18    4 1
    19   19    5 1
    20   20    6 1
    21   21    7 1
    22   22    8 1
    23   23    9 1
    24   24   17 1
    25   25   17 1
    26   26   17 1
    27    4   13 ar
    28   12   13 ar
@<TRIPOS>SUBSTRUCTURE
     1 RES1 1

@<TRIPOS>CRYSIN
   7.7030   19.0800    7.2550  90.0000  97.1700  90.0000 231 1

