# MOL2 file generated by ConQuest
# Please check atom types

@<TRIPOS>MOLECULE
COMGUG
    28    30     1
SMALL
NO_CHARGES
****
Generated from CSD

@<TRIPOS>ATOM
      1 N1         1.6294    4.3380    4.9430 N.am      1 RES1    0.0000
      2 C1         1.3466    4.8883    3.6762 C.2       1 RES1    0.0000
      3 C2         0.0812    4.2599    3.2337 C.ar      1 RES1    0.0000
      4 C3        -0.6365    4.4336    2.0651 C.ar      1 RES1    0.0000
      5 C4        -1.8364    3.7506    1.9560 C.ar      1 RES1    0.0000
      6 C5        -2.2990    2.9462    2.9749 C.ar      1 RES1    0.0000
      7 C6        -1.5819    2.7641    4.1461 C.ar      1 RES1    0.0000
      8 C7        -0.3687    3.4367    4.2519 C.ar      1 RES1    0.0000
      9 C8         0.6302    3.4348    5.3440 C.2       1 RES1    0.0000
     10 C9         2.7640    4.6934    5.7285 C.ar      1 RES1    0.0000
     11 C10        2.6582    5.1881    7.0215 C.ar      1 RES1    0.0000
     12 C11        3.7900    5.4754    7.7783 C.ar      1 RES1    0.0000
     13 C12        5.0265    5.3052    7.2153 C.ar      1 RES1    0.0000
     14 C13        5.1489    4.8419    5.9319 C.ar      1 RES1    0.0000
     15 C14        4.0258    4.5298    5.1955 C.ar      1 RES1    0.0000
     16 N2         1.3624    5.4924    7.6431 N.pl3     1 RES1    0.0000
     17 O1         0.4126    5.7792    6.9303 O.2       1 RES1    0.0000
     18 O2         1.3014    5.4865    8.8608 O.2       1 RES1    0.0000
     19 O3         2.0190    5.7261    3.1336 O.2       1 RES1    0.0000
     20 O4         0.6446    2.8215    6.3750 O.2       1 RES1    0.0000
     21 H1        -0.3185    5.0247    1.4275 H         1 RES1    0.0000
     22 H2        -2.3195    3.8424    1.0972 H         1 RES1    0.0000
     23 H3        -3.1787    2.5032    2.8977 H         1 RES1    0.0000
     24 H4        -1.8706    2.2438    4.8251 H         1 RES1    0.0000
     25 H5         3.6381    5.7940    8.6466 H         1 RES1    0.0000
     26 H6         5.8185    5.5066    7.6973 H         1 RES1    0.0000
     27 H7         5.9859    4.7347    5.5360 H         1 RES1    0.0000
     28 H8         4.1234    4.1953    4.3233 H         1 RES1    0.0000
@<TRIPOS>BOND
     1    1    2 1
     2    2    3 1
     3    3    4 ar
     4    4    5 ar
     5    5    6 ar
     6    6    7 ar
     7    7    8 ar
     8    8    3 ar
     9    9    1 1
    10   10    1 1
    11   11   10 ar
    12   12   11 ar
    13   13   12 ar
    14   14   13 ar
    15   15   10 ar
    16   16   11 1
    17   17   16 2
    18   18   16 2
    19   19    2 2
    20   20    9 2
    21   21    4 1
    22   22    5 1
    23   23    6 1
    24   24    7 1
    25   25   12 1
    26   26   13 1
    27   27   14 1
    28   28   15 1
    29    8    9 1
    30   14   15 ar
@<TRIPOS>SUBSTRUCTURE
     1 RES1 1

@<TRIPOS>CRYSIN
  12.5780    7.6610    7.3240  61.5300 103.9300 104.8900   2 1

