# MOL2 file generated by ConQuest
# Please check atom types

@<TRIPOS>MOLECULE
COMLOF
    73    72     1
SMALL
NO_CHARGES
****
Generated from CSD

@<TRIPOS>ATOM
      1 C1        10.6547   11.1619    7.3188 C.3       1 RES1    0.0000
      2 C2        10.8648   11.6872    5.9028 C.2       1 RES1    0.0000
      3 C3        11.0246   13.0086    5.6071 C.2       1 RES1    0.0000
      4 C4        10.9082   14.0900    6.6708 C.3       1 RES1    0.0000
      5 C5         9.7550   15.0661    6.4053 C.3       1 RES1    0.0000
      6 C6         8.4195   14.3772    6.2041 C.3       1 RES1    0.0000
      7 C7         7.2837   15.4042    5.8934 C.3       1 RES1    0.0000
      8 C8         6.6325   15.1897    4.5152 C.3       1 RES1    0.0000
      9 C9         5.6929   16.3021    4.1496 C.3       1 RES1    0.0000
     10 N1        10.9152   10.6911    5.0026 N.3       1 RES1    0.0000
     11 C10       11.3650   13.3884    4.2507 C.2       1 RES1    0.0000
     12 C11       12.1326   15.2169    2.8914 C.3       1 RES1    0.0000
     13 C12       12.1830   16.6601    2.9840 C.3       1 RES1    0.0000
     14 O1        12.8359   16.3784    8.5231 O.2       1 RES1    0.0000
     15 N2        12.4209   15.2678    8.3210 N.pl3     1 RES1    0.0000
     16 C13       12.2264   14.8589    6.8833 C.3       1 RES1    0.0000
     17 C14        9.7568   17.2799    7.3972 C.2       1 RES1    0.0000
     18 C15        9.8141   17.9906    8.7215 C.3       1 RES1    0.0000
     19 O2         8.1243   13.6375    7.3915 O.3       1 RES1    0.0000
     20 O3         6.8721   12.2670    6.1125 O.2       1 RES1    0.0000
     21 C16        7.2646   12.6014    7.2054 C.2       1 RES1    0.0000
     22 C17        6.9207   11.9507    8.5127 C.3       1 RES1    0.0000
     23 O4         6.1861   15.2279    6.8143 O.3       1 RES1    0.0000
     24 C18        6.0350   16.1239    7.8024 C.2       1 RES1    0.0000
     25 C19        4.8958   15.7659    8.6979 C.3       1 RES1    0.0000
     26 C20        7.4834   14.5426    2.4040 C.2       1 RES1    0.0000
     27 C21        8.6713   14.5971    1.4802 C.3       1 RES1    0.0000
     28 O5         6.4293   17.5526    4.1817 O.3       1 RES1    0.0000
     29 O6         6.5404   17.6489    1.9846 O.2       1 RES1    0.0000
     30 C22        6.8756   18.0706    3.0095 C.2       1 RES1    0.0000
     31 C23        7.7752   19.2266    3.2579 C.3       1 RES1    0.0000
     32 O7        11.6446   14.7207    4.1553 O.3       1 RES1    0.0000
     33 O8        11.4310   12.6505    3.2730 O.2       1 RES1    0.0000
     34 O9        12.1916   14.4608    9.1673 O.2       1 RES1    0.0000
     35 O10        9.6960   15.9222    7.5823 O.3       1 RES1    0.0000
     36 O11        9.7724   17.7852    6.3298 O.2       1 RES1    0.0000
     37 O12        6.7644   17.0764    7.9110 O.2       1 RES1    0.0000
     38 O13        7.7387   15.1442    3.5734 O.3       1 RES1    0.0000
     39 O14        6.4553   14.0119    2.1348 O.2       1 RES1    0.0000
     40 H1        10.8023    9.6878    5.1292 H         1 RES1    0.0000
     41 H2        11.0628   11.0510    3.9862 H         1 RES1    0.0000
     42 H3         9.7776   11.6690    7.6890 H         1 RES1    0.0000
     43 H4        11.5143   11.5054    7.8969 H         1 RES1    0.0000
     44 H5        10.5418   10.1240    7.5662 H         1 RES1    0.0000
     45 H6        10.6981   13.5593    7.5851 H         1 RES1    0.0000
     46 H7         9.9339   15.6132    5.4881 H         1 RES1    0.0000
     47 H8         8.4751   13.7047    5.3559 H         1 RES1    0.0000
     48 H9         7.7804   16.3584    5.9604 H         1 RES1    0.0000
     49 H10        6.0263   14.2863    4.5152 H         1 RES1    0.0000
     50 H11        4.8280   16.3402    4.7891 H         1 RES1    0.0000
     51 H12        5.2101   16.1403    3.1927 H         1 RES1    0.0000
     52 H13       11.5317   14.8861    2.0498 H         1 RES1    0.0000
     53 H14       13.0774   14.7953    2.6165 H         1 RES1    0.0000
     54 H15       12.8689   16.9582    3.7878 H         1 RES1    0.0000
     55 H16       11.2191   17.0673    3.1927 H         1 RES1    0.0000
     56 H17       12.5563   17.0491    2.0498 H         1 RES1    0.0000
     57 H18       12.2785   15.7222    6.2249 H         1 RES1    0.0000
     58 H19       13.0774   14.2863    6.5272 H         1 RES1    0.0000
     59 H20       10.6807   17.6671    9.2665 H         1 RES1    0.0000
     60 H21        8.9266   17.7398    9.2854 H         1 RES1    0.0000
     61 H22        9.8645   19.0666    8.5770 H         1 RES1    0.0000
     62 H23        6.4605   12.6868    9.1532 H         1 RES1    0.0000
     63 H24        7.8152   11.5781    8.9643 H         1 RES1    0.0000
     64 H25        6.2348   11.1237    8.3597 H         1 RES1    0.0000
     65 H26        5.0885   14.7953    9.1343 H         1 RES1    0.0000
     66 H27        3.9944   15.7222    8.1141 H         1 RES1    0.0000
     67 H28        4.7759   16.4856    9.4932 H         1 RES1    0.0000
     68 H29        9.4997   14.1046    1.9553 H         1 RES1    0.0000
     69 H30        8.9266   15.6314    1.3035 H         1 RES1    0.0000
     70 H31        8.4751   14.1228    0.5384 H         1 RES1    0.0000
     71 H32        8.6140   18.8849    3.8445 H         1 RES1    0.0000
     72 H33        7.2247   19.9754    3.8067 H         1 RES1    0.0000
     73 H34        8.1451   19.6301    2.3237 H         1 RES1    0.0000
@<TRIPOS>BOND
     1    1    2 1
     2    2    3 2
     3    3    4 1
     4    4    5 1
     5    5    6 1
     6    6    7 1
     7    7    8 1
     8    8    9 1
     9    9   28 1
    10   10    2 1
    11   11    3 1
    12   12   13 1
    13   13   54 1
    14   14   15 2
    15   15   16 1
    16   16    4 1
    17   17   18 1
    18   18   59 1
    19   19    6 1
    20   20   21 2
    21   21   19 1
    22   22   21 1
    23   23    7 1
    24   24   23 1
    25   25   24 1
    26   26   27 1
    27   27   68 1
    28   28   30 1
    29   29   30 2
    30   30   31 1
    31   31   71 1
    32   32   11 1
    33   33   11 2
    34   34   15 2
    35   35    5 1
    36   36   17 2
    37   37   24 2
    38   38    8 1
    39   39   26 2
    40   40   10 1
    41   41   10 1
    42   42    1 1
    43   43    1 1
    44   44    1 1
    45   45    4 1
    46   46    5 1
    47   47    6 1
    48   48    7 1
    49   49    8 1
    50   50    9 1
    51   51    9 1
    52   52   12 1
    53   53   12 1
    54   55   13 1
    55   56   13 1
    56   57   16 1
    57   58   16 1
    58   60   18 1
    59   61   18 1
    60   62   22 1
    61   63   22 1
    62   64   22 1
    63   65   25 1
    64   66   25 1
    65   67   25 1
    66   69   27 1
    67   70   27 1
    68   72   31 1
    69   73   31 1
    70   12   32 1
    71   17   35 1
    72   26   38 1
@<TRIPOS>SUBSTRUCTURE
     1 RES1 1

@<TRIPOS>CRYSIN
  17.3670   18.1760    9.4460  90.0000  90.0000  90.0000  19 1

