# MOL2 file generated by ConQuest
# Please check atom types

@<TRIPOS>MOLECULE
CONXIN
    25    25     1
SMALL
NO_CHARGES
****
Generated from CSD

@<TRIPOS>ATOM
      1 O1         0.4150    0.3398    3.3166 O.2       1 RES1    0.0000
      2 O2         0.9264   -0.0350    1.2437 O.2       1 RES1    0.0000
      3 N1         3.1670    3.2766    3.6885 N.ar      1 RES1    0.0000
      4 N2         1.0700    0.5711    2.3002 N.pl3     1 RES1    0.0000
      5 N3         4.9669    3.9598   -0.7014 N.1       1 RES1    0.0000
      6 N4         4.7024    4.7022    2.7442 N.3       1 RES1    0.0000
      7 C1         2.2936    2.2856    3.5596 C.ar      1 RES1    0.0000
      8 C2         2.0519    1.6391    2.3540 C.ar      1 RES1    0.0000
      9 C3         2.7343    2.0195    1.2090 C.ar      1 RES1    0.0000
     10 C4         3.6320    3.0628    1.3158 C.ar      1 RES1    0.0000
     11 C5         3.8418    3.6930    2.5879 C.ar      1 RES1    0.0000
     12 C6         4.3608    3.5343    0.1734 C.1       1 RES1    0.0000
     13 C7         4.9518    5.3170    4.0539 C.3       1 RES1    0.0000
     14 C8         5.7936    6.5716    3.9019 C.3       1 RES1    0.0000
     15 C9         5.0514    7.7089    3.2210 C.3       1 RES1    0.0000
     16 H1         1.8780    2.0894    4.3927 H         1 RES1    0.0000
     17 H2         2.6217    1.6320    0.3879 H         1 RES1    0.0000
     18 H3         5.1864    4.9201    2.0108 H         1 RES1    0.0000
     19 H4         4.1171    5.5430    4.4578 H         1 RES1    0.0000
     20 H5         5.4033    4.6893    4.6113 H         1 RES1    0.0000
     21 H6         6.5667    6.3551    3.3888 H         1 RES1    0.0000
     22 H7         6.0706    6.8589    4.7690 H         1 RES1    0.0000
     23 H8         4.2749    7.9347    3.7294 H         1 RES1    0.0000
     24 H9         5.6101    8.4697    3.1481 H         1 RES1    0.0000
     25 H10        4.7754    7.4340    2.3493 H         1 RES1    0.0000
@<TRIPOS>BOND
     1    1    4 2
     2    2    4 2
     3    3    7 ar
     4    4    8 1
     5    5   12 3
     6    6   11 1
     7    7    8 ar
     8    8    9 ar
     9    9   10 ar
    10   10   11 ar
    11   11    3 ar
    12   12   10 1
    13   13    6 1
    14   14   13 1
    15   15   14 1
    16   16    7 1
    17   17    9 1
    18   18    6 1
    19   19   13 1
    20   20   13 1
    21   21   14 1
    22   22   14 1
    23   23   15 1
    24   24   15 1
    25   25   15 1
@<TRIPOS>SUBSTRUCTURE
     1 RES1 1

@<TRIPOS>CRYSIN
   4.5625   10.2315   11.4327 107.4790 100.8890 101.5070   2 1

