# MOL2 file generated by ConQuest
# Please check atom types

@<TRIPOS>MOLECULE
COQQAA
    49    53     1
SMALL
NO_CHARGES
****
Generated from CSD

@<TRIPOS>ATOM
      1 C1         4.7627    9.5236   -1.2656 C.3       1 RES1    0.0000
      2 C2         3.8009   10.1801   -2.2620 C.3       1 RES1    0.0000
      3 C3         2.3929    9.8231   -1.9394 C.2       1 RES1    0.0000
      4 N1         1.3432   10.0604   -2.6572 N.2       1 RES1    0.0000
      5 O1         0.2796    9.5951   -1.9184 O.3       1 RES1    0.0000
      6 N2         0.7193    9.0479   -0.7158 N.2       1 RES1    0.0000
      7 C4         2.0069    9.1835   -0.7387 C.2       1 RES1    0.0000
      8 C5         2.9872    8.7032    0.2825 C.3       1 RES1    0.0000
      9 C6         2.4374    8.5270    1.6684 C.3       1 RES1    0.0000
     10 C7         3.4742    7.8696    2.5617 C.3       1 RES1    0.0000
     11 C8         4.8062    8.6203    2.5598 C.3       1 RES1    0.0000
     12 C9         5.3320    8.8887    1.1243 C.3       1 RES1    0.0000
     13 C10        4.2804    9.5556    0.2023 C.3       1 RES1    0.0000
     14 C11        6.6743    9.6385    1.1702 C.3       1 RES1    0.0000
     15 C12        7.7426    8.9452    2.0196 C.3       1 RES1    0.0000
     16 C13        7.2075    8.6372    3.4036 C.3       1 RES1    0.0000
     17 C14        5.8921    7.8564    3.2871 C.3       1 RES1    0.0000
     18 C15        5.6662    7.2828    4.6921 C.3       1 RES1    0.0000
     19 C16        7.0973    6.8975    5.1292 C.3       1 RES1    0.0000
     20 C17        8.0286    7.6624    4.2206 C.2       1 RES1    0.0000
     21 O2         9.2144    7.5022    4.1461 O.2       1 RES1    0.0000
     22 C18        7.0918    9.8994    4.2664 C.3       1 RES1    0.0000
     23 C19        4.0055   10.9967    0.6318 C.3       1 RES1    0.0000
     24 H1         5.6227    9.9672   -1.3210 H         1 RES1    0.0000
     25 H2         4.8960    8.6061   -1.5290 H         1 RES1    0.0000
     26 H3         3.9065   11.1370   -2.2258 H         1 RES1    0.0000
     27 H4         4.0129    9.8900   -3.1630 H         1 RES1    0.0000
     28 H5         3.2501    7.8131   -0.0115 H         1 RES1    0.0000
     29 H6         1.6376    7.9835    1.6340 H         1 RES1    0.0000
     30 H7         2.1958    9.3851    2.0368 H         1 RES1    0.0000
     31 H8         3.6232    6.9682    2.2563 H         1 RES1    0.0000
     32 H9         3.1326    7.8272    3.4685 H         1 RES1    0.0000
     33 H10        4.6776    9.4736    3.0122 H         1 RES1    0.0000
     34 H11        5.5227    8.0184    0.7311 H         1 RES1    0.0000
     35 H12        7.0094    9.7383    0.2653 H         1 RES1    0.0000
     36 H13        6.5216   10.5201    1.5290 H         1 RES1    0.0000
     37 H14        8.0138    8.1277    1.5844 H         1 RES1    0.0000
     38 H15        8.5229    9.5122    2.0922 H         1 RES1    0.0000
     39 H16        6.0957    7.0934    2.7164 H         1 RES1    0.0000
     40 H17        5.0849    6.5123    4.6634 H         1 RES1    0.0000
     41 H18        5.2839    7.9402    5.2877 H         1 RES1    0.0000
     42 H19        7.2482    7.1396    6.0569 H         1 RES1    0.0000
     43 H20        7.2380    5.9500    5.0319 H         1 RES1    0.0000
     44 H21        6.5206   10.5286    3.8273 H         1 RES1    0.0000
     45 H22        7.9629   10.2818    4.3886 H         1 RES1    0.0000
     46 H23        6.7197    9.6752    5.1216 H         1 RES1    0.0000
     47 H24        3.9546   11.0419    1.5901 H         1 RES1    0.0000
     48 H25        3.1742   11.2896    0.2539 H         1 RES1    0.0000
     49 H26        4.7174   11.5581    0.3226 H         1 RES1    0.0000
@<TRIPOS>BOND
     1    1    2 1
     2    2    3 1
     3    3    4 2
     4    4    5 1
     5    5    6 1
     6    6    7 2
     7    7    3 1
     8    8    7 1
     9    9    8 1
    10   10    9 1
    11   11   10 1
    12   12   11 1
    13   13    1 1
    14   14   12 1
    15   15   14 1
    16   16   15 1
    17   17   11 1
    18   18   17 1
    19   19   18 1
    20   20   16 1
    21   21   20 2
    22   22   16 1
    23   23   13 1
    24   24    1 1
    25   25    1 1
    26   26    2 1
    27   27    2 1
    28   28    8 1
    29   29    9 1
    30   30    9 1
    31   31   10 1
    32   32   10 1
    33   33   11 1
    34   34   12 1
    35   35   14 1
    36   36   14 1
    37   37   15 1
    38   38   15 1
    39   39   17 1
    40   40   18 1
    41   41   18 1
    42   42   19 1
    43   43   19 1
    44   44   22 1
    45   45   22 1
    46   46   22 1
    47   47   23 1
    48   48   23 1
    49   49   23 1
    50    8   13 1
    51   12   13 1
    52   16   17 1
    53   19   20 1
@<TRIPOS>SUBSTRUCTURE
     1 RES1 1

@<TRIPOS>CRYSIN
   9.2570    9.4190   19.0890  90.0000  90.0000  90.0000  19 1

