# MOL2 file generated by ConQuest
# Please check atom types

@<TRIPOS>MOLECULE
COQQII
    26    28     1
SMALL
NO_CHARGES
****
Generated from CSD

@<TRIPOS>ATOM
      1 O1         4.2811    5.3593    1.8969 O.3       1 RES1    0.0000
      2 O2         8.5714    0.2907    1.6765 O.3       1 RES1    0.0000
      3 O3         3.0209    5.7282    6.2574 O.2       1 RES1    0.0000
      4 O4         5.5911    1.7600   10.8122 O.3       1 RES1    0.0000
      5 N1         3.3277    6.4016    2.1010 N.2       1 RES1    0.0000
      6 N2         5.4774    3.8070    3.1906 N.2       1 RES1    0.0000
      7 N3         7.1794    2.6604    2.1425 N.3       1 RES1    0.0000
      8 N4         4.6029    4.1298    5.8929 N.am      1 RES1    0.0000
      9 C1         4.5644    4.8050    3.0842 C.2       1 RES1    0.0000
     10 C2         3.8141    5.4127    4.0656 C.2       1 RES1    0.0000
     11 C3         3.0740    6.4032    3.3753 C.2       1 RES1    0.0000
     12 C4         2.1073    7.4030    3.9090 C.3       1 RES1    0.0000
     13 C5         6.2592    3.6036    2.1657 C.2       1 RES1    0.0000
     14 C6         8.1716    2.5684    1.0693 C.3       1 RES1    0.0000
     15 C7         8.2640    1.1570    0.5994 C.3       1 RES1    0.0000
     16 C8         7.5287    0.3392    2.6472 C.3       1 RES1    0.0000
     17 C9         7.3922    1.7128    3.2254 C.3       1 RES1    0.0000
     18 C10        3.7656    5.1215    5.4936 C.2       1 RES1    0.0000
     19 C11        4.7958    3.6094    7.1827 C.ar      1 RES1    0.0000
     20 C12        3.9104    3.7823    8.2337 C.ar      1 RES1    0.0000
     21 C13        4.1602    3.2036    9.4625 C.ar      1 RES1    0.0000
     22 C14        5.2838    2.4262    9.6568 C.ar      1 RES1    0.0000
     23 C15        6.1797    2.2650    8.6156 C.ar      1 RES1    0.0000
     24 C16        5.9412    2.8537    7.4022 C.ar      1 RES1    0.0000
     25 C17        4.6138    1.7204   11.8477 C.3       1 RES1    0.0000
     26 C18        5.1259    0.7983   12.8919 C.3       1 RES1    0.0000
@<TRIPOS>BOND
     1    1    5 1
     2    2   15 1
     3    3   18 2
     4    4   22 1
     5    5   11 2
     6    6    9 1
     7    7   13 1
     8    8   18 1
     9    9    1 1
    10   10    9 2
    11   11   10 1
    12   12   11 1
    13   13    6 2
    14   14    7 1
    15   15   14 1
    16   16    2 1
    17   17    7 1
    18   18   10 1
    19   19    8 1
    20   20   19 ar
    21   21   20 ar
    22   22   21 ar
    23   23   22 ar
    24   24   19 ar
    25   25    4 1
    26   26   25 1
    27   16   17 1
    28   23   24 ar
@<TRIPOS>SUBSTRUCTURE
     1 RES1 1

@<TRIPOS>CRYSIN
   9.6060    9.8130    9.8490  87.2800  79.0600  80.8900   2 1

