# MOL2 file generated by ConQuest
# Please check atom types

@<TRIPOS>MOLECULE
COQTOT
    23    23     1
SMALL
USER_CHARGES
****
Generated from CSD

@<TRIPOS>ATOM
      1 H1         0.8802    4.1530    0.6206 H         1 RES1    0.0000
      2 H2         7.0477   -0.7482    1.0405 H         1 RES1    0.0000
      3 C1         0.4730    6.4701    3.5108 C.3       1 RES1    0.0000
      4 H3         1.2597    6.3606    4.0504 H         1 RES1    0.0000
      5 H4        -0.3048    6.2552    4.0318 H         1 RES1    0.0000
      6 H5         0.4160    7.3800    3.2106 H         1 RES1    0.0000
      7 C2         5.4956    0.1060    0.3433 C.2       1 RES1    0.0000
      8 C3         2.4867    3.0307    1.0612 C.ar      1 RES1    0.0000
      9 C4         3.5093    2.8604    1.9873 C.ar      1 RES1    0.0000
     10 H6         3.5373    3.3822    2.7561 H         1 RES1    0.0000
     11 C5         4.4824    1.9108    1.7556 C.ar      1 RES1    0.0000
     12 H7         5.1660    1.7938    2.3760 H         1 RES1    0.0000
     13 C6         4.4582    1.1269    0.6084 C.ar      1 RES1    0.0000
     14 C7         3.4209    1.2966   -0.2998 C.ar      1 RES1    0.0000
     15 H8         3.3912    0.7724   -1.0671 H         1 RES1    0.0000
     16 C8         2.4337    2.2317   -0.0764 C.ar      1 RES1    0.0000
     17 H9         1.7363    2.3286   -0.6830 H         1 RES1    0.0000
     18 N1         0.5468    5.5807    2.3560 N.pl3     1 RES1    1.0000
     19 N2         1.5151    4.7566    2.3245 N.2       1 RES1    0.0000
     20 N3         1.4674    3.9632    1.2472 N.pl3     1 RES1    0.0000
     21 O1        -0.3663    5.6470    1.4659 O.2       1 RES1   -1.0000
     22 O2         5.4664   -0.5700   -0.6933 O.2       1 RES1    0.0000
     23 O3         6.4130   -0.0301    1.2470 O.3       1 RES1    0.0000
@<TRIPOS>BOND
     1    1   20 1
     2    2   23 1
     3    3    4 1
     4    5    3 1
     5    6    3 1
     6    7   13 1
     7    8    9 ar
     8    9   10 1
     9   11    9 ar
    10   12   11 1
    11   13   11 ar
    12   14   13 ar
    13   15   14 1
    14   16    8 ar
    15   17   16 1
    16   18    3 1
    17   19   18 2
    18   20    8 1
    19   21   18 1
    20   22    7 2
    21   23    7 1
    22   14   16 ar
    23   19   20 1
@<TRIPOS>SUBSTRUCTURE
     1 RES1 1

@<TRIPOS>CRYSIN
  27.2046    5.0218   14.4503  90.0000 113.1290  90.0000  15 1

