# MOL2 file generated by ConQuest
# Please check atom types

@<TRIPOS>MOLECULE
CORVUC
    60    63     1
SMALL
NO_CHARGES
****
Generated from CSD

@<TRIPOS>ATOM
      1 O1         0.5128   12.3183    3.2008 O.3       1 RES1    0.0000
      2 O2         1.1787   10.8232    1.6497 O.2       1 RES1    0.0000
      3 O3        -0.0851   10.3007    3.4553 O.3       1 RES1    0.0000
      4 N1         2.7852   16.3820    4.1525 N.3       1 RES1    0.0000
      5 N2         0.8769   13.3715    2.2520 N.2       1 RES1    0.0000
      6 C1         2.3299   15.2032    4.8940 C.3       1 RES1    0.0000
      7 H1         1.3801   15.3184    5.1044 H         1 RES1    0.0000
      8 C2         2.4826   13.9570    4.0391 C.3       1 RES1    0.0000
      9 H2         3.4238   13.7901    3.8754 H         1 RES1    0.0000
     10 H3         2.1199   13.1934    4.5126 H         1 RES1    0.0000
     11 C3         1.7761   14.1180    2.7462 C.2       1 RES1    0.0000
     12 C4         2.1542   15.3482    1.9634 C.3       1 RES1    0.0000
     13 H4         3.1039   15.2650    1.7368 H         1 RES1    0.0000
     14 C5         2.0143   16.5713    2.9035 C.3       1 RES1    0.0000
     15 H5         1.0683   16.6775    3.1364 H         1 RES1    0.0000
     16 C6         2.4753   17.8253    2.1956 C.ar      1 RES1    0.0000
     17 C7         3.8000   17.9986    1.8703 C.ar      1 RES1    0.0000
     18 H6         4.4184   17.3454    2.1042 H         1 RES1    0.0000
     19 C8         4.2246   19.1268    1.2031 C.ar      1 RES1    0.0000
     20 H7         5.1247   19.2246    0.9909 H         1 RES1    0.0000
     21 C9         3.3408   20.0999    0.8512 C.ar      1 RES1    0.0000
     22 H8         3.6313   20.8544    0.3922 H         1 RES1    0.0000
     23 C10        2.0239   19.9577    1.1790 C.ar      1 RES1    0.0000
     24 H9         1.4171   20.6246    0.9510 H         1 RES1    0.0000
     25 C11        1.5857   18.8249    1.8495 C.ar      1 RES1    0.0000
     26 H10        0.6860   18.7383    2.0685 H         1 RES1    0.0000
     27 C12        3.0879   15.0069    6.1927 C.ar      1 RES1    0.0000
     28 C13        2.4021   14.8485    7.3757 C.ar      1 RES1    0.0000
     29 H11        1.4735   14.8980    7.3834 H         1 RES1    0.0000
     30 C14        3.0949   14.6130    8.5590 C.ar      1 RES1    0.0000
     31 H12        2.6314   14.5115    9.3583 H         1 RES1    0.0000
     32 C15        4.4681   14.5311    8.5431 C.ar      1 RES1    0.0000
     33 H13        4.9354   14.3655    9.3308 H         1 RES1    0.0000
     34 C16        5.1417   14.6925    7.3716 C.ar      1 RES1    0.0000
     35 H14        6.0698   14.6380    7.3628 H         1 RES1    0.0000
     36 C17        4.4665   14.9353    6.2055 C.ar      1 RES1    0.0000
     37 H15        4.9412   15.0530    5.4140 H         1 RES1    0.0000
     38 C18        1.3950   15.5248    0.6558 C.3       1 RES1    0.0000
     39 H16        0.4438   15.4805    0.8422 H         1 RES1    0.0000
     40 H17        1.5833   16.4103    0.3055 H         1 RES1    0.0000
     41 C19        1.7273   14.5031   -0.4107 C.3       1 RES1    0.0000
     42 H18        1.3757   13.6476   -0.1541 H         1 RES1    0.0000
     43 H19        2.6803   14.4421   -0.5092 H         1 RES1    0.0000
     44 H20        1.3366   14.7734   -1.2455 H         1 RES1    0.0000
     45 C20        0.6063   11.1139    2.6396 C.2       1 RES1    0.0000
     46 C21       -0.1652    8.9317    3.1542 C.ar      1 RES1    0.0000
     47 C22        0.0223    8.0808    4.2111 C.ar      1 RES1    0.0000
     48 H21        0.2443    8.4127    5.0507 H         1 RES1    0.0000
     49 C23       -0.1233    6.7250    4.0085 C.ar      1 RES1    0.0000
     50 H22        0.0081    6.1327    4.7135 H         1 RES1    0.0000
     51 C24       -0.4610    6.2472    2.7688 C.ar      1 RES1    0.0000
     52 H23       -0.5516    5.3312    2.6341 H         1 RES1    0.0000
     53 C25       -0.6663    7.1124    1.7311 C.ar      1 RES1    0.0000
     54 H24       -0.9022    6.7811    0.8945 H         1 RES1    0.0000
     55 C26       -0.5267    8.4732    1.9110 C.ar      1 RES1    0.0000
     56 H25       -0.6738    9.0646    1.2083 H         1 RES1    0.0000
     57 C27        2.6862   17.5788    4.9929 C.3       1 RES1    0.0000
     58 H26        3.2046   17.4541    5.7911 H         1 RES1    0.0000
     59 H27        1.7678   17.7284    5.2282 H         1 RES1    0.0000
     60 H28        3.0198   18.3376    4.5099 H         1 RES1    0.0000
@<TRIPOS>BOND
     1    1    5 1
     2    2   45 2
     3    3   45 1
     4    4    6 1
     5    5   11 2
     6    6    7 1
     7    8    6 1
     8    9    8 1
     9   10    8 1
    10   11    8 1
    11   12   11 1
    12   13   12 1
    13   14    4 1
    14   15   14 1
    15   16   14 1
    16   17   16 ar
    17   18   17 1
    18   19   17 ar
    19   20   19 1
    20   21   19 ar
    21   22   21 1
    22   23   21 ar
    23   24   23 1
    24   25   16 ar
    25   26   25 1
    26   27    6 1
    27   28   27 ar
    28   29   28 1
    29   30   28 ar
    30   31   30 1
    31   32   30 ar
    32   33   32 1
    33   34   32 ar
    34   35   34 1
    35   36   27 ar
    36   37   36 1
    37   38   12 1
    38   39   38 1
    39   40   38 1
    40   41   38 1
    41   42   41 1
    42   43   41 1
    43   44   41 1
    44   45    1 1
    45   46    3 1
    46   47   46 ar
    47   48   47 1
    48   49   47 ar
    49   50   49 1
    50   51   49 ar
    51   52   51 1
    52   53   51 ar
    53   54   53 1
    54   55   46 ar
    55   56   55 1
    56   57    4 1
    57   58   57 1
    58   59   57 1
    59   60   57 1
    60   12   14 1
    61   23   25 ar
    62   34   36 ar
    63   53   55 ar
@<TRIPOS>SUBSTRUCTURE
     1 RES1 1

@<TRIPOS>CRYSIN
   9.3844   17.8121   14.4077  90.0000 107.2160  90.0000  14 1

