# MOL2 file generated by ConQuest
# Please check atom types

@<TRIPOS>MOLECULE
CORWAJ
    63    66     1
SMALL
NO_CHARGES
****
Generated from CSD

@<TRIPOS>ATOM
      1 C1         0.4944    4.3420   -0.5642 C.3       1 RES1    0.0000
      2 H1         0.0456    4.6850    0.2365 H         1 RES1    0.0000
      3 C2         1.6226    5.2948   -0.8948 C.3       1 RES1    0.0000
      4 H2         2.0032    5.0609   -1.7556 H         1 RES1    0.0000
      5 H3         1.2749    6.1980   -0.9550 H         1 RES1    0.0000
      6 C3         2.6823    5.2378    0.1503 C.2       1 RES1    0.0000
      7 C4         3.1986    3.8435    0.4128 C.3       1 RES1    0.0000
      8 H4         3.5075    3.5120   -0.4559 H         1 RES1    0.0000
      9 C5         1.9980    2.9700    0.7786 C.3       1 RES1    0.0000
     10 H5         1.6036    3.3420    1.5953 H         1 RES1    0.0000
     11 C6         2.4153    1.5470    1.0842 C.ar      1 RES1    0.0000
     12 C7         2.1715    1.0134    2.3338 C.ar      1 RES1    0.0000
     13 H6         1.7436    1.5298    2.9781 H         1 RES1    0.0000
     14 C8         2.5550   -0.2796    2.6364 C.ar      1 RES1    0.0000
     15 H7         2.3789   -0.6320    3.4781 H         1 RES1    0.0000
     16 C9         3.1929   -1.0385    1.6975 C.ar      1 RES1    0.0000
     17 H8         3.4598   -1.9056    1.9009 H         1 RES1    0.0000
     18 C10        3.4357   -0.5169    0.4599 C.ar      1 RES1    0.0000
     19 H9         3.8705   -1.0318   -0.1804 H         1 RES1    0.0000
     20 C11        3.0452    0.7567    0.1553 C.ar      1 RES1    0.0000
     21 H10        3.2097    1.0940   -0.6964 H         1 RES1    0.0000
     22 C12       -0.5183    4.3405   -1.6844 C.ar      1 RES1    0.0000
     23 C13       -0.2231    3.8289   -2.9180 C.ar      1 RES1    0.0000
     24 H11        0.6240    3.4785   -3.0763 H         1 RES1    0.0000
     25 C14       -1.1457    3.8210   -3.9210 C.ar      1 RES1    0.0000
     26 H12       -0.9209    3.4665   -4.7517 H         1 RES1    0.0000
     27 C15       -2.3887    4.3238   -3.7206 C.ar      1 RES1    0.0000
     28 H13       -3.0138    4.3163   -4.4090 H         1 RES1    0.0000
     29 C16       -2.7100    4.8342   -2.5212 C.ar      1 RES1    0.0000
     30 H14       -3.5632    5.1734   -2.3759 H         1 RES1    0.0000
     31 C17       -1.7786    4.8586   -1.5001 C.ar      1 RES1    0.0000
     32 H15       -2.0068    5.2308   -0.6784 H         1 RES1    0.0000
     33 C18        4.4071    3.7092    1.3538 C.3       1 RES1    0.0000
     34 H16        4.5900    2.7483    1.4169 H         1 RES1    0.0000
     35 C19        5.6276    4.3202    0.6904 C.3       1 RES1    0.0000
     36 H17        5.7743    3.8974   -0.1593 H         1 RES1    0.0000
     37 H18        6.3953    4.1895    1.2506 H         1 RES1    0.0000
     38 H19        5.4837    5.2596    0.5601 H         1 RES1    0.0000
     39 C20        4.2241    4.1866    2.7727 C.3       1 RES1    0.0000
     40 H20        4.1252    5.1423    2.7787 H         1 RES1    0.0000
     41 H21        4.9921    3.9405    3.2937 H         1 RES1    0.0000
     42 H22        3.4397    3.7801    3.1484 H         1 RES1    0.0000
     43 C21        2.9778    8.4864    1.0802 C.2       1 RES1    0.0000
     44 C22        2.4989   10.8189    1.0521 C.ar      1 RES1    0.0000
     45 C23        1.3626   11.5229    1.2736 C.ar      1 RES1    0.0000
     46 H23        0.5299   11.1248    1.1614 H         1 RES1    0.0000
     47 C24        1.4596   12.8351    1.6684 C.ar      1 RES1    0.0000
     48 H24        0.6874   13.3321    1.8217 H         1 RES1    0.0000
     49 C25        2.6788   13.4104    1.8358 C.ar      1 RES1    0.0000
     50 H25        2.7405   14.2992    2.1003 H         1 RES1    0.0000
     51 C26        3.8086   12.6879    1.6173 C.ar      1 RES1    0.0000
     52 H26        4.6413   13.0831    1.7416 H         1 RES1    0.0000
     53 C27        3.7279   11.3762    1.2145 C.ar      1 RES1    0.0000
     54 H27        4.4984   10.8806    1.0562 H         1 RES1    0.0000
     55 C28       -0.1516    2.1311    0.0651 C.3       1 RES1    0.0000
     56 H28       -0.5797    2.4443    0.8648 H         1 RES1    0.0000
     57 H29        0.1666    1.2353    0.2014 H         1 RES1    0.0000
     58 H30       -0.7818    2.1402   -0.6593 H         1 RES1    0.0000
     59 N1         0.9684    3.0001   -0.2582 N.3       1 RES1    0.0000
     60 N2         3.1638    6.2052    0.8237 N.2       1 RES1    0.0000
     61 O1         2.5179    7.4374    0.3997 O.3       1 RES1    0.0000
     62 O2         3.7468    8.5195    1.9562 O.2       1 RES1    0.0000
     63 O3         2.3129    9.5211    0.5432 O.3       1 RES1    0.0000
@<TRIPOS>BOND
     1    1    2 1
     2    3    1 1
     3    4    3 1
     4    5    3 1
     5    6    3 1
     6    7    6 1
     7    8    7 1
     8    9    7 1
     9   10    9 1
    10   11    9 1
    11   12   11 ar
    12   13   12 1
    13   14   12 ar
    14   15   14 1
    15   16   14 ar
    16   17   16 1
    17   18   16 ar
    18   19   18 1
    19   20   11 ar
    20   21   20 1
    21   22    1 1
    22   23   22 ar
    23   24   23 1
    24   25   23 ar
    25   26   25 1
    26   27   25 ar
    27   28   27 1
    28   29   27 ar
    29   30   29 1
    30   31   22 ar
    31   32   31 1
    32   33    7 1
    33   34   33 1
    34   35   33 1
    35   36   35 1
    36   37   35 1
    37   38   35 1
    38   39   33 1
    39   40   39 1
    40   41   39 1
    41   42   39 1
    42   43   61 1
    43   44   45 ar
    44   45   46 1
    45   47   45 ar
    46   48   47 1
    47   49   47 ar
    48   50   49 1
    49   51   49 ar
    50   52   51 1
    51   53   44 ar
    52   54   53 1
    53   55   56 1
    54   57   55 1
    55   58   55 1
    56   59    1 1
    57   60    6 2
    58   61   60 1
    59   62   43 2
    60   63   43 1
    61    9   59 1
    62   18   20 ar
    63   29   31 ar
    64   44   63 1
    65   51   53 ar
    66   55   59 1
@<TRIPOS>SUBSTRUCTURE
     1 RES1 1

@<TRIPOS>CRYSIN
  10.3511   23.9398   10.0587  90.0000  94.9970  90.0000  14 1

