# MOL2 file generated by ConQuest
# Please check atom types

@<TRIPOS>MOLECULE
CORYIR
    20    19     1
SMALL
NO_CHARGES
****
Generated from CSD

@<TRIPOS>ATOM
      1 O1         0.8829   -1.4914   -0.0527 O.3       1 RES1    0.0000
      2 O2        -0.1540   -3.3952   -0.0554 O.2       1 RES1    0.0000
      3 O3         1.6216   -3.2033   -1.2929 O.2       1 RES1    0.0000
      4 O4         1.7248    0.6314    1.5018 O.3       1 RES1    0.0000
      5 O5         3.9525    0.5130    1.7804 O.2       1 RES1    0.0000
      6 O6         2.6157    0.7376    3.4804 O.2       1 RES1    0.0000
      7 O7         0.6203    2.6291   -0.0703 O.3       1 RES1    0.0000
      8 O8         2.3354    3.1625   -1.4072 O.2       1 RES1    0.0000
      9 O9         1.1864    4.6920   -0.3746 O.2       1 RES1    0.0000
     10 N1         0.7894   -2.8169   -0.5200 N.pl3     1 RES1    0.0000
     11 N2         2.8845    0.6301    2.3113 N.pl3     1 RES1    0.0000
     12 N3         1.4667    3.5639   -0.6843 N.pl3     1 RES1    0.0000
     13 C1         2.1342   -0.8451   -0.4077 C.3       1 RES1    0.0000
     14 C2         1.9892    0.5851    0.0683 C.3       1 RES1    0.0000
     15 C3         0.7966    1.2778   -0.5504 C.3       1 RES1    0.0000
     16 H1         2.2695   -0.8573   -1.2645 H         1 RES1    0.0000
     17 H2         2.7768   -1.2792    0.1623 H         1 RES1    0.0000
     18 H3         2.7857    1.0886   -0.1285 H         1 RES1    0.0000
     19 H4        -0.0445    0.8845   -0.3854 H         1 RES1    0.0000
     20 H5         0.8633    1.2655   -1.5012 H         1 RES1    0.0000
@<TRIPOS>BOND
     1    1   10 1
     2    2   10 2
     3    3   10 2
     4    4   11 1
     5    5   11 2
     6    6   11 2
     7    7   12 1
     8    8   12 2
     9    9   12 2
    10   13    1 1
    11   14    4 1
    12   15    7 1
    13   16   13 1
    14   17   13 1
    15   18   14 1
    16   19   15 1
    17   20   15 1
    18   13   14 1
    19   14   15 1
@<TRIPOS>SUBSTRUCTURE
     1 RES1 1

@<TRIPOS>CRYSIN
   8.9000   13.6080    6.7620  90.0000  90.0000  90.0000  33 1

