# MOL2 file generated by ConQuest
# Please check atom types

@<TRIPOS>MOLECULE
COSJOK
   104   112     2
SMALL
NO_CHARGES
****
Generated from CSD

@<TRIPOS>ATOM
      1 O1         3.1824    7.0859   10.8383 O.3       1 RES1    0.0000
      2 O2        -0.9042    5.9767    8.9923 O.2       1 RES1    0.0000
      3 O3        -0.4012    6.2305    6.9518 O.2       1 RES1    0.0000
      4 O4        -3.5894    9.5935   10.6452 O.2       1 RES1    0.0000
      5 O5        -4.9870    9.8453   22.6480 O.3       2 RES2    0.0000
      6 O6        -1.1917   11.1173   20.3841 O.2       2 RES2    0.0000
      7 O7        -1.1897   10.5197   18.3737 O.2       2 RES2    0.0000
      8 O8         1.7879    7.4135   22.1270 O.2       2 RES2    0.0000
      9 N1        -0.5122    6.6451    8.0699 N.pl3     1 RES1    0.0000
     10 N2        -1.3607   10.3094   19.5305 N.pl3     2 RES2    0.0000
     11 C1         3.3214    7.0920    9.4771 C.ar      1 RES1    0.0000
     12 C2         4.4827    6.4813    9.0012 C.ar      1 RES1    0.0000
     13 H1         5.1020    6.1233    9.5955 H         1 RES1    0.0000
     14 C3         4.7017    6.4156    7.6532 C.ar      1 RES1    0.0000
     15 H2         5.4737    6.0081    7.3298 H         1 RES1    0.0000
     16 C4         3.7838    6.9515    6.7606 C.ar      1 RES1    0.0000
     17 H3         3.9428    6.9262    5.8429 H         1 RES1    0.0000
     18 C5         2.6357    7.5207    7.2570 C.ar      1 RES1    0.0000
     19 H4         2.0164    7.8706    6.6581 H         1 RES1    0.0000
     20 C6         2.3656    7.5915    8.5959 C.ar      1 RES1    0.0000
     21 C7         1.0995    8.2204    9.1781 C.3       1 RES1    0.0000
     22 H5         1.2842    9.1810    9.2403 H         1 RES1    0.0000
     23 C8        -0.1649    8.0940    8.3181 C.3       1 RES1    0.0000
     24 H6         0.0163    8.5136    7.4505 H         1 RES1    0.0000
     25 C9        -1.3838    8.8261    8.9602 C.3       1 RES1    0.0000
     26 H7        -2.1860    8.3286    8.6960 H         1 RES1    0.0000
     27 C10       -1.5100   10.2204    8.3590 C.ar      1 RES1    0.0000
     28 C11       -2.2142   10.3872    7.1978 C.ar      1 RES1    0.0000
     29 H8        -2.6265    9.6532    6.8015 H         1 RES1    0.0000
     30 C12       -2.3233   11.6339    6.6012 C.ar      1 RES1    0.0000
     31 H9        -2.8002   11.7300    5.8088 H         1 RES1    0.0000
     32 C13       -1.7339   12.7138    7.1727 C.ar      1 RES1    0.0000
     33 H10       -1.8089   13.5510    6.7742 H         1 RES1    0.0000
     34 C14       -1.0355   12.5692    8.3272 C.ar      1 RES1    0.0000
     35 H11       -0.6381   13.3114    8.7211 H         1 RES1    0.0000
     36 C15       -0.9094   11.3154    8.9238 C.ar      1 RES1    0.0000
     37 H12       -0.4174   11.2224    9.7071 H         1 RES1    0.0000
     38 C16       -1.3499    8.8362   10.4471 C.2       1 RES1    0.0000
     39 C17       -0.3396    8.3630   11.1894 C.2       1 RES1    0.0000
     40 H13       -0.4077    8.4226   12.1139 H         1 RES1    0.0000
     41 C18        0.8879    7.7472   10.6122 C.3       1 RES1    0.0000
     42 H14        0.7413    6.7785   10.5814 H         1 RES1    0.0000
     43 C19        2.1799    7.9838   11.3761 C.3       1 RES1    0.0000
     44 H15        2.4710    8.9070   11.2213 H         1 RES1    0.0000
     45 C20        2.1242    7.7381   12.8585 C.ar      1 RES1    0.0000
     46 C21        2.5316    8.7128   13.7260 C.ar      1 RES1    0.0000
     47 H16        2.8539    9.5197   13.3936 H         1 RES1    0.0000
     48 C22        2.4717    8.5167   15.0763 C.ar      1 RES1    0.0000
     49 H17        2.7297    9.2002   15.6524 H         1 RES1    0.0000
     50 C23        2.0440    7.3488   15.5818 C.ar      1 RES1    0.0000
     51 H18        2.0315    7.2154   16.5018 H         1 RES1    0.0000
     52 C24        1.6224    6.3397   14.7234 C.ar      1 RES1    0.0000
     53 H19        1.3092    5.5328   15.0650 H         1 RES1    0.0000
     54 C25        1.6706    6.5470   13.3731 C.ar      1 RES1    0.0000
     55 H20        1.3933    5.8726   12.7947 H         1 RES1    0.0000
     56 C26       -2.5625    9.2871   11.1621 C.2       1 RES1    0.0000
     57 H21       -2.5194    9.3357   12.0911 H         1 RES1    0.0000
     58 C27       -5.1586    9.9403   21.2950 C.ar      2 RES2    0.0000
     59 C28       -6.3459   10.5328   20.8851 C.ar      2 RES2    0.0000
     60 H22       -6.9656   10.8129   21.5181 H         2 RES2    0.0000
     61 C29       -6.6073   10.7047   19.5576 C.ar      2 RES2    0.0000
     62 H23       -7.4100   11.0890   19.2866 H         2 RES2    0.0000
     63 C30       -5.6759   10.3063   18.6149 C.ar      2 RES2    0.0000
     64 H24       -5.8442   10.4378   17.7086 H         2 RES2    0.0000
     65 C31       -4.4985    9.7159   19.0202 C.ar      2 RES2    0.0000
     66 H25       -3.8852    9.4388   18.3781 H         2 RES2    0.0000
     67 C32       -4.2081    9.5278   20.3607 C.ar      2 RES2    0.0000
     68 C33       -2.9318    8.8736   20.8899 C.3       2 RES2    0.0000
     69 H26       -3.1549    7.9252   20.9967 H         2 RES2    0.0000
     70 C34       -1.7322    8.8999   19.9358 C.3       2 RES2    0.0000
     71 H27       -1.9844    8.4115   19.1249 H         2 RES2    0.0000
     72 C35       -0.4821    8.2062   20.5390 C.3       2 RES2    0.0000
     73 H28        0.3000    8.6896   20.1997 H         2 RES2    0.0000
     74 C36       -0.3678    6.7755   20.0323 C.ar      2 RES2    0.0000
     75 C37        0.5574    6.4459   19.0703 C.ar      2 RES2    0.0000
     76 H29        1.1381    7.0981   18.7492 H         2 RES2    0.0000
     77 C38        0.6336    5.1699   18.5807 C.ar      2 RES2    0.0000
     78 H30        1.2748    4.9585   17.9431 H         2 RES2    0.0000
     79 C39       -0.2297    4.1961   19.0247 C.ar      2 RES2    0.0000
     80 H31       -0.1895    3.3377   18.6718 H         2 RES2    0.0000
     81 C40       -1.1434    4.5005   19.9879 C.ar      2 RES2    0.0000
     82 H32       -1.7221    3.8433   20.3022 H         2 RES2    0.0000
     83 C41       -1.2154    5.7725   20.4980 C.ar      2 RES2    0.0000
     84 H33       -1.8379    5.9686   21.1606 H         2 RES2    0.0000
     85 C42       -0.4185    8.2791   22.0396 C.2       2 RES2    0.0000
     86 C43       -1.3818    8.7897   22.8256 C.2       2 RES2    0.0000
     87 H34       -1.2532    8.7775   23.7473 H         2 RES2    0.0000
     88 C44       -2.6427    9.3731   22.2953 C.3       2 RES2    0.0000
     89 H35       -2.5342   10.3468   22.2559 H         2 RES2    0.0000
     90 C45       -3.8761    9.0677   23.1510 C.3       2 RES2    0.0000
     91 H36       -4.0929    8.1163   23.0642 H         2 RES2    0.0000
     92 C46       -3.7721    9.4095   24.6179 C.ar      2 RES2    0.0000
     93 C47       -4.0210    8.4368   25.5758 C.ar      2 RES2    0.0000
     94 H37       -4.1863    7.5612   25.3071 H         2 RES2    0.0000
     95 C48       -4.0247    8.7472   26.9079 C.ar      2 RES2    0.0000
     96 H38       -4.1804    8.0829   27.5409 H         2 RES2    0.0000
     97 C49       -3.7978   10.0455   27.3132 C.ar      2 RES2    0.0000
     98 H39       -3.8168   10.2598   28.2195 H         2 RES2    0.0000
     99 C50       -3.5440   11.0283   26.3773 C.ar      2 RES2    0.0000
    100 H40       -3.3904   11.9039   26.6506 H         2 RES2    0.0000
    101 C51       -3.5206   10.7057   25.0453 C.ar      2 RES2    0.0000
    102 H41       -3.3340   11.3660   24.4191 H         2 RES2    0.0000
    103 C52        0.8067    7.7765   22.7045 C.2       2 RES2    0.0000
    104 H42        0.8131    7.7411   23.6335 H         2 RES2    0.0000
@<TRIPOS>BOND
     1    1   11 1
     2    2    9 2
     3    3    9 2
     4    4   56 2
     5    5   58 1
     6    6   10 2
     7    7   10 2
     8    8  103 2
     9    9   23 1
    10   10   70 1
    11   11   12 ar
    12   12   13 1
    13   14   12 ar
    14   15   14 1
    15   16   14 ar
    16   17   16 1
    17   18   16 ar
    18   19   18 1
    19   20   11 ar
    20   21   20 1
    21   22   21 1
    22   23   21 1
    23   24   23 1
    24   25   23 1
    25   26   25 1
    26   27   25 1
    27   28   27 ar
    28   29   28 1
    29   30   28 ar
    30   31   30 1
    31   32   30 ar
    32   33   32 1
    33   34   32 ar
    34   35   34 1
    35   36   27 ar
    36   37   36 1
    37   38   25 1
    38   39   38 2
    39   40   39 1
    40   41   21 1
    41   42   41 1
    42   43    1 1
    43   44   43 1
    44   45   43 1
    45   46   45 ar
    46   47   46 1
    47   48   46 ar
    48   49   48 1
    49   50   48 ar
    50   51   50 1
    51   52   50 ar
    52   53   52 1
    53   54   45 ar
    54   55   54 1
    55   56   38 1
    56   57   56 1
    57   58   59 ar
    58   59   60 1
    59   61   59 ar
    60   62   61 1
    61   63   61 ar
    62   64   63 1
    63   65   63 ar
    64   66   65 1
    65   67   58 ar
    66   68   67 1
    67   69   68 1
    68   70   68 1
    69   71   70 1
    70   72   70 1
    71   73   72 1
    72   74   72 1
    73   75   74 ar
    74   76   75 1
    75   77   75 ar
    76   78   77 1
    77   79   77 ar
    78   80   79 1
    79   81   79 ar
    80   82   81 1
    81   83   74 ar
    82   84   83 1
    83   85   72 1
    84   86   85 2
    85   87   86 1
    86   88   68 1
    87   89   88 1
    88   90    5 1
    89   91   90 1
    90   92   90 1
    91   93   92 ar
    92   94   93 1
    93   95   93 ar
    94   96   95 1
    95   97   95 ar
    96   98   97 1
    97   99   97 ar
    98  100   99 1
    99  101   92 ar
   100  102  101 1
   101  103   85 1
   102  104  103 1
   103   18   20 ar
   104   34   36 ar
   105   39   41 1
   106   41   43 1
   107   52   54 ar
   108   65   67 ar
   109   81   83 ar
   110   86   88 1
   111   88   90 1
   112   99  101 ar
@<TRIPOS>SUBSTRUCTURE
     1 RES1 1
     2 RES2 5

@<TRIPOS>CRYSIN
   8.9585   10.1112   23.1570  90.0000 100.4830  90.0000   4 1

