# MOL2 file generated by ConQuest
# Please check atom types

@<TRIPOS>MOLECULE
COSKIF
    40    43     1
SMALL
NO_CHARGES
****
Generated from CSD

@<TRIPOS>ATOM
      1 N1         4.1081    2.4338   18.9451 N.2       1 RES1    0.0000
      2 O1         4.5118    2.4874   20.2965 O.3       1 RES1    0.0000
      3 C1         4.6434    3.8042   20.6587 C.2       1 RES1    0.0000
      4 C2         4.3347    4.5808   19.5931 C.2       1 RES1    0.0000
      5 H1         4.3379    5.5104   19.5560 H         1 RES1    0.0000
      6 C3         4.0085    3.6870   18.5591 C.2       1 RES1    0.0000
      7 C4         3.5846    3.9998   17.1874 C.ar      1 RES1    0.0000
      8 C5         3.7763    3.0996   16.1339 C.ar      1 RES1    0.0000
      9 H2         4.1861    2.2809   16.2967 H         1 RES1    0.0000
     10 C6         3.3654    3.4106   14.8579 C.ar      1 RES1    0.0000
     11 H3         3.5005    2.7996   14.1693 H         1 RES1    0.0000
     12 C7         2.7468    4.6356   14.5846 C.ar      1 RES1    0.0000
     13 C8         2.5561    5.5404   15.6331 C.ar      1 RES1    0.0000
     14 H4         2.1423    6.3562   15.4652 H         1 RES1    0.0000
     15 C9         2.9732    5.2357   16.9056 C.ar      1 RES1    0.0000
     16 H5         2.8511    5.8542   17.5887 H         1 RES1    0.0000
     17 C10        2.3091    4.9691   13.2321 C.1       1 RES1    0.0000
     18 C11        1.9593    5.2796   12.1954 C.1       1 RES1    0.0000
     19 C12        1.5520    5.6558   10.8409 C.ar      1 RES1    0.0000
     20 C13        1.8216    4.8024    9.7632 C.ar      1 RES1    0.0000
     21 H6         2.2343    3.9853    9.9263 H         1 RES1    0.0000
     22 C14        1.5007    5.1318    8.4910 C.ar      1 RES1    0.0000
     23 H7         1.6987    4.5502    7.7912 H         1 RES1    0.0000
     24 C15        0.8671    6.3522    8.2330 C.ar      1 RES1    0.0000
     25 H8         0.6448    6.5893    7.3618 H         1 RES1    0.0000
     26 C16        0.5749    7.2044    9.2819 C.ar      1 RES1    0.0000
     27 H9         0.1421    8.0099    9.1105 H         1 RES1    0.0000
     28 C17        0.9154    6.8755   10.5716 C.ar      1 RES1    0.0000
     29 H10        0.7230    7.4623   11.2652 H         1 RES1    0.0000
     30 C18        5.0309    4.0661   22.0428 C.ar      1 RES1    0.0000
     31 C19        4.7553    3.1418   23.0425 C.ar      1 RES1    0.0000
     32 H11        4.3525    2.3305   22.8309 H         1 RES1    0.0000
     33 C20        5.0816    3.4332   24.3560 C.ar      1 RES1    0.0000
     34 H12        4.8943    2.8175   25.0285 H         1 RES1    0.0000
     35 C21        5.6841    4.6362   24.6722 C.ar      1 RES1    0.0000
     36 H13        5.8945    4.8301   25.5555 H         1 RES1    0.0000
     37 C22        5.9748    5.5507   23.6791 C.ar      1 RES1    0.0000
     38 H14        6.3952    6.3522   23.8926 H         1 RES1    0.0000
     39 C23        5.6429    5.2778   22.3715 C.ar      1 RES1    0.0000
     40 H15        5.8267    5.9010   21.7068 H         1 RES1    0.0000
@<TRIPOS>BOND
     1    1    2 1
     2    2    3 1
     3    3    4 2
     4    4    5 1
     5    6    1 2
     6    7    6 1
     7    8    7 ar
     8    9    8 1
     9   10    8 ar
    10   11   10 1
    11   12   10 ar
    12   13   12 ar
    13   14   13 1
    14   15    7 ar
    15   16   15 1
    16   17   12 1
    17   18   17 3
    18   19   18 1
    19   20   19 ar
    20   21   20 1
    21   22   20 ar
    22   23   22 1
    23   24   22 ar
    24   25   24 1
    25   26   24 ar
    26   27   26 1
    27   28   19 ar
    28   29   28 1
    29   30    3 1
    30   31   30 ar
    31   32   31 1
    32   33   31 ar
    33   34   33 1
    34   35   33 ar
    35   36   35 1
    36   37   35 ar
    37   38   37 1
    38   39   30 ar
    39   40   39 1
    40    4    6 1
    41   13   15 ar
    42   26   28 ar
    43   37   39 ar
@<TRIPOS>SUBSTRUCTURE
     1 RES1 1

@<TRIPOS>CRYSIN
   7.4030    5.7700   39.1190  90.0000  93.7800  90.0000  14 1

