# MOL2 file generated by ConQuest
# Please check atom types

@<TRIPOS>MOLECULE
COSQOS
    60    62     1
SMALL
USER_CHARGES
****
Generated from CSD

@<TRIPOS>ATOM
      1 O1         4.8433    4.5632   21.7676 O.3       1 RES1    0.0000
      2 O2         3.6568    6.3847   21.0787 O.2       1 RES1    0.0000
      3 O3         3.1860    8.9456   14.5995 O.2       1 RES1   -1.0000
      4 O4         2.4989    3.1821   16.5229 O.2       1 RES1    0.0000
      5 O5         0.6628    4.3843   16.7920 O.3       1 RES1    0.0000
      6 N1         5.0212    5.2401   19.6818 N.am      1 RES1    0.0000
      7 H1         5.5045    4.5337   19.6031 H         1 RES1    0.0000
      8 N2         4.0139    6.1299   16.2171 N.pl3     1 RES1    0.0000
      9 N3         3.4142    7.3354   16.1729 N.2       1 RES1    0.0000
     10 N4         3.6568    7.8112   14.9673 N.pl3     1 RES1    1.0000
     11 C1         2.6215    3.9362   22.5097 C.3       1 RES1    0.0000
     12 H2         2.2085    4.7089   22.1160 H         1 RES1    0.0000
     13 H3         2.1030    3.6435   23.2616 H         1 RES1    0.0000
     14 H4         2.6675    3.2320   21.8595 H         1 RES1    0.0000
     15 C2         4.0139    4.2890   22.9664 C.3       1 RES1    0.0000
     16 C3         4.4359    5.4786   20.8683 C.2       1 RES1    0.0000
     17 C4         4.8814    6.1087   18.5273 C.3       1 RES1    0.0000
     18 H5         4.4170    6.9271   18.8010 H         1 RES1    0.0000
     19 C5         4.0265    5.3788   17.4759 C.3       1 RES1    0.0000
     20 H6         4.4494    4.5121   17.2989 H         1 RES1    0.0000
     21 C6         4.6541    5.8361   15.0402 C.ar      1 RES1    0.0000
     22 C7         4.4314    6.9391   14.2341 C.ar      1 RES1    0.0000
     23 C8         4.9562    7.0195   12.9257 C.ar      1 RES1    0.0000
     24 H7         4.8228    7.7645   12.3862 H         1 RES1    0.0000
     25 C9         5.6705    5.9410   12.5018 C.ar      1 RES1    0.0000
     26 H8         6.0366    5.9518   11.6471 H         1 RES1    0.0000
     27 C10        4.0346    5.4551   23.9133 C.3       1 RES1    0.0000
     28 H9         4.9436    5.7034   24.0964 H         1 RES1    0.0000
     29 H10        3.5990    5.2103   24.7333 H         1 RES1    0.0000
     30 H11        3.5738    6.1977   23.5160 H         1 RES1    0.0000
     31 C11        4.7055    3.0953   23.5727 C.3       1 RES1    0.0000
     32 H12        4.7506    2.3886   22.9247 H         1 RES1    0.0000
     33 H13        4.2123    2.7965   24.3398 H         1 RES1    0.0000
     34 H14        5.5947    3.3424   23.8398 H         1 RES1    0.0000
     35 C12        5.3810    4.7281   14.6002 C.ar      1 RES1    0.0000
     36 H15        5.5244    3.9842   15.1404 H         1 RES1    0.0000
     37 C13        5.8743    4.8048   13.3170 C.ar      1 RES1    0.0000
     38 H16        6.3558    4.0862   12.9753 H         1 RES1    0.0000
     39 C14        2.5954    5.1102   17.9124 C.3       1 RES1    0.0000
     40 H17        2.5917    4.7628   18.8184 H         1 RES1    0.0000
     41 H18        2.0931    5.9398   17.9054 H         1 RES1    0.0000
     42 C15        1.9452    4.1199   16.9920 C.2       1 RES1    0.0000
     43 C16       -0.0613    3.4288   15.9577 C.3       1 RES1    0.0000
     44 H19        0.2101    3.5331   15.0426 H         1 RES1    0.0000
     45 H20       -1.0046    3.5883   16.0316 H         1 RES1    0.0000
     46 H21        0.1362    2.5362   16.2490 H         1 RES1    0.0000
     47 C17        6.2656    6.4799   17.9911 C.3       1 RES1    0.0000
     48 H22        6.7210    5.6710   17.7098 H         1 RES1    0.0000
     49 H23        6.1583    7.0447   17.2098 H         1 RES1    0.0000
     50 C18        7.1250    7.1984   18.9997 C.ar      1 RES1    0.0000
     51 C19        6.6886    8.3356   19.6490 C.ar      1 RES1    0.0000
     52 H24        5.8319    8.6571   19.4814 H         1 RES1    0.0000
     53 C20        7.5092    9.0098   20.5507 C.ar      1 RES1    0.0000
     54 H25        7.1954    9.7704   20.9835 H         1 RES1    0.0000
     55 C21        8.7789    8.5551   20.8002 C.ar      1 RES1    0.0000
     56 H26        9.3299    9.0158   21.3922 H         1 RES1    0.0000
     57 C22        9.2352    7.4214   20.1766 C.ar      1 RES1    0.0000
     58 H27       10.0964    7.1131   20.3444 H         1 RES1    0.0000
     59 C23        8.4083    6.7328   19.2925 C.ar      1 RES1    0.0000
     60 H28        8.7158    5.9530   18.8923 H         1 RES1    0.0000
@<TRIPOS>BOND
     1    1   15 1
     2    2   16 2
     3    3   10 1
     4    4   42 2
     5    5   42 1
     6    6    7 1
     7    8    9 1
     8    9   10 2
     9   10   22 1
    10   11   12 1
    11   13   11 1
    12   14   11 1
    13   15   11 1
    14   16    1 1
    15   17    6 1
    16   18   17 1
    17   19    8 1
    18   20   19 1
    19   21    8 1
    20   22   21 ar
    21   23   22 ar
    22   24   23 1
    23   25   23 ar
    24   26   25 1
    25   27   15 1
    26   28   27 1
    27   29   27 1
    28   30   27 1
    29   31   15 1
    30   32   31 1
    31   33   31 1
    32   34   31 1
    33   35   21 ar
    34   36   35 1
    35   37   25 ar
    36   38   37 1
    37   39   19 1
    38   40   39 1
    39   41   39 1
    40   42   39 1
    41   43    5 1
    42   44   43 1
    43   45   43 1
    44   46   43 1
    45   47   17 1
    46   48   47 1
    47   49   47 1
    48   50   47 1
    49   51   50 ar
    50   52   51 1
    51   53   51 ar
    52   54   53 1
    53   55   53 ar
    54   56   55 1
    55   57   55 ar
    56   58   57 1
    57   59   50 ar
    58   60   59 1
    59    6   16 1
    60   17   19 1
    61   35   37 ar
    62   57   59 ar
@<TRIPOS>SUBSTRUCTURE
     1 RES1 1

@<TRIPOS>CRYSIN
   9.0179   11.9971   21.7378  90.0000  90.0000  90.0000  19 1

