# MOL2 file generated by ConQuest
# Please check atom types

@<TRIPOS>MOLECULE
COSRAF
   150   152     2
SMALL
USER_CHARGES
****
Generated from CSD

@<TRIPOS>ATOM
      1 O1         7.0190    3.6717   15.4005 O.3       1 RES1    0.0000
      2 O2         3.4442    2.5805    8.6027 O.3       1 RES1    0.0000
      3 O3         3.9382    3.7482    6.7515 O.2       1 RES1    0.0000
      4 O4         4.7241    5.0121   10.1486 O.2       1 RES1    0.0000
      5 O5         2.0143    0.0501   12.4814 O.2       1 RES1   -1.0000
      6 O6         7.5226    5.9186   15.2764 O.2       1 RES1    0.0000
      7 N1         5.8121    3.1008    9.7533 N.am      1 RES1    0.0000
      8 H1         6.2020    2.4140   10.0902 H         1 RES1    0.0000
      9 N2         5.4897    5.1217   14.6768 N.am      1 RES1    0.0000
     10 H2         5.2306    5.9323   14.5466 H         1 RES1    0.0000
     11 N3         3.2224    3.1648   12.4230 N.pl3     1 RES1    0.0000
     12 N4         3.3470    1.8703   12.7478 N.2       1 RES1    0.0000
     13 N5         2.2085    1.3313   12.3537 N.pl3     1 RES1    1.0000
     14 C1         8.5783    3.2555    7.1432 C.3       1 RES1    0.0000
     15 H3         9.5191    3.2789    7.3341 H         1 RES1    0.0000
     16 H4         8.1594    4.0410    7.5008 H         1 RES1    0.0000
     17 H5         8.4463    3.2272    6.1920 H         1 RES1    0.0000
     18 C2         7.9809    2.0554    7.7586 C.3       1 RES1    0.0000
     19 H6         8.2094    2.0673    8.7122 H         1 RES1    0.0000
     20 C3         6.4096    2.0412    7.6491 C.3       1 RES1    0.0000
     21 H7         6.1702    2.0194    6.7090 H         1 RES1    0.0000
     22 H8         6.0827    1.2214    8.0517 H         1 RES1    0.0000
     23 C4         5.6967    3.2075    8.2962 C.3       1 RES1    0.0000
     24 H9         6.1345    4.0360    8.0092 H         1 RES1    0.0000
     25 C5         5.3343    4.0299   10.5646 C.2       1 RES1    0.0000
     26 C6         5.5460    3.8246   11.9925 C.3       1 RES1    0.0000
     27 H10        6.2722    4.3949   12.2892 H         1 RES1    0.0000
     28 H11        5.8140    2.9039   12.1421 H         1 RES1    0.0000
     29 C7         4.3037    4.1247   12.8280 C.3       1 RES1    0.0000
     30 H12        4.0029    5.0295   12.6042 H         1 RES1    0.0000
     31 C8         4.4881    4.0496   14.3618 C.3       1 RES1    0.0000
     32 H13        4.9038    3.1876   14.5685 H         1 RES1    0.0000
     33 C9         6.7687    4.9630   15.1463 C.2       1 RES1    0.0000
     34 C10        8.3772    3.2732   15.8760 C.3       1 RES1    0.0000
     35 C11        8.2242    1.7977   16.0463 C.3       1 RES1    0.0000
     36 H14        7.4346    1.6141   16.5608 H         1 RES1    0.0000
     37 H15        8.9924    1.4470   16.5024 H         1 RES1    0.0000
     38 H16        8.1478    1.3826   15.1840 H         1 RES1    0.0000
     39 C12        2.0461    2.5704    8.1673 C.3       1 RES1    0.0000
     40 H17        1.7194    3.4722    8.1174 H         1 RES1    0.0000
     41 H18        1.5193    2.0735    8.7973 H         1 RES1    0.0000
     42 H19        1.9830    2.1591    7.3025 H         1 RES1    0.0000
     43 C13        4.2656    3.2225    7.7987 C.2       1 RES1    0.0000
     44 C14        1.3454    2.2466   11.8562 C.ar      1 RES1    0.0000
     45 C15        2.0041    3.4336   11.8380 C.ar      1 RES1    0.0000
     46 C16        1.4626    4.5655   11.2396 C.ar      1 RES1    0.0000
     47 H20        1.9623    5.3440   11.1398 H         1 RES1    0.0000
     48 C17        0.1527    4.4944   10.7944 C.ar      1 RES1    0.0000
     49 H21       -0.2631    5.2453   10.4368 H         1 RES1    0.0000
     50 C18       -0.5565    3.2486   10.8929 C.ar      1 RES1    0.0000
     51 H22       -1.4415    3.2225   10.6083 H         1 RES1    0.0000
     52 C19       -0.0049    2.1066   11.3770 C.ar      1 RES1    0.0000
     53 H23       -0.4632    1.2977   11.3989 H         1 RES1    0.0000
     54 C20        8.6048    3.8930   17.2334 C.3       1 RES1    0.0000
     55 H24        8.8320    4.8201   17.1276 H         1 RES1    0.0000
     56 H25        9.3235    3.4369   17.6761 H         1 RES1    0.0000
     57 H26        7.8055    3.8175   17.7588 H         1 RES1    0.0000
     58 C21        3.2780    4.1733   15.2034 C.3       1 RES1    0.0000
     59 H27        2.6564    3.4724   14.9164 H         1 RES1    0.0000
     60 C22        3.5682    3.9342   16.6581 C.3       1 RES1    0.0000
     61 H28        4.0374    3.1037   16.7578 H         1 RES1    0.0000
     62 H29        2.7425    3.8962   17.1470 H         1 RES1    0.0000
     63 H30        4.1093    4.6507   16.9974 H         1 RES1    0.0000
     64 C23        2.5378    5.5367   15.0258 C.3       1 RES1    0.0000
     65 H31        3.0988    6.2485   15.3421 H         1 RES1    0.0000
     66 H32        1.7217    5.5253   15.5306 H         1 RES1    0.0000
     67 H33        2.3382    5.6736   14.0978 H         1 RES1    0.0000
     68 C24        8.5585    0.7708    7.1639 C.3       1 RES1    0.0000
     69 H34        8.2525    0.6723    6.2589 H         1 RES1    0.0000
     70 H35        8.2674    0.0173    7.6832 H         1 RES1    0.0000
     71 H36        9.5173    0.8154    7.1748 H         1 RES1    0.0000
     72 C25        9.4009    3.6273   14.8665 C.3       1 RES1    0.0000
     73 H37        9.0919    3.3731   13.9932 H         1 RES1    0.0000
     74 H38       10.2184    3.1638   15.0635 H         1 RES1    0.0000
     75 H39        9.5576    4.5743   14.8872 H         1 RES1    0.0000
     76 O7        -2.9023    8.7477    8.0675 O.3       2 RES2    0.0000
     77 O8        -2.4357    6.5321    8.2634 O.2       2 RES2    0.0000
     78 O9        -7.8061   12.5421   10.9489 O.2       2 RES2   -1.0000
     79 O10       -5.3828    7.4785   13.2099 O.2       2 RES2    0.0000
     80 O11       -6.6905   10.0133   14.6318 O.3       2 RES2    0.0000
     81 N6        -4.5057    7.3699    8.6903 N.am      2 RES2    0.0000
     82 H40       -4.8237    6.5727    8.7438 H         2 RES2    0.0000
     83 N7        -4.2642    9.4262   13.6490 N.am      2 RES2    0.0000
     84 H41       -3.8284   10.0998   13.3401 H         2 RES2    0.0000
     85 N8        -6.7608    9.3325   10.9209 N.pl3     2 RES2    0.0000
     86 N9        -7.6862   11.2531   11.0267 N.pl3     2 RES2    1.0000
     87 C26       -0.5319    8.7373    8.8301 C.3       2 RES2    0.0000
     88 H42       -0.8667    9.0663    9.6730 H         2 RES2    0.0000
     89 H43        0.3190    9.1305    8.6489 H         2 RES2    0.0000
     90 H44       -0.4470    7.7816    8.8776 H         2 RES2    0.0000
     91 C27       -1.5233    9.1066    7.7148 C.3       2 RES2    0.0000
     92 C28       -3.1537    7.4605    8.3412 C.2       2 RES2    0.0000
     93 C29       -5.4396    8.4339    8.9737 C.3       2 RES2    0.0000
     94 H45       -4.9861    9.2770    8.7620 H         2 RES2    0.0000
     95 C30       -5.6983    8.4343   10.4879 C.3       2 RES2    0.0000
     96 H46       -6.0043    7.5289   10.7081 H         2 RES2    0.0000
     97 C31       -4.4591    8.6754   11.3405 C.3       2 RES2    0.0000
     98 H47       -3.7606    8.0614   11.0669 H         2 RES2    0.0000
     99 H48       -4.1392    9.5780   11.1885 H         2 RES2    0.0000
    100 C32       -4.7243    8.4934   12.7830 C.2       2 RES2    0.0000
    101 C33       -4.4777    9.3327   15.0623 C.3       2 RES2    0.0000
    102 H49       -4.0502    8.5074   15.3749 H         2 RES2    0.0000
    103 C34       -3.7670   10.5169   15.7459 C.3       2 RES2    0.0000
    104 H50       -4.0197   10.5404   16.6824 H         2 RES2    0.0000
    105 H51       -4.0680   11.3444   15.3372 H         2 RES2    0.0000
    106 C35       -2.2245   10.4340   15.6401 C.3       2 RES2    0.0000
    107 H52       -2.0056   10.2107   14.7120 H         2 RES2    0.0000
    108 C36       -1.6305    9.3716   16.5097 C.3       2 RES2    0.0000
    109 H53       -0.6794    9.3506   16.3832 H         2 RES2    0.0000
    110 H54       -2.0045    8.5200   16.2750 H         2 RES2    0.0000
    111 H55       -1.8263    9.5649   17.4292 H         2 RES2    0.0000
    112 C37       -1.1345    8.4479    6.3952 C.3       2 RES2    0.0000
    113 H56       -1.0897    7.4969    6.5144 H         2 RES2    0.0000
    114 H57       -0.2831    8.7788    6.1093 H         2 RES2    0.0000
    115 H58       -1.7994    8.6532    5.7299 H         2 RES2    0.0000
    116 C38       -1.6543   10.6159    7.5822 C.3       2 RES2    0.0000
    117 H59       -2.3753   10.8253    6.9851 H         2 RES2    0.0000
    118 H60       -0.8340   10.9778    7.2332 H         2 RES2    0.0000
    119 H61       -1.8289   10.9998    8.4446 H         2 RES2    0.0000
    120 C39       -6.6822    8.3716    8.1065 C.3       2 RES2    0.0000
    121 H62       -7.2602    9.1231    8.3546 H         2 RES2    0.0000
    122 C40       -6.2992    8.5371    6.6421 C.3       2 RES2    0.0000
    123 H63       -5.9252    9.4086    6.5058 H         2 RES2    0.0000
    124 H64       -7.0878    8.4402    6.0960 H         2 RES2    0.0000
    125 H65       -5.6605    7.8666    6.4000 H         2 RES2    0.0000
    126 C41       -7.4857    7.0517    8.3424 C.3       2 RES2    0.0000
    127 H66       -8.2687    7.0495    7.7878 H         2 RES2    0.0000
    128 H67       -7.7469    6.9965    9.2644 H         2 RES2    0.0000
    129 H68       -6.9344    6.2976    8.1198 H         2 RES2    0.0000
    130 N10       -6.5716   10.6873   10.5864 N.2       2 RES2    0.0000
    131 C42       -8.5777   10.3654   11.5728 C.ar      2 RES2    0.0000
    132 C43       -9.8830   10.5073   12.0630 C.ar      2 RES2    0.0000
    133 H69      -10.3127   11.3316   12.0703 H         2 RES2    0.0000
    134 C44      -10.4955    9.3818   12.5288 C.ar      2 RES2    0.0000
    135 H70      -11.3699    9.4205   12.8378 H         2 RES2    0.0000
    136 C45       -9.7925    8.1646   12.5410 C.ar      2 RES2    0.0000
    137 H71      -10.2129    7.4169   12.8998 H         2 RES2    0.0000
    138 C46       -8.5085    8.0210   12.0460 C.ar      2 RES2    0.0000
    139 H72       -8.0508    7.2119   12.0776 H         2 RES2    0.0000
    140 C47       -7.9681    9.1363   11.5145 C.ar      2 RES2    0.0000
    141 C48       -1.6423   11.8102   15.9271 C.3       2 RES2    0.0000
    142 H73       -2.0287   12.1595   16.7335 H         2 RES2    0.0000
    143 H74       -1.8386   12.4001   15.1961 H         2 RES2    0.0000
    144 H75       -0.6901   11.7383   16.0341 H         2 RES2    0.0000
    145 C49       -6.0289    9.2905   15.5245 C.2       2 RES2    0.0000
    146 O12       -6.3186    8.8222   16.5097 O.2       2 RES2    0.0000
    147 C50       -8.1187    9.9616   15.2886 C.3       2 RES2    0.0000
    148 H76       -8.0283    9.9264   16.2397 H         2 RES2    0.0000
    149 H77       -8.5810    9.1812   14.9760 H         2 RES2    0.0000
    150 H78       -8.6086   10.7481   15.0368 H         2 RES2    0.0000
@<TRIPOS>BOND
     1    1   33 1
     2    2   39 1
     3    3   43 2
     4    4   25 2
     5    5   13 1
     6    6   33 2
     7    7    8 1
     8    9   10 1
     9   11   12 1
    10   12   13 2
    11   13   44 1
    12   14   15 1
    13   16   14 1
    14   17   14 1
    15   18   14 1
    16   19   18 1
    17   20   18 1
    18   21   20 1
    19   22   20 1
    20   23    7 1
    21   24   23 1
    22   25    7 1
    23   26   25 1
    24   27   26 1
    25   28   26 1
    26   29   11 1
    27   30   29 1
    28   31    9 1
    29   32   31 1
    30   33    9 1
    31   34    1 1
    32   35   34 1
    33   36   35 1
    34   37   35 1
    35   38   35 1
    36   39   40 1
    37   41   39 1
    38   42   39 1
    39   43    2 1
    40   44   45 ar
    41   45   11 1
    42   46   45 ar
    43   47   46 1
    44   48   46 ar
    45   49   48 1
    46   50   48 ar
    47   51   50 1
    48   52   44 ar
    49   53   52 1
    50   54   34 1
    51   55   54 1
    52   56   54 1
    53   57   54 1
    54   58   31 1
    55   59   58 1
    56   60   58 1
    57   61   60 1
    58   62   60 1
    59   63   60 1
    60   64   58 1
    61   65   64 1
    62   66   64 1
    63   67   64 1
    64   68   18 1
    65   69   68 1
    66   70   68 1
    67   71   68 1
    68   72   34 1
    69   73   72 1
    70   74   72 1
    71   75   72 1
    72   76   91 1
    73   77   92 2
    74   78   86 1
    75   79  100 2
    76   80  145 1
    77   81   82 1
    78   83   84 1
    79   85   95 1
    80   86  130 2
    81   87   88 1
    82   89   87 1
    83   90   87 1
    84   91   87 1
    85   92   76 1
    86   93   81 1
    87   94   93 1
    88   95   93 1
    89   96   95 1
    90   97   95 1
    91   98   97 1
    92   99   97 1
    93  100   83 1
    94  101   83 1
    95  102  101 1
    96  103  101 1
    97  104  103 1
    98  105  103 1
    99  106  103 1
   100  107  106 1
   101  108  106 1
   102  109  108 1
   103  110  108 1
   104  111  108 1
   105  112   91 1
   106  113  112 1
   107  114  112 1
   108  115  112 1
   109  116   91 1
   110  117  116 1
   111  118  116 1
   112  119  116 1
   113  120   93 1
   114  121  120 1
   115  122  120 1
   116  123  122 1
   117  124  122 1
   118  125  122 1
   119  126  120 1
   120  127  126 1
   121  128  126 1
   122  129  126 1
   123  130   85 1
   124  131   86 1
   125  132  131 ar
   126  133  132 1
   127  134  132 ar
   128  135  134 1
   129  136  134 ar
   130  137  136 1
   131  138  136 ar
   132  139  138 1
   133  140   85 1
   134  141  106 1
   135  142  141 1
   136  143  141 1
   137  144  141 1
   138  145  101 1
   139  146  145 2
   140  147   80 1
   141  148  147 1
   142  149  147 1
   143  150  147 1
   144   20   23 1
   145   23   43 1
   146   26   29 1
   147   29   31 1
   148   50   52 ar
   149   81   92 1
   150   97  100 1
   151  131  140 ar
   152  138  140 ar
@<TRIPOS>SUBSTRUCTURE
     1 RES1 1
     2 RES2 76

@<TRIPOS>CRYSIN
  10.1520   12.5100   12.6040  92.4200 102.8610 112.6720   1 1

