# MOL2 file generated by ConQuest
# Please check atom types

@<TRIPOS>MOLECULE
COTHUQ
    66    72     2
SMALL
NO_CHARGES
****
Generated from CSD

@<TRIPOS>ATOM
      1 O1        10.0620    2.2765    0.2763 O.2       1 RES1    0.0000
      2 O2         8.9482    7.5498   -0.4190 O.2       1 RES1    0.0000
      3 O3         8.6217    8.6823    1.3952 O.2       1 RES1    0.0000
      4 O4        10.5150    0.5353    4.3647 O.3       1 RES1    0.0000
      5 O5         7.2290    0.9718    2.6508 O.2       1 RES1    0.0000
      6 N1         8.8071    7.6125    0.8096 N.pl3     1 RES1    0.0000
      7 N2         9.1497    2.8553    3.6427 N.3       1 RES1    0.0000
      8 C1         9.6723    2.7096    1.3496 C.2       1 RES1    0.0000
      9 C2         9.2894    4.0596    1.7269 C.ar      1 RES1    0.0000
     10 C3         9.2087    5.2013    0.9499 C.ar      1 RES1    0.0000
     11 C4         8.8742    6.3849    1.5757 C.ar      1 RES1    0.0000
     12 C5         8.6033    6.4285    2.9601 C.ar      1 RES1    0.0000
     13 C6         8.6677    5.3046    3.7326 C.ar      1 RES1    0.0000
     14 C7         9.0140    4.0951    3.1140 C.ar      1 RES1    0.0000
     15 C8         9.1951    2.4610    5.0534 C.3       1 RES1    0.0000
     16 C9        10.4639    1.6406    5.2850 C.3       1 RES1    0.0000
     17 C10       10.7004    0.9979    3.0108 C.3       1 RES1    0.0000
     18 C11        9.4947    1.8667    2.6440 C.3       1 RES1    0.0000
     19 C12       10.5677   -0.2422    2.1101 C.3       1 RES1    0.0000
     20 C13        9.0670   -0.4893    1.9878 C.3       1 RES1    0.0000
     21 C14        8.4011    0.7913    2.4276 C.2       1 RES1    0.0000
     22 H1         9.3777    5.1711    0.0151 H         1 RES1    0.0000
     23 H2         8.3726    7.2574    3.3632 H         1 RES1    0.0000
     24 H3         8.4824    5.3401    4.6640 H         1 RES1    0.0000
     25 H4         8.3964    1.9229    5.2807 H         1 RES1    0.0000
     26 H5         9.2028    3.2667    5.6296 H         1 RES1    0.0000
     27 H6        11.2599    2.2150    5.1599 H         1 RES1    0.0000
     28 H7        10.4734    1.2991    6.2151 H         1 RES1    0.0000
     29 H8        11.5699    1.4743    2.8827 H         1 RES1    0.0000
     30 H9        10.9675   -0.0741    1.2207 H         1 RES1    0.0000
     31 H10       11.0182   -1.0227    2.5207 H         1 RES1    0.0000
     32 H11        8.8251   -0.7045    1.0527 H         1 RES1    0.0000
     33 H12        8.7906   -1.2428    2.5688 H         1 RES1    0.0000
     34 O6         4.0623    2.8753   -0.1827 O.2       2 RES2    0.0000
     35 O7         3.4789   -2.5496   -0.2355 O.2       2 RES2    0.0000
     36 O8         3.3211   -3.5069    1.6954 O.2       2 RES2    0.0000
     37 O9         5.3290    4.8329    3.7034 O.3       2 RES2    0.0000
     38 O10        1.8260    4.2815    2.4355 O.2       2 RES2    0.0000
     39 N3         3.4565   -2.5044    0.9872 N.pl3     2 RES2    0.0000
     40 N4         3.9006    2.5044    3.3367 N.3       2 RES2    0.0000
     41 C15        3.8555    1.1368    1.5060 C.ar      2 RES2    0.0000
     42 C16        4.0264    2.4900    0.9738 C.2       2 RES2    0.0000
     43 C17        3.7594   -0.0824    0.8470 C.ar      2 RES2    0.0000
     44 C18        3.5769   -1.2127    1.6329 C.ar      2 RES2    0.0000
     45 C19        3.4956   -1.1384    3.0347 C.ar      2 RES2    0.0000
     46 C20        3.6059    0.0625    3.6879 C.ar      2 RES2    0.0000
     47 C21        3.7918    1.2176    2.9099 C.ar      2 RES2    0.0000
     48 C22        4.1510    2.9793    4.6915 C.3       2 RES2    0.0000
     49 C23        5.4130    3.8061    4.6974 C.3       2 RES2    0.0000
     50 C24        5.3378    4.3034    2.3592 C.3       2 RES2    0.0000
     51 C25        4.0782    3.4121    2.2185 C.3       2 RES2    0.0000
     52 C26        5.0711    5.4613    1.4182 C.3       2 RES2    0.0000
     53 C27        3.5688    5.7390    1.4987 C.3       2 RES2    0.0000
     54 C28        2.9547    4.4617    2.0863 C.2       2 RES2    0.0000
     55 H13        3.8148   -0.1410   -0.0995 H         2 RES2    0.0000
     56 H14        3.3621   -1.9334    3.5375 H         2 RES2    0.0000
     57 H15        3.5574    0.1119    4.6354 H         2 RES2    0.0000
     58 H16        4.2499    2.2089    5.3051 H         2 RES2    0.0000
     59 H17        3.3881    3.5282    5.0021 H         2 RES2    0.0000
     60 H18        5.5391    4.2146    5.5905 H         2 RES2    0.0000
     61 H19        6.1928    3.2244    4.5118 H         2 RES2    0.0000
     62 H20        6.1826    3.8143    2.1408 H         2 RES2    0.0000
     63 H21        5.3301    5.2232    0.4929 H         2 RES2    0.0000
     64 H22        5.5868    6.2591    1.6966 H         2 RES2    0.0000
     65 H23        3.3881    6.5165    2.0854 H         2 RES2    0.0000
     66 H24        3.1986    5.9252    0.5999 H         2 RES2    0.0000
@<TRIPOS>BOND
     1    1    8 2
     2    2    6 2
     3    3    6 2
     4    4   16 1
     5    5   21 2
     6    6   11 1
     7    7   14 1
     8    8    9 1
     9    9   10 ar
    10   10   11 ar
    11   11   12 ar
    12   12   13 ar
    13   13   14 ar
    14   14    9 ar
    15   15    7 1
    16   16   15 1
    17   17    4 1
    18   18    7 1
    19   19   17 1
    20   20   19 1
    21   21   18 1
    22   22   10 1
    23   23   12 1
    24   24   13 1
    25   25   15 1
    26   26   15 1
    27   27   16 1
    28   28   16 1
    29   29   17 1
    30   30   19 1
    31   31   19 1
    32   32   20 1
    33   33   20 1
    34   34   42 2
    35   35   39 2
    36   36   39 2
    37   37   49 1
    38   38   54 2
    39   39   44 1
    40   40   47 1
    41   41   42 1
    42   42   51 1
    43   43   41 ar
    44   44   43 ar
    45   45   44 ar
    46   46   45 ar
    47   47   41 ar
    48   48   40 1
    49   49   48 1
    50   50   37 1
    51   51   40 1
    52   52   50 1
    53   53   52 1
    54   54   51 1
    55   55   43 1
    56   56   45 1
    57   57   46 1
    58   58   48 1
    59   59   48 1
    60   60   49 1
    61   61   49 1
    62   62   50 1
    63   63   52 1
    64   64   52 1
    65   65   53 1
    66   66   53 1
    67    8   18 1
    68   17   18 1
    69   20   21 1
    70   46   47 ar
    71   50   51 1
    72   53   54 1
@<TRIPOS>SUBSTRUCTURE
     1 RES1 1
     2 RES2 34

@<TRIPOS>CRYSIN
  10.4520   16.1480   14.9800  90.0000  95.4410  90.0000 231 1

