# MOL2 file generated by ConQuest
# Please check atom types

@<TRIPOS>MOLECULE
COTLED
    42    42     2
SMALL
NO_CHARGES
****
Generated from CSD

@<TRIPOS>ATOM
      1 O1         2.3078    4.0045    0.5369 O.2       1 RES1    0.0000
      2 O2         1.5731    2.0289    0.9583 O.2       1 RES1    0.0000
      3 O3        -2.2966    1.2040    3.4668 O.2       1 RES1    0.0000
      4 O4        -3.5130    2.8388    4.1977 O.2       1 RES1    0.0000
      5 N1         0.9100    6.1380    1.2913 N.pl3     1 RES1    0.0000
      6 H1         1.6825    5.9356    0.7760 H         1 RES1    0.0000
      7 H2         0.6282    7.1421    1.5520 H         1 RES1    0.0000
      8 N2         1.4796    3.2434    1.0413 N.pl3     1 RES1    0.0000
      9 N3        -2.5371    2.4095    3.6022 N.pl3     1 RES1    0.0000
     10 C1        -1.0073    5.6540    2.6015 C.ar      1 RES1    0.0000
     11 C2         0.1425    5.2135    1.8543 C.ar      1 RES1    0.0000
     12 C3         0.3511    3.7953    1.7605 C.ar      1 RES1    0.0000
     13 C4        -0.5271    2.8980    2.3245 C.ar      1 RES1    0.0000
     14 H3        -0.3589    1.9785    2.2198 H         1 RES1    0.0000
     15 C5        -1.6132    3.3725    3.0039 C.ar      1 RES1    0.0000
     16 C6        -1.8590    4.7549    3.1591 C.ar      1 RES1    0.0000
     17 H4        -2.6103    5.3630    3.6726 H         1 RES1    0.0000
     18 C7        -1.2629    7.1356    2.7404 C.3       1 RES1    0.0000
     19 H5        -0.4541    7.5442    3.1672 H         1 RES1    0.0000
     20 H6        -1.3343    7.5603    1.7686 H         1 RES1    0.0000
     21 H7        -2.1093    7.1903    3.3297 H         1 RES1    0.0000
     22 O5         8.0065    0.0671    0.3916 O.2       2 RES2    0.0000
     23 O6         7.2165    2.0229    0.8410 O.2       2 RES2    0.0000
     24 O7         3.3778    2.6934    3.4091 O.2       2 RES2    0.0000
     25 O8         2.1764    1.0227    4.0903 O.2       2 RES2    0.0000
     26 N4         6.6354   -2.1063    1.0124 N.pl3     2 RES2    0.0000
     27 H8         7.3554   -1.8338    0.6136 H         2 RES2    0.0000
     28 H9         6.3634   -2.8954    1.1009 H         2 RES2    0.0000
     29 N5         7.1499    0.7985    0.8960 N.pl3     2 RES2    0.0000
     30 N6         3.1460    1.4815    3.4939 N.pl3     2 RES2    0.0000
     31 C8         4.6920   -1.7028    2.3569 C.ar      2 RES2    0.0000
     32 C9         5.8423   -1.2299    1.6179 C.ar      2 RES2    0.0000
     33 C10        6.0302    0.1953    1.5845 C.ar      2 RES2    0.0000
     34 C11        5.1433    1.0734    2.1936 C.ar      2 RES2    0.0000
     35 H10        5.3015    1.9464    2.1656 H         2 RES2    0.0000
     36 C12        4.0726    0.5595    2.8577 C.ar      2 RES2    0.0000
     37 C13        3.8415   -0.8173    2.9498 C.ar      2 RES2    0.0000
     38 H11        3.1446   -1.1582    3.3838 H         2 RES2    0.0000
     39 C14        4.4658   -3.1856    2.4616 C.3       2 RES2    0.0000
     40 H12        4.3174   -3.5389    1.5520 H         2 RES2    0.0000
     41 H13        5.2465   -3.6193    2.9778 H         2 RES2    0.0000
     42 H14        3.6850   -3.3008    2.9597 H         2 RES2    0.0000
@<TRIPOS>BOND
     1    1    8 2
     2    2    8 2
     3    3    9 2
     4    4    9 2
     5    5    6 1
     6    7    5 1
     7    8   12 1
     8    9   15 1
     9   10   11 ar
    10   11    5 1
    11   12   11 ar
    12   13   12 ar
    13   14   13 1
    14   15   13 ar
    15   16   10 ar
    16   17   16 1
    17   18   10 1
    18   19   18 1
    19   20   18 1
    20   21   18 1
    21   22   29 2
    22   23   29 2
    23   24   30 2
    24   25   30 2
    25   26   27 1
    26   28   26 1
    27   29   33 1
    28   30   36 1
    29   31   32 ar
    30   32   26 1
    31   33   32 ar
    32   34   33 ar
    33   35   34 1
    34   36   34 ar
    35   37   31 ar
    36   38   37 1
    37   39   31 1
    38   40   39 1
    39   41   39 1
    40   42   39 1
    41   15   16 ar
    42   36   37 ar
@<TRIPOS>SUBSTRUCTURE
     1 RES1 1
     2 RES2 22

@<TRIPOS>CRYSIN
  10.9472   16.0857    9.2315  90.0000 102.1860  90.0000  14 1

