# MOL2 file generated by ConQuest
# Please check atom types

@<TRIPOS>MOLECULE
COTLAZ
    21    21     1
SMALL
NO_CHARGES
****
Generated from CSD

@<TRIPOS>ATOM
      1 O1         5.9468    3.3530    3.3401 O.2       1 RES1    0.0000
      2 O2         6.6700    1.6116    2.2827 O.2       1 RES1    0.0000
      3 O3         4.4402    0.4960    1.1589 O.2       1 RES1    0.0000
      4 O4         5.7085    0.1344   -0.5506 O.2       1 RES1    0.0000
      5 N1         5.6604    5.5254    1.8102 N.pl3     1 RES1    0.0000
      6 H1         5.8201    5.3020    2.6780 H         1 RES1    0.0000
      7 H2         5.6916    6.3162    1.5527 H         1 RES1    0.0000
      8 N2         6.0686    2.6864    2.3076 N.pl3     1 RES1    0.0000
      9 N3         5.1494    0.8757    0.2362 N.pl3     1 RES1    0.0000
     10 C1         4.9172    4.1435   -1.4914 C.ar      1 RES1    0.0000
     11 C2         5.1304    5.0167   -0.4577 C.ar      1 RES1    0.0000
     12 H3         5.0505    5.9616   -0.6154 H         1 RES1    0.0000
     13 C3         5.4432    4.5920    0.8652 C.ar      1 RES1    0.0000
     14 C4         5.5373    3.2002    1.0789 C.ar      1 RES1    0.0000
     15 C5         5.2676    2.3212    0.0063 C.ar      1 RES1    0.0000
     16 C6         4.9703    2.7574   -1.2431 C.ar      1 RES1    0.0000
     17 H4         4.7400    2.1356   -1.9230 H         1 RES1    0.0000
     18 C7         4.6084    4.6415   -2.8750 C.3       1 RES1    0.0000
     19 H5         4.5833    5.5823   -2.8774 H         1 RES1    0.0000
     20 H6         5.3190    4.4362   -3.4615 H         1 RES1    0.0000
     21 H7         3.8184    4.2548   -3.1951 H         1 RES1    0.0000
@<TRIPOS>BOND
     1    1    8 2
     2    2    8 2
     3    3    9 2
     4    4    9 2
     5    5    6 1
     6    7    5 1
     7    8   14 1
     8    9   15 1
     9   10   11 ar
    10   11   12 1
    11   13    5 1
    12   14   13 ar
    13   15   14 ar
    14   16   10 ar
    15   17   16 1
    16   18   10 1
    17   19   18 1
    18   20   18 1
    19   21   18 1
    20   11   13 ar
    21   15   16 ar
@<TRIPOS>SUBSTRUCTURE
     1 RES1 1

@<TRIPOS>CRYSIN
   7.0555    8.2457   14.3539  90.0000  97.0730  90.0000  14 1

