# MOL2 file generated by ConQuest
# Please check atom types

@<TRIPOS>MOLECULE
COTLON
    42    42     2
SMALL
NO_CHARGES
****
Generated from CSD

@<TRIPOS>ATOM
      1 O1         2.4496    3.9217   12.8016 O.2       1 RES1    0.0000
      2 O2         3.4196    3.0444   11.0892 O.2       1 RES1    0.0000
      3 O3         5.8583    7.2747    9.0235 O.2       1 RES1    0.0000
      4 O4         4.3971    8.6325    8.2027 O.2       1 RES1    0.0000
      5 N1         2.8670    3.9820   11.6592 N.pl3     1 RES1    0.0000
      6 N2         5.0119    5.0924   10.2295 N.pl3     1 RES1    0.0000
      7 H1         5.6771    5.3609    9.7160 H         1 RES1    0.0000
      8 H2         5.0979    4.2985   10.4462 H         1 RES1    0.0000
      9 N3         4.6944    7.6715    8.9011 N.pl3     1 RES1    0.0000
     10 C1         1.4599    5.8647   10.9762 C.ar      1 RES1    0.0000
     11 C2         2.7021    5.2440   10.9326 C.ar      1 RES1    0.0000
     12 C3         3.8397    5.7502   10.2484 C.ar      1 RES1    0.0000
     13 C4         3.6277    6.9958    9.6195 C.ar      1 RES1    0.0000
     14 C5         2.3969    7.6438    9.6560 C.ar      1 RES1    0.0000
     15 H3         2.3804    8.5400    9.1625 H         1 RES1    0.0000
     16 C6         1.3326    7.0822   10.2931 C.ar      1 RES1    0.0000
     17 H4         0.5131    7.5814   10.2578 H         1 RES1    0.0000
     18 C7         0.2532    5.2653   11.6428 C.3       1 RES1    0.0000
     19 H5         0.2346    4.1936   11.2824 H         1 RES1    0.0000
     20 H6         0.3957    5.2844   12.5425 H         1 RES1    0.0000
     21 H7        -0.4825    5.9024   11.4237 H         1 RES1    0.0000
     22 O5         3.8254    1.6171    5.1642 O.2       2 RES2    0.0000
     23 O6         3.7588    2.5193    3.2092 O.2       2 RES2    0.0000
     24 O7        -0.1395    6.0049    3.3105 O.2       2 RES2    0.0000
     25 O8        -2.0249    5.0425    3.7380 O.2       2 RES2    0.0000
     26 N4         3.2137    2.1587    4.2468 N.pl3     2 RES2    0.0000
     27 N5         2.0476    4.5562    3.3176 N.pl3     2 RES2    0.0000
     28 H8         1.7069    5.3316    3.2622 H         2 RES2    0.0000
     29 H9         2.8560    4.3799    3.1798 H         2 RES2    0.0000
     30 N6        -0.7983    5.0285    3.6956 N.pl3     2 RES2    0.0000
     31 C8         1.0115    1.4165    5.0276 C.ar      2 RES2    0.0000
     32 C9         1.7796    2.4007    4.4034 C.ar      2 RES2    0.0000
     33 C10        1.2741    3.6398    3.9123 C.ar      2 RES2    0.0000
     34 C11       -0.1128    3.8285    4.1443 C.ar      2 RES2    0.0000
     35 C12       -0.8910    2.8613    4.7709 C.ar      2 RES2    0.0000
     36 H10       -1.7352    3.0843    4.8168 H         2 RES2    0.0000
     37 C13       -0.3514    1.6910    5.1925 C.ar      2 RES2    0.0000
     38 H11       -0.8919    0.9911    5.6294 H         2 RES2    0.0000
     39 C14        1.5408    0.0838    5.4586 C.3       2 RES2    0.0000
     40 H12        2.2331   -0.2669    4.8521 H         2 RES2    0.0000
     41 H13        0.7448   -0.5555    5.3468 H         2 RES2    0.0000
     42 H14        1.8242    0.1789    6.3478 H         2 RES2    0.0000
@<TRIPOS>BOND
     1    1    5 2
     2    2    5 2
     3    3    9 2
     4    4    9 2
     5    5   11 1
     6    6    7 1
     7    8    6 1
     8    9   13 1
     9   10   11 ar
    10   11   12 ar
    11   12    6 1
    12   13   12 ar
    13   14   13 ar
    14   15   14 1
    15   16   10 ar
    16   17   16 1
    17   18   10 1
    18   19   18 1
    19   20   18 1
    20   21   18 1
    21   22   26 2
    22   23   26 2
    23   24   30 2
    24   25   30 2
    25   26   32 1
    26   27   28 1
    27   29   27 1
    28   30   34 1
    29   31   32 ar
    30   32   33 ar
    31   33   27 1
    32   34   33 ar
    33   35   34 ar
    34   36   35 1
    35   37   31 ar
    36   38   37 1
    37   39   31 1
    38   40   39 1
    39   41   39 1
    40   42   39 1
    41   14   16 ar
    42   35   37 ar
@<TRIPOS>SUBSTRUCTURE
     1 RES1 1
     2 RES2 22

@<TRIPOS>CRYSIN
   8.0836    9.1678   11.9776  93.1960  98.2110 110.5890   2 1

