# MOL2 file generated by ConQuest
# Please check atom types

@<TRIPOS>MOLECULE
COTMAA
    60    60     2
SMALL
NO_CHARGES
****
Generated from CSD

@<TRIPOS>ATOM
      1 O1         6.5485   -1.4705    1.5173 O.2       1 RES1    0.0000
      2 O2         8.5929   -0.8116    1.7119 O.2       1 RES1    0.0000
      3 O3         5.9789    4.3352    4.9247 O.2       1 RES1    0.0000
      4 O4         7.1189    2.7121    5.7841 O.2       1 RES1    0.0000
      5 O5         2.4561    1.0621    6.4133 O.2       2 RES2    0.0000
      6 O6         4.5466    1.4561    6.0419 O.2       2 RES2    0.0000
      7 O7         3.7530   -0.4403    0.7872 O.2       2 RES2    0.0000
      8 O8         2.7943    1.1261   -0.3336 O.2       2 RES2    0.0000
      9 N1         7.3878   -0.6156    1.7634 N.pl3     1 RES1    0.0000
     10 N2         6.5358    3.2442    4.8266 N.pl3     1 RES1    0.0000
     11 N3         7.2436    0.4630    4.4793 N.pl3     1 RES1    0.0000
     12 H1         7.3083    0.8291    5.2765 H         1 RES1    0.0000
     13 N4         7.4709   -0.8992    4.3223 N.2       1 RES1    0.0000
     14 N5         3.3790    1.3705    5.6826 N.pl3     2 RES2    0.0000
     15 N6         3.1953    0.6600    0.7277 N.pl3     2 RES2    0.0000
     16 N7         3.7184   -0.3919    3.3788 N.pl3     2 RES2    0.0000
     17 H2         3.9455   -0.8703    2.6767 H         2 RES2    0.0000
     18 N8         3.7970   -0.9446    4.6484 N.2       2 RES2    0.0000
     19 C1         6.5629    1.5045    0.9843 C.ar      1 RES1    0.0000
     20 C2         6.9282    0.7590    2.0759 C.ar      1 RES1    0.0000
     21 C3         6.9247    1.2313    3.4135 C.ar      1 RES1    0.0000
     22 C4         6.5375    2.5852    3.5373 C.ar      1 RES1    0.0000
     23 C5         6.1430    3.3473    2.4563 C.ar      1 RES1    0.0000
     24 H3         5.8616    4.2444    2.5922 H         1 RES1    0.0000
     25 C6         6.1528    2.8286    1.1897 C.ar      1 RES1    0.0000
     26 H4         5.8833    3.3638    0.4529 H         1 RES1    0.0000
     27 C7         6.6205    0.9590   -0.4348 C.3       1 RES1    0.0000
     28 H5         7.5052    0.5703   -0.6009 H         1 RES1    0.0000
     29 H6         6.4595    1.6860   -1.0719 H         1 RES1    0.0000
     30 H7         5.9347    0.2681   -0.5480 H         1 RES1    0.0000
     31 C8         7.6068   -1.5633    5.3988 C.2       1 RES1    0.0000
     32 C9         7.4584   -1.0137    6.7938 C.3       1 RES1    0.0000
     33 H8         8.2483   -0.4785    7.0187 H         1 RES1    0.0000
     34 H9         7.3732   -1.7541    7.4293 H         1 RES1    0.0000
     35 H10        6.6584   -0.4496    6.8390 H         1 RES1    0.0000
     36 C10        7.9274   -3.0101    5.2387 C.3       1 RES1    0.0000
     37 H11        7.9984   -3.2256    4.2861 H         1 RES1    0.0000
     38 H12        7.2163   -3.5494    5.6433 H         1 RES1    0.0000
     39 H13        8.7786   -3.2070    5.6826 H         1 RES1    0.0000
     40 C11        2.6196    3.0750    4.1608 C.ar      2 RES2    0.0000
     41 C12        3.0595    1.7788    4.2921 C.ar      2 RES2    0.0000
     42 C13        3.2920    0.8868    3.2187 C.ar      2 RES2    0.0000
     43 C14        3.0172    1.4354    1.9400 C.ar      2 RES2    0.0000
     44 C15        2.5556    2.7389    1.7815 C.ar      2 RES2    0.0000
     45 H14        2.3792    3.0740    0.9104 H         2 RES2    0.0000
     46 C16        2.3530    3.5422    2.8745 C.ar      2 RES2    0.0000
     47 H15        2.0269    4.4269    2.7537 H         2 RES2    0.0000
     48 C17        2.4614    3.9928    5.3384 C.3       2 RES2    0.0000
     49 H16        1.9505    3.5380    6.0404 H         2 RES2    0.0000
     50 H17        1.9848    4.8023    5.0591 H         2 RES2    0.0000
     51 H18        3.3453    4.2372    5.6841 H         2 RES2    0.0000
     52 C18        4.0740   -2.1882    4.7164 C.2       2 RES2    0.0000
     53 C19        4.2820   -3.0884    3.5328 C.3       2 RES2    0.0000
     54 H19        3.5018   -3.0369    2.9425 H         2 RES2    0.0000
     55 H20        4.3980   -4.0114    3.8422 H         2 RES2    0.0000
     56 H21        5.0820   -2.8038    3.0436 H         2 RES2    0.0000
     57 C20        4.1721   -2.7760    6.0857 C.3       2 RES2    0.0000
     58 H22        4.0691   -2.0665    6.7530 H         2 RES2    0.0000
     59 H23        5.0478   -3.2029    6.1959 H         2 RES2    0.0000
     60 H24        3.4652   -3.4442    6.2065 H         2 RES2    0.0000
@<TRIPOS>BOND
     1    1    9 2
     2    2    9 2
     3    3   10 2
     4    4   10 2
     5    5   14 2
     6    6   14 2
     7    7   15 2
     8    8   15 2
     9    9   20 1
    10   10   22 1
    11   11   12 1
    12   13   11 1
    13   14   41 1
    14   15   43 1
    15   16   17 1
    16   18   16 1
    17   19   20 ar
    18   20   21 ar
    19   21   11 1
    20   22   21 ar
    21   23   22 ar
    22   24   23 1
    23   25   19 ar
    24   26   25 1
    25   27   19 1
    26   28   27 1
    27   29   27 1
    28   30   27 1
    29   31   13 2
    30   32   31 1
    31   33   32 1
    32   34   32 1
    33   35   32 1
    34   36   31 1
    35   37   36 1
    36   38   36 1
    37   39   36 1
    38   40   41 ar
    39   41   42 ar
    40   42   16 1
    41   43   42 ar
    42   44   43 ar
    43   45   44 1
    44   46   40 ar
    45   47   46 1
    46   48   40 1
    47   49   48 1
    48   50   48 1
    49   51   48 1
    50   52   18 2
    51   53   52 1
    52   54   53 1
    53   55   53 1
    54   56   53 1
    55   57   52 1
    56   58   57 1
    57   59   57 1
    58   60   57 1
    59   23   25 ar
    60   44   46 ar
@<TRIPOS>SUBSTRUCTURE
     1 RES1 1
     2 RES2 5

@<TRIPOS>CRYSIN
   7.6072   10.3120   15.3354  90.0000 100.1110  90.0000   4 1

