# MOL2 file generated by ConQuest
# Please check atom types

@<TRIPOS>MOLECULE
COTRIM
    50    52     2
SMALL
USER_CHARGES
****
Generated from CSD

@<TRIPOS>ATOM
      1 O1         9.8537   -1.2936   10.9257 O.2       1 RES1   -1.0000
      2 O2         6.6826    1.5193   15.3696 O.2       1 RES1   -1.0000
      3 N1         9.2556   -0.8885   12.0050 N.pl3     1 RES1    1.0000
      4 N2         7.2791    0.4198   15.4602 N.pl3     1 RES1    1.0000
      5 N3         7.3503   -0.3517   16.4664 N.2       1 RES1    0.0000
      6 C1         8.5587    0.2667   12.0055 C.ar      1 RES1    0.0000
      7 C2         7.9170    0.7084   13.1265 C.ar      1 RES1    0.0000
      8 C3         7.9748   -0.0461   14.2728 C.ar      1 RES1    0.0000
      9 C4         8.6861   -1.2284   14.2781 C.ar      1 RES1    0.0000
     10 C5         9.3276   -1.6352   13.1329 C.ar      1 RES1    0.0000
     11 C6         6.6678   -0.0473   17.6626 C.ar      1 RES1    0.0000
     12 C7         5.8788    1.0641   17.9707 C.ar      1 RES1    0.0000
     13 C8         5.2546    1.1226   19.2129 C.ar      1 RES1    0.0000
     14 C9         5.4171    0.1199   20.1367 C.ar      1 RES1    0.0000
     15 C10        6.2072   -0.9684   19.8504 C.ar      1 RES1    0.0000
     16 C11        6.8300   -1.0545   18.6204 C.ar      1 RES1    0.0000
     17 H1         8.5748    0.7428   11.1883 H         1 RES1    0.0000
     18 H2         7.4366    1.5193   13.1289 H         1 RES1    0.0000
     19 H3         8.7133   -1.7781   15.0215 H         1 RES1    0.0000
     20 H4         9.8514   -2.4309   13.0809 H         1 RES1    0.0000
     21 H5         5.8005    1.7781   17.3933 H         1 RES1    0.0000
     22 H6         4.7175    1.8794   19.4297 H         1 RES1    0.0000
     23 H7         4.9407    0.1632   20.9630 H         1 RES1    0.0000
     24 H8         6.3107   -1.6656   20.5318 H         1 RES1    0.0000
     25 H9         7.2187   -1.7950   18.3996 H         1 RES1    0.0000
     26 O3         0.0355   -0.2718   17.2338 O.2       2 RES2   -1.0000
     27 O4        -3.1404    1.5581   22.1413 O.2       2 RES2   -1.0000
     28 N4        -0.5604   -0.0957   18.3732 N.pl3     2 RES2    1.0000
     29 N5        -2.5450    0.4575   22.0201 N.pl3     2 RES2    1.0000
     30 N6        -2.4584   -0.4867   22.8598 N.2       2 RES2    0.0000
     31 C12       -1.2923    1.0117   18.6022 C.ar      2 RES2    0.0000
     32 C13       -1.9495    1.2064   19.7867 C.ar      2 RES2    0.0000
     33 C14       -1.8543    0.2380   20.7639 C.ar      2 RES2    0.0000
     34 C15       -1.1069   -0.8992   20.5332 C.ar      2 RES2    0.0000
     35 C16       -0.4557   -1.0365   19.3365 C.ar      2 RES2    0.0000
     36 C17       -3.1295   -0.4164   24.0991 C.ar      2 RES2    0.0000
     37 C18       -3.9761    0.5858   24.5744 C.ar      2 RES2    0.0000
     38 C19       -4.5760    0.4310   25.8114 C.ar      2 RES2    0.0000
     39 C20       -4.3501   -0.6837   26.5852 C.ar      2 RES2    0.0000
     40 C21       -3.5161   -1.6757   26.1156 C.ar      2 RES2    0.0000
     41 C22       -2.9093   -1.5553   24.8844 C.ar      2 RES2    0.0000
     42 H10       -1.3432    1.6206   17.9204 H         2 RES2    0.0000
     43 H11       -2.4562    1.9863   19.9568 H         2 RES2    0.0000
     44 H12       -0.9837   -1.5699   21.2266 H         2 RES2    0.0000
     45 H13        0.1380   -1.7613   19.1662 H         2 RES2    0.0000
     46 H14       -4.1002    1.4068   24.0775 H         2 RES2    0.0000
     47 H15       -5.1319    1.1479   26.1379 H         2 RES2    0.0000
     48 H16       -4.7619   -0.7653   27.4316 H         2 RES2    0.0000
     49 H17       -3.3877   -2.4703   26.6171 H         2 RES2    0.0000
     50 H18       -2.3386   -2.2227   24.5088 H         2 RES2    0.0000
@<TRIPOS>BOND
     1    1    3 1
     2    2    4 1
     3    3    6 ar
     4    4    5 2
     5    5   11 1
     6    6    7 ar
     7    7    8 ar
     8    8    4 1
     9    9    8 ar
    10   10    3 ar
    11   11   12 ar
    12   12   13 ar
    13   13   14 ar
    14   14   15 ar
    15   15   16 ar
    16   16   11 ar
    17   17    6 1
    18   18    7 1
    19   19    9 1
    20   20   10 1
    21   21   12 1
    22   22   13 1
    23   23   14 1
    24   24   15 1
    25   25   16 1
    26   26   28 1
    27   27   29 1
    28   28   31 ar
    29   29   30 2
    30   30   36 1
    31   31   32 ar
    32   32   33 ar
    33   33   29 1
    34   34   33 ar
    35   35   28 ar
    36   36   37 ar
    37   37   38 ar
    38   38   39 ar
    39   39   40 ar
    40   40   41 ar
    41   41   36 ar
    42   42   31 1
    43   43   32 1
    44   44   34 1
    45   45   35 1
    46   46   37 1
    47   47   38 1
    48   48   39 1
    49   49   40 1
    50   50   41 1
    51    9   10 ar
    52   34   35 ar
@<TRIPOS>SUBSTRUCTURE
     1 RES1 1
     2 RES2 26

@<TRIPOS>CRYSIN
  14.9840    5.6270   25.4840  90.0000 109.9300  90.0000  14 1

