# MOL2 file generated by ConQuest
# Please check atom types

@<TRIPOS>MOLECULE
COVJUU
    39    41     1
SMALL
NO_CHARGES
****
Generated from CSD

@<TRIPOS>ATOM
      1 O1        -0.2829    1.2899   11.7151 O.2       1 RES1    0.0000
      2 O2        -0.6174    4.0503   16.0205 O.3       1 RES1    0.0000
      3 O3        -0.1314    6.4636   15.3177 O.3       1 RES1    0.0000
      4 O4        -0.1747    1.7900    9.0004 O.3       1 RES1    0.0000
      5 O5         2.6699    5.6705    3.9222 O.2       1 RES1    0.0000
      6 O6         4.0846    6.4847    5.3074 O.2       1 RES1    0.0000
      7 N1         3.1502    5.7493    5.0366 N.pl3     1 RES1    0.0000
      8 C1        -0.2143    2.4647   11.4051 C.2       1 RES1    0.0000
      9 C2        -0.1523    3.5418   12.4004 C.ar      1 RES1    0.0000
     10 C3        -0.4053    3.2461   13.7382 C.ar      1 RES1    0.0000
     11 H1        -0.5970    2.3702   13.9867 H         1 RES1    0.0000
     12 C4        -0.3735    4.2290   14.6928 C.ar      1 RES1    0.0000
     13 C5        -0.0883    5.5503   14.3079 C.ar      1 RES1    0.0000
     14 C6         0.1910    5.8351   12.9938 C.ar      1 RES1    0.0000
     15 H2         0.4024    6.7060   12.7452 H         1 RES1    0.0000
     16 C7         0.1601    4.8400   12.0391 C.ar      1 RES1    0.0000
     17 H3         0.3493    5.0422   11.1521 H         1 RES1    0.0000
     18 C8        -0.8798    2.7196   16.4542 C.3       1 RES1    0.0000
     19 H4        -1.6820    2.3993   16.0357 H         1 RES1    0.0000
     20 H5        -0.9904    2.7104   17.4084 H         1 RES1    0.0000
     21 H6        -0.1445    2.1531   16.2115 H         1 RES1    0.0000
     22 C9         0.0103    7.8360   14.9591 C.3       1 RES1    0.0000
     23 H7         0.8926    7.9871   14.6102 H         1 RES1    0.0000
     24 H8        -0.1251    8.3855   15.7341 H         1 RES1    0.0000
     25 H9        -0.6397    8.0611   14.2897 H         1 RES1    0.0000
     26 C10       -0.1587    2.8528    9.9538 C.3       1 RES1    0.0000
     27 H10       -0.6111    3.6838    9.6996 H         1 RES1    0.0000
     28 C11        1.0431    2.4886    9.1904 C.3       1 RES1    0.0000
     29 H11        1.7235    2.0011    9.6996 H         1 RES1    0.0000
     30 C12        1.5713    3.3269    8.0876 C.ar      1 RES1    0.0000
     31 C13        2.8069    3.9226    8.2326 C.ar      1 RES1    0.0000
     32 H12        3.2950    3.7791    9.0112 H         1 RES1    0.0000
     33 C14        3.3276    4.7207    7.2490 C.ar      1 RES1    0.0000
     34 H13        4.1519    5.1354    7.3626 H         1 RES1    0.0000
     35 C15        2.6086    4.8975    6.0967 C.ar      1 RES1    0.0000
     36 C16        1.3886    4.3109    5.9131 C.ar      1 RES1    0.0000
     37 H14        0.9171    4.4383    5.1216 H         1 RES1    0.0000
     38 C17        0.8693    3.5309    6.9180 C.ar      1 RES1    0.0000
     39 H15        0.0348    3.1356    6.8081 H         1 RES1    0.0000
@<TRIPOS>BOND
     1    1    8 2
     2    2   12 1
     3    3   13 1
     4    4   26 1
     5    5    7 2
     6    6    7 2
     7    7   35 1
     8    8    9 1
     9    9   10 ar
    10   10   11 1
    11   12   10 ar
    12   13   12 ar
    13   14   13 ar
    14   15   14 1
    15   16    9 ar
    16   17   16 1
    17   18    2 1
    18   19   18 1
    19   20   18 1
    20   21   18 1
    21   22    3 1
    22   23   22 1
    23   24   22 1
    24   25   22 1
    25   26    8 1
    26   27   26 1
    27   28    4 1
    28   29   28 1
    29   30   28 1
    30   31   30 ar
    31   32   31 1
    32   33   31 ar
    33   34   33 1
    34   35   33 ar
    35   36   35 ar
    36   37   36 1
    37   38   30 ar
    38   39   38 1
    39   14   16 ar
    40   26   28 1
    41   36   38 ar
@<TRIPOS>SUBSTRUCTURE
     1 RES1 1

@<TRIPOS>CRYSIN
   6.9770    8.2590   13.9640 103.8890  91.1510 100.7800   2 1

