# MOL2 file generated by ConQuest
# Please check atom types

@<TRIPOS>MOLECULE
COVSIQ
    74    76     2
SMALL
NO_CHARGES
****
Generated from CSD

@<TRIPOS>ATOM
      1 N1        17.6267   -2.0952    6.4790 N.pl3     1 RES1    0.0000
      2 N2         9.5855    4.2926    7.3900 N.pl3     2 RES2    0.0000
      3 O1        17.6534   -2.6425    7.5825 O.2       1 RES1    0.0000
      4 O2        18.4315   -2.3621    5.5874 O.2       1 RES1    0.0000
      5 O3        13.6228    1.6293    5.5167 O.3       1 RES1    0.0000
      6 O4         8.5180    4.8627    7.1941 O.2       2 RES2    0.0000
      7 O5        10.6064    4.5207    6.7327 O.2       2 RES2    0.0000
      8 O6         9.7934    0.5613   11.5105 O.3       2 RES2    0.0000
      9 C1        15.5883   -0.8950    7.1397 C.ar      1 RES1    0.0000
     10 H1        15.5689   -1.4021    7.9426 H         1 RES1    0.0000
     11 C2        14.6082    0.0150    6.8841 C.ar      1 RES1    0.0000
     12 H2        13.8957    0.1322    7.5008 H         1 RES1    0.0000
     13 C3        14.6542    0.7769    5.7104 C.ar      1 RES1    0.0000
     14 C4        15.7119    0.6146    4.8023 C.ar      1 RES1    0.0000
     15 H3        15.7546    1.1450    4.0146 H         1 RES1    0.0000
     16 C5        16.6886   -0.3230    5.0663 C.ar      1 RES1    0.0000
     17 H4        17.4069   -0.4475    4.4564 H         1 RES1    0.0000
     18 C6        16.6214   -1.0801    6.2186 C.ar      1 RES1    0.0000
     19 C7        13.5675    2.3538    4.2995 C.3       1 RES1    0.0000
     20 H5        13.5370    1.7295    3.5312 H         1 RES1    0.0000
     21 H6        14.3679    2.9273    4.2069 H         1 RES1    0.0000
     22 C8        12.3123    3.2072    4.3317 C.3       1 RES1    0.0000
     23 H7        12.3329    3.7894    5.1322 H         1 RES1    0.0000
     24 C9         8.5851    3.1462    9.3171 C.ar      2 RES2    0.0000
     25 H8         7.8129    3.6906    9.2213 H         2 RES2    0.0000
     26 C10        8.6640    2.2294   10.3271 C.ar      2 RES2    0.0000
     27 H9         7.9430    2.1378   10.9384 H         2 RES2    0.0000
     28 C11        9.8009    1.4239   10.4661 C.ar      2 RES2    0.0000
     29 C12       10.8536    1.5387    9.5486 C.ar      2 RES2    0.0000
     30 H10       11.6136    0.9745    9.6233 H         2 RES2    0.0000
     31 C13       10.7846    2.4778    8.5301 C.ar      2 RES2    0.0000
     32 H11       11.4968    2.5791    7.9097 H         2 RES2    0.0000
     33 C14        9.6349    3.2721    8.4426 C.ar      2 RES2    0.0000
     34 C15       10.9966   -0.2117   11.7508 C.3       2 RES2    0.0000
     35 H12       11.7728    0.3884   11.8827 H         2 RES2    0.0000
     36 H13       11.1833   -0.8079   10.9834 H         2 RES2    0.0000
     37 C16       10.7395   -1.0200   12.9951 C.3       2 RES2    0.0000
     38 H14        9.9566   -1.6056   12.8339 H         2 RES2    0.0000
     39 N1A        6.9979   -2.0952    2.1844 N.pl3     1 RES1    0.0000
     40 N2A       11.8935    4.2926   18.6001 N.pl3     2 RES2    0.0000
     41 O1A        6.9712   -2.6425    1.0808 O.2       1 RES1    0.0000
     42 O2A        6.1932   -2.3621    3.0760 O.2       1 RES1    0.0000
     43 O3A       11.0019    1.6293    3.1467 O.3       1 RES1    0.0000
     44 O4A       12.9610    4.8627   18.7961 O.2       2 RES2    0.0000
     45 O5A       10.8726    4.5207   19.2575 O.2       2 RES2    0.0000
     46 O6A       11.6855    0.5613   14.4796 O.3       2 RES2    0.0000
     47 C1A        9.0364   -0.8950    1.5237 C.ar      1 RES1    0.0000
     48 H1A        9.0557   -1.4021    0.7208 H         1 RES1    0.0000
     49 C2A       10.0164    0.0150    1.7793 C.ar      1 RES1    0.0000
     50 H2A       10.7290    0.1322    1.1626 H         1 RES1    0.0000
     51 C3A        9.9705    0.7769    2.9530 C.ar      1 RES1    0.0000
     52 C4A        8.9128    0.6146    3.8611 C.ar      1 RES1    0.0000
     53 H3A        8.8700    1.1450    4.6488 H         1 RES1    0.0000
     54 C5A        7.9361   -0.3230    3.5970 C.ar      1 RES1    0.0000
     55 H4A        7.2177   -0.4475    4.2069 H         1 RES1    0.0000
     56 C6A        8.0033   -1.0801    2.4448 C.ar      1 RES1    0.0000
     57 C7A       11.0572    2.3538    4.3639 C.3       1 RES1    0.0000
     58 H5A       11.0877    1.7295    5.1322 H         1 RES1    0.0000
     59 H6A       10.2568    2.9273    4.4564 H         1 RES1    0.0000
     60 H7A       12.2917    3.7894    3.5312 H         1 RES1    0.0000
     61 C9A       12.8939    3.1462   16.6730 C.ar      2 RES2    0.0000
     62 H8A       13.6661    3.6906   16.7688 H         2 RES2    0.0000
     63 C10A      12.8150    2.2294   15.6630 C.ar      2 RES2    0.0000
     64 H9A       13.5360    2.1378   15.0518 H         2 RES2    0.0000
     65 C11A      11.6781    1.4239   15.5241 C.ar      2 RES2    0.0000
     66 C12A      10.6253    1.5387   16.4415 C.ar      2 RES2    0.0000
     67 H10A       9.8654    0.9745   16.3669 H         2 RES2    0.0000
     68 C13A      10.6944    2.4778   17.4600 C.ar      2 RES2    0.0000
     69 H11A       9.9821    2.5791   18.0805 H         2 RES2    0.0000
     70 C14A      11.8441    3.2721   17.5475 C.ar      2 RES2    0.0000
     71 C15A      10.4823   -0.2117   14.2393 C.3       2 RES2    0.0000
     72 H12A       9.7062    0.3884   14.1075 H         2 RES2    0.0000
     73 H13A      10.2957   -0.8079   15.0067 H         2 RES2    0.0000
     74 H14A      11.5224   -1.6056   13.1562 H         2 RES2    0.0000
@<TRIPOS>BOND
     1    1    3 2
     2    2    6 2
     3    4    1 2
     4    5   13 1
     5    7    2 2
     6    8   28 1
     7    9   10 1
     8   11    9 ar
     9   12   11 1
    10   13   11 ar
    11   14   13 ar
    12   15   14 1
    13   16   14 ar
    14   17   16 1
    15   18    1 1
    16   19    5 1
    17   20   19 1
    18   21   19 1
    19   22   19 1
    20   23   22 1
    21   24   25 1
    22   26   24 ar
    23   27   26 1
    24   28   26 ar
    25   29   28 ar
    26   30   29 1
    27   31   29 ar
    28   32   31 1
    29   33    2 1
    30   34    8 1
    31   35   34 1
    32   36   34 1
    33   37   34 1
    34   38   37 1
    35   39   41 2
    36   40   44 2
    37   42   39 2
    38   43   51 1
    39   45   40 2
    40   46   65 1
    41   47   48 1
    42   49   47 ar
    43   50   49 1
    44   51   49 ar
    45   52   51 ar
    46   53   52 1
    47   54   52 ar
    48   55   54 1
    49   56   39 1
    50   57   22 1
    51   58   57 1
    52   59   57 1
    53   60   22 1
    54   61   62 1
    55   63   61 ar
    56   64   63 1
    57   65   63 ar
    58   66   65 ar
    59   67   66 1
    60   68   66 ar
    61   69   68 1
    62   70   40 1
    63   71   37 1
    64   72   71 1
    65   73   71 1
    66   74   37 1
    67    9   18 ar
    68   16   18 ar
    69   24   33 ar
    70   31   33 ar
    71   43   57 1
    72   46   71 1
    73   47   56 ar
    74   54   56 ar
    75   61   70 ar
    76   68   70 ar
@<TRIPOS>SUBSTRUCTURE
     1 RES1 1
     2 RES2 2

