# MOL2 file generated by ConQuest
# Please check atom types

@<TRIPOS>MOLECULE
COVWIT
    54    57     1
SMALL
NO_CHARGES
****
Generated from CSD

@<TRIPOS>ATOM
      1 C1         1.6510    7.1696   15.2490 C.2       1 RES1    0.0000
      2 C2         2.1461    8.3961   15.3940 C.2       1 RES1    0.0000
      3 C3         3.4840    8.5922   14.7533 C.3       1 RES1    0.0000
      4 C4         3.9011    7.1347   14.5521 C.3       1 RES1    0.0000
      5 C5         2.5796    6.2867   14.3965 C.3       1 RES1    0.0000
      6 C6        -0.3598    5.7368   15.0278 C.3       1 RES1    0.0000
      7 C7        -1.3475    5.0713   15.9313 C.3       1 RES1    0.0000
      8 C8        -1.3223    6.8599   17.4129 C.3       1 RES1    0.0000
      9 C9        -0.3278    7.5950   16.5523 C.3       1 RES1    0.0000
     10 C10        3.0617    4.8061   16.3059 C.3       1 RES1    0.0000
     11 C11        2.6334    3.4623   16.8600 C.3       1 RES1    0.0000
     12 C12        2.7348    2.5260   14.7420 C.3       1 RES1    0.0000
     13 C13        3.1762    3.8356   14.1442 C.3       1 RES1    0.0000
     14 C14        4.4924    9.4016   15.5400 C.ar      1 RES1    0.0000
     15 C15        4.4552    9.4844   16.9128 C.ar      1 RES1    0.0000
     16 C16        5.4064   10.2027   17.6193 C.ar      1 RES1    0.0000
     17 C17        6.4174   10.8346   16.9520 C.ar      1 RES1    0.0000
     18 C18        6.4677   10.7758   15.5898 C.ar      1 RES1    0.0000
     19 C19        5.5139   10.0735   14.8838 C.ar      1 RES1    0.0000
     20 C20        2.1235    6.3102   12.9307 C.3       1 RES1    0.0000
     21 N1         0.4838    6.6497   15.8031 N.3       1 RES1    0.0000
     22 N2         2.6143    4.9255   14.9260 N.3       1 RES1    0.0000
     23 N3         4.8454    6.9314   13.4030 N.pl3     1 RES1    0.0000
     24 O1        -2.1547    6.0091   16.6317 O.3       1 RES1    0.0000
     25 O2         3.1571    2.3969   16.0887 O.3       1 RES1    0.0000
     26 O3         5.0049    7.8067   12.5857 O.2       1 RES1    0.0000
     27 O4         5.4029    5.8569   13.3297 O.2       1 RES1    0.0000
     28 H1         1.7082    9.0950   15.7898 H         1 RES1    0.0000
     29 H2         3.3730    8.9955   13.8565 H         1 RES1    0.0000
     30 H3         4.4135    6.8484   15.3163 H         1 RES1    0.0000
     31 H4        -0.8758    6.2929   14.3151 H         1 RES1    0.0000
     32 H5         0.2428    5.0692   14.5987 H         1 RES1    0.0000
     33 H6        -0.8411    4.5193   16.5962 H         1 RES1    0.0000
     34 H7        -1.9423    4.5081   15.4174 H         1 RES1    0.0000
     35 H8        -0.7804    6.3023   18.0536 H         1 RES1    0.0000
     36 H9        -1.9423    7.5072   17.8612 H         1 RES1    0.0000
     37 H10        0.2254    8.1416   17.0894 H         1 RES1    0.0000
     38 H11       -0.8237    8.2861   15.8909 H         1 RES1    0.0000
     39 H12        2.6880    5.4934   16.8354 H         1 RES1    0.0000
     40 H13        4.0580    4.8553   16.3570 H         1 RES1    0.0000
     41 H14        1.5608    3.4533   16.8650 H         1 RES1    0.0000
     42 H15        2.9221    3.3839   17.8070 H         1 RES1    0.0000
     43 H16        1.7429    2.4886   14.7220 H         1 RES1    0.0000
     44 H17        3.1476    1.7267   14.1894 H         1 RES1    0.0000
     45 H18        2.8788    3.8643   13.2227 H         1 RES1    0.0000
     46 H19        4.1794    3.8793   14.1425 H         1 RES1    0.0000
     47 H20        3.7979    9.0781   17.3754 H         1 RES1    0.0000
     48 H21        5.2893   10.2905   18.5567 H         1 RES1    0.0000
     49 H22        7.0235   11.3134   17.4322 H         1 RES1    0.0000
     50 H23        7.1536   11.1407   15.1116 H         1 RES1    0.0000
     51 H24        5.5494    9.9301   13.8860 H         1 RES1    0.0000
     52 H25        1.2920    5.8181   12.8503 H         1 RES1    0.0000
     53 H26        1.9596    7.2332   12.6358 H         1 RES1    0.0000
     54 H27        2.7487    5.8256   12.3571 H         1 RES1    0.0000
@<TRIPOS>BOND
     1    1    2 2
     2    2    3 1
     3    3    4 1
     4    4    5 1
     5    5    1 1
     6    6    7 1
     7    7   24 1
     8    8    9 1
     9    9   21 1
    10   10   11 1
    11   11   25 1
    12   12   13 1
    13   13   22 1
    14   14    3 1
    15   15   14 ar
    16   16   15 ar
    17   17   16 ar
    18   18   17 ar
    19   19   14 ar
    20   20    5 1
    21   21    1 1
    22   22    5 1
    23   23    4 1
    24   24    8 1
    25   25   12 1
    26   26   23 2
    27   27   23 2
    28   28    2 1
    29   29    3 1
    30   30    4 1
    31   31    6 1
    32   32    6 1
    33   33    7 1
    34   34    7 1
    35   35    8 1
    36   36    8 1
    37   37    9 1
    38   38    9 1
    39   39   10 1
    40   40   10 1
    41   41   11 1
    42   42   11 1
    43   43   12 1
    44   44   12 1
    45   45   13 1
    46   46   13 1
    47   47   15 1
    48   48   16 1
    49   49   17 1
    50   50   18 1
    51   51   19 1
    52   52   20 1
    53   53   20 1
    54   54   20 1
    55    6   21 1
    56   10   22 1
    57   18   19 ar
@<TRIPOS>SUBSTRUCTURE
     1 RES1 1

@<TRIPOS>CRYSIN
   8.6710   18.7680   24.6600  90.0000  90.0000  90.0000  61 1

