# MOL2 file generated by ConQuest
# Please check atom types

@<TRIPOS>MOLECULE
COWBEV
    62    62     2
SMALL
USER_CHARGES
****
Generated from CSD

@<TRIPOS>ATOM
      1 C1         8.8570   -1.2888    4.6294 C.3       1 RES1    0.0000
      2 N1         8.1060   -0.0367    4.6980 N.3       1 RES1    0.0000
      3 N2         8.2936    0.9194    3.7512 N.pl3     1 RES1    0.0000
      4 O1         9.1967    0.7347    2.9464 O.2       1 RES1    0.0000
      5 O2         7.5705    1.8968    3.7450 O.2       1 RES1    0.0000
      6 C2         6.9616    0.1137    5.5793 C.3       1 RES1    0.0000
      7 N3         7.3282    0.6453    6.8770 N.3       1 RES1    0.0000
      8 N4         6.7843    1.8453    7.2857 N.pl3     1 RES1    0.0000
      9 O3         6.2457    2.5314    6.4293 O.2       1 RES1    0.0000
     10 O4         6.8928    2.1685    8.4524 O.2       1 RES1    0.0000
     11 C3         7.9193   -0.2398    7.8784 C.3       1 RES1    0.0000
     12 N5         9.3078   -0.4943    7.6647 N.3       1 RES1    0.0000
     13 N6        10.2062    0.3475    8.2574 N.pl3     1 RES1    0.0000
     14 O5         9.7631    1.3468    8.8095 O.2       1 RES1    0.0000
     15 O6        11.3806    0.0255    8.2028 O.2       1 RES1    0.0000
     16 C4         9.8065   -1.6244    6.8739 C.3       1 RES1    0.0000
     17 N7        10.0196   -1.3758    5.4717 N.3       1 RES1    0.0000
     18 C5        11.1768   -0.6435    5.0973 C.3       1 RES1    0.0000
     19 N8        10.9864    0.8365    5.3453 N.2       1 RES1   -1.0000
     20 N9        11.7237    1.5291    4.6965 N.1       1 RES1    1.0000
     21 N10       12.3133    2.2537    4.1131 N.1       1 RES1    0.0000
     22 C6         9.3915    0.0799   13.8897 C.3       2 RES2    0.0000
     23 N11        9.5957    1.2799   14.7039 N.3       2 RES2    0.0000
     24 N12       10.4765    2.2247   14.2687 N.pl3     2 RES2    0.0000
     25 O7        11.0771    2.0164   13.2206 O.2       2 RES2    0.0000
     26 O8        10.6163    3.2211   14.9628 O.2       2 RES2    0.0000
     27 C7         8.9560    1.4628   15.9720 C.3       2 RES2    0.0000
     28 N13        7.6614    2.0992   15.8722 N.3       2 RES2    0.0000
     29 N14        7.4843    3.3205   16.5070 N.pl3     2 RES2    0.0000
     30 O9         8.4582    3.8930   16.9156 O.2       2 RES2    0.0000
     31 O10        6.3517    3.7533   16.5834 O.2       2 RES2    0.0000
     32 C8         6.4952    1.2858   15.5898 C.3       2 RES2    0.0000
     33 N15        6.3292    0.9952   14.1736 N.3       2 RES2    0.0000
     34 N16        5.6435    1.9139   13.4233 N.pl3     2 RES2    0.0000
     35 O11        5.2722    2.9411   13.9599 O.2       2 RES2    0.0000
     36 O12        5.4451    1.6168   12.2582 O.2       2 RES2    0.0000
     37 C9         6.9579   -0.1326   13.5091 C.3       2 RES2    0.0000
     38 N17        8.2873    0.1119   12.9788 N.3       2 RES2    0.0000
     39 C10        8.4317    0.9212   11.8168 C.3       2 RES2    0.0000
     40 N18        8.3059    2.3899   12.1708 N.2       2 RES2   -1.0000
     41 N19        8.4575    3.1246   11.2662 N.1       2 RES2    1.0000
     42 N20        8.5638    3.8989   10.4988 N.1       2 RES2    0.0000
     43 H1         8.2584   -1.9974    4.8789 H         1 RES1    0.0000
     44 H2         9.1393   -1.4101    3.7185 H         1 RES1    0.0000
     45 H3         6.3374    0.7430    5.2159 H         1 RES1    0.0000
     46 H4         6.5220   -0.7282    5.7212 H         1 RES1    0.0000
     47 H5         7.7652    0.1397    8.7472 H         1 RES1    0.0000
     48 H6         7.4142   -1.0514    7.7941 H         1 RES1    0.0000
     49 H7         9.1727   -2.3402    6.9519 H         1 RES1    0.0000
     50 H8        10.6439   -1.8980    7.2482 H         1 RES1    0.0000
     51 H9        11.9279   -0.9543    5.6027 H         1 RES1    0.0000
     52 H10       11.3476   -0.7844    4.1615 H         1 RES1    0.0000
     53 H11        9.2559   -0.6565   14.4918 H         2 RES2    0.0000
     54 H12       10.1941   -0.0657   13.3765 H         2 RES2    0.0000
     55 H13        8.8441    0.6050   16.3869 H         2 RES2    0.0000
     56 H14        9.5207    2.0122   16.5163 H         2 RES2    0.0000
     57 H15        6.5921    0.4529   16.0547 H         2 RES2    0.0000
     58 H16        5.7129    1.7405   15.9127 H         2 RES2    0.0000
     59 H17        6.3952   -0.4008   12.7854 H         2 RES2    0.0000
     60 H18        7.0197   -0.8483   14.1455 H         2 RES2    0.0000
     61 H19        9.2927    0.7607   11.4190 H         2 RES2    0.0000
     62 H20        7.7463    0.6956   11.1897 H         2 RES2    0.0000
@<TRIPOS>BOND
     1    1    2 1
     2    2    3 1
     3    3    4 2
     4    5    3 2
     5    6    2 1
     6    7    6 1
     7    8    7 1
     8    9    8 2
     9   10    8 2
    10   11    7 1
    11   12   11 1
    12   13   12 1
    13   14   13 2
    14   15   13 2
    15   16   12 1
    16   17    1 1
    17   18   17 1
    18   19   18 1
    19   20   19 1
    20   21   20 3
    21   22   23 1
    22   23   24 1
    23   24   25 2
    24   26   24 2
    25   27   23 1
    26   28   27 1
    27   29   28 1
    28   30   29 2
    29   31   29 2
    30   32   28 1
    31   33   32 1
    32   34   33 1
    33   35   34 2
    34   36   34 2
    35   37   33 1
    36   38   22 1
    37   39   38 1
    38   40   39 1
    39   41   40 1
    40   42   41 3
    41   43    1 1
    42   44    1 1
    43   45    6 1
    44   46    6 1
    45   47   11 1
    46   48   11 1
    47   49   16 1
    48   50   16 1
    49   51   18 1
    50   52   18 1
    51   53   22 1
    52   54   22 1
    53   55   27 1
    54   56   27 1
    55   57   32 1
    56   58   32 1
    57   59   37 1
    58   60   37 1
    59   61   39 1
    60   62   39 1
    61   16   17 1
    62   37   38 1
@<TRIPOS>SUBSTRUCTURE
     1 RES1 1
     2 RES2 22

@<TRIPOS>CRYSIN
  12.9940    5.9200   15.6970  90.0000  96.4500  90.0000   4 1

