# MOL2 file generated by ConQuest
# Please check atom types

@<TRIPOS>MOLECULE
COWBIB
    44    46     1
SMALL
NO_CHARGES
****
Generated from CSD

@<TRIPOS>ATOM
      1 O1         4.5840    5.0625    5.9834 O.3       1 RES1    0.0000
      2 O2         2.5780    6.0953    4.6215 O.2       1 RES1    0.0000
      3 O3        -0.4543    2.4899   -0.4780 O.3       1 RES1    0.0000
      4 N1         4.1563    4.4687    4.7856 N.am      1 RES1    0.0000
      5 O4         1.2869    1.1008   -0.6024 O.2       1 RES1    0.0000
      6 C1         4.7328    3.2341    4.4570 C.2       1 RES1    0.0000
      7 C2         3.0623    3.0361    2.7137 C.ar      1 RES1    0.0000
      8 C3         3.0480    5.0434    4.2022 C.2       1 RES1    0.0000
      9 C4         4.1981    2.5110    3.4412 C.2       1 RES1    0.0000
     10 C5         2.5150    4.2851    3.0722 C.ar      1 RES1    0.0000
     11 C6         2.4411    2.3451    1.6484 C.ar      1 RES1    0.0000
     12 H1         2.7901    1.5288    1.3719 H         1 RES1    0.0000
     13 C7         1.3309    2.8513    1.0082 C.ar      1 RES1    0.0000
     14 C8         4.6791    1.1099    3.1758 C.3       1 RES1    0.0000
     15 H2         5.6171    1.0442    3.4135 H         1 RES1    0.0000
     16 H3         4.5983    0.9193    2.2279 H         1 RES1    0.0000
     17 C9         0.7477    2.0465   -0.0983 C.2       1 RES1    0.0000
     18 C10        5.9177    2.8118    5.2837 C.3       1 RES1    0.0000
     19 H4         6.3759    3.6074    5.5971 H         1 RES1    0.0000
     20 H5         6.5342    2.3245    4.7145 H         1 RES1    0.0000
     21 C11        5.2909    6.2945    5.7355 C.3       1 RES1    0.0000
     22 H6         6.0549    6.1186    5.1817 H         1 RES1    0.0000
     23 H7         5.5799    6.6704    6.5698 H         1 RES1    0.0000
     24 H8         4.7083    6.9130    5.2896 H         1 RES1    0.0000
     25 C12        5.5772    1.9392    6.4913 C.3       1 RES1    0.0000
     26 H9         4.8688    2.3766    6.9897 H         1 RES1    0.0000
     27 H10        6.3561    1.9039    7.0681 H         1 RES1    0.0000
     28 C13        1.3972    4.7968    2.4010 C.ar      1 RES1    0.0000
     29 H11        1.0565    5.6276    2.6433 H         1 RES1    0.0000
     30 C14        3.8844    0.0674    3.9688 C.3       1 RES1    0.0000
     31 H12        2.9812    0.0331    3.6161 H         1 RES1    0.0000
     32 H13        4.2871   -0.8035    3.8245 H         1 RES1    0.0000
     33 C15        5.1368    0.5039    6.1992 C.3       1 RES1    0.0000
     34 H14        5.8296    0.0775    5.6710 H         1 RES1    0.0000
     35 H15        5.0843    0.0269    7.0429 H         1 RES1    0.0000
     36 C16        3.8096    0.3256    5.4716 C.3       1 RES1    0.0000
     37 H16        3.2768    1.1237    5.6148 H         1 RES1    0.0000
     38 H17        3.3365   -0.4150    5.8824 H         1 RES1    0.0000
     39 C17        0.8004    4.0896    1.3925 C.ar      1 RES1    0.0000
     40 H18        0.0470    4.4293    0.9654 H         1 RES1    0.0000
     41 C18       -1.1000    1.7536   -1.5427 C.3       1 RES1    0.0000
     42 H19       -0.6397    1.9161   -2.3698 H         1 RES1    0.0000
     43 H20       -2.0125    2.0419   -1.6232 H         1 RES1    0.0000
     44 H21       -1.0774    0.8150   -1.3424 H         1 RES1    0.0000
@<TRIPOS>BOND
     1    1    4 1
     2    2    8 2
     3    3   17 1
     4    4    6 1
     5    5   17 2
     6    6    9 2
     7    7    9 1
     8    8    4 1
     9    9   14 1
    10   10    7 ar
    11   11    7 ar
    12   12   11 1
    13   13   11 ar
    14   14   15 1
    15   16   14 1
    16   17   13 1
    17   18    6 1
    18   19   18 1
    19   20   18 1
    20   21    1 1
    21   22   21 1
    22   23   21 1
    23   24   21 1
    24   25   18 1
    25   26   25 1
    26   27   25 1
    27   28   10 ar
    28   29   28 1
    29   30   14 1
    30   31   30 1
    31   32   30 1
    32   33   25 1
    33   34   33 1
    34   35   33 1
    35   36   30 1
    36   37   36 1
    37   38   36 1
    38   39   13 ar
    39   40   39 1
    40   41    3 1
    41   42   41 1
    42   43   41 1
    43   44   41 1
    44    8   10 1
    45   28   39 ar
    46   33   36 1
@<TRIPOS>SUBSTRUCTURE
     1 RES1 1

@<TRIPOS>CRYSIN
   5.7842    9.5660   15.1110  98.4050  95.9630 104.9650   2 1

