# MOL2 file generated by ConQuest
# Please check atom types

@<TRIPOS>MOLECULE
COWGIF
    33    34     1
SMALL
USER_CHARGES
****
Generated from CSD

@<TRIPOS>ATOM
      1 N1        10.7157    1.2485    4.0064 N.3       1 RES1    0.0000
      2 O1         9.1891    5.0635    1.1563 O.2       1 RES1   -1.0000
      3 C1        10.8071   -2.0357    6.6924 C.ar      1 RES1    0.0000
      4 H1        10.8380   -2.7405    7.2984 H         1 RES1    0.0000
      5 O2        11.0784    6.5230    1.0354 O.3       1 RES1    0.0000
      6 N2        10.0848    3.7334    2.8199 N.3       1 RES1    0.0000
      7 C2         9.6816   -1.7884    5.9862 C.ar      1 RES1    0.0000
      8 H2         8.9306   -2.3261    6.1046 H         1 RES1    0.0000
      9 N3        10.2008    4.8094    1.8949 N.pl3     1 RES1    1.0000
     10 C3         9.6465   -0.7502    5.1007 C.ar      1 RES1    0.0000
     11 H3         8.8615   -0.6118    4.6208 H         1 RES1    0.0000
     12 N4        11.2486    5.5119    1.9051 N.2       1 RES1    0.0000
     13 C4        10.7050    0.1104    4.8698 C.ar      1 RES1    0.0000
     14 C5        11.8656   -0.2011    5.6018 C.ar      1 RES1    0.0000
     15 H4        12.6241    0.3168    5.4579 H         1 RES1    0.0000
     16 C6        11.9443   -1.2008    6.4948 C.ar      1 RES1    0.0000
     17 H5        12.7273   -1.3460    6.9750 H         1 RES1    0.0000
     18 C7         9.5157    1.4307    3.1539 C.3       1 RES1    0.0000
     19 H6         8.7572    1.6810    3.7051 H         1 RES1    0.0000
     20 H7         9.3019    0.5966    2.7078 H         1 RES1    0.0000
     21 C8         9.7784    2.5234    2.1100 C.3       1 RES1    0.0000
     22 H8        10.5220    2.2709    1.5413 H         1 RES1    0.0000
     23 H9         8.9944    2.6505    1.5534 H         1 RES1    0.0000
     24 C9        11.3135    3.5330    3.5990 C.3       1 RES1    0.0000
     25 H10       11.5688    4.3587    4.0375 H         1 RES1    0.0000
     26 H11       12.0380    3.2600    3.0130 H         1 RES1    0.0000
     27 C10       11.0433    2.4516    4.6350 C.3       1 RES1    0.0000
     28 H12       11.8305    2.3253    5.1889 H         1 RES1    0.0000
     29 H13       10.3125    2.7276    5.2101 H         1 RES1    0.0000
     30 C11       12.3167    7.3525    1.0650 C.3       1 RES1    0.0000
     31 H14       12.2103    8.1072    0.4805 H         1 RES1    0.0000
     32 H15       13.0624    6.8239    0.7737 H         1 RES1    0.0000
     33 H16       12.4741    7.6603    1.9613 H         1 RES1    0.0000
@<TRIPOS>BOND
     1    1   13 1
     2    2    9 1
     3    3    4 1
     4    5   12 1
     5    6    9 1
     6    7    3 ar
     7    8    7 1
     8    9   12 2
     9   10    7 ar
    10   11   10 1
    11   13   10 ar
    12   14   13 ar
    13   15   14 1
    14   16    3 ar
    15   17   16 1
    16   18    1 1
    17   19   18 1
    18   20   18 1
    19   21    6 1
    20   22   21 1
    21   23   21 1
    22   24    6 1
    23   25   24 1
    24   26   24 1
    25   27    1 1
    26   28   27 1
    27   29   27 1
    28   30    5 1
    29   31   30 1
    30   32   30 1
    31   33   30 1
    32   14   16 ar
    33   18   21 1
    34   24   27 1
@<TRIPOS>SUBSTRUCTURE
     1 RES1 1

@<TRIPOS>CRYSIN
  10.6380    7.5620   30.2210  90.0000  90.0000  90.0000  61 1

