# MOL2 file generated by ConQuest
# Please check atom types

@<TRIPOS>MOLECULE
COWGEB
    46    46     2
SMALL
USER_CHARGES
****
Generated from CSD

@<TRIPOS>ATOM
      1 O1         7.2888   19.9355    6.5371 O.3       1 RES1    0.0000
      2 O2         5.8597   13.8750    6.8900 O.2       1 RES1   -1.0000
      3 O3         7.8399   12.4197    6.8782 O.3       1 RES1    0.0000
      4 N1         7.0080   14.3838    6.8155 N.pl3     1 RES1    1.0000
      5 N2         8.1079   13.7610    6.8058 N.2       1 RES1    0.0000
      6 C1         8.5273   20.6117    6.7800 C.3       1 RES1    0.0000
      7 H1         8.3990   21.5581    6.6846 H         1 RES1    0.0000
      8 H2         9.1835   20.3108    6.1480 H         1 RES1    0.0000
      9 H3         8.8276   20.4162    7.6703 H         1 RES1    0.0000
     10 C2         7.2899   18.5804    6.6262 C.ar      1 RES1    0.0000
     11 C3         6.1266   17.9413    6.2565 C.ar      1 RES1    0.0000
     12 H4         5.3999   18.4398    5.9600 H         1 RES1    0.0000
     13 C4         6.0330   16.5534    6.3241 C.ar      1 RES1    0.0000
     14 H5         5.2462   16.1230    6.0797 H         1 RES1    0.0000
     15 C5         7.1224   15.8288    6.7577 C.ar      1 RES1    0.0000
     16 C6         8.2835   16.4546    7.1629 C.ar      1 RES1    0.0000
     17 H6         8.9882   15.9561    7.5081 H         1 RES1    0.0000
     18 C7         8.3933   17.8381    7.0508 C.ar      1 RES1    0.0000
     19 H7         9.1939   18.2641    7.2568 H         1 RES1    0.0000
     20 C8         9.0945   11.7222    6.8141 C.3       1 RES1    0.0000
     21 H8         8.9386   10.7780    6.8698 H         1 RES1    0.0000
     22 H9         9.6514   11.9989    7.5464 H         1 RES1    0.0000
     23 H10        9.5324   11.9265    5.9844 H         1 RES1    0.0000
     24 O4         7.1709    2.0726    6.7271 O.3       2 RES2    0.0000
     25 O5         8.6220    8.1617    6.8392 O.2       2 RES2   -1.0000
     26 O6         6.6164    9.5774    6.9102 O.3       2 RES2    0.0000
     27 N3         7.4736    7.6267    6.8246 N.pl3     2 RES2    1.0000
     28 N4         6.3715    8.2306    6.8844 N.2       2 RES2    0.0000
     29 C9         5.9359    1.4230    6.5155 C.3       2 RES2    0.0000
     30 H11        6.0630    0.4721    6.5614 H         2 RES2    0.0000
     31 H12        5.5951    1.6580    5.6495 H         2 RES2    0.0000
     32 H13        5.3109    1.6953    7.1907 H         2 RES2    0.0000
     33 C10        7.2045    3.4455    6.7076 C.ar      2 RES2    0.0000
     34 C11        8.3609    4.0384    7.0884 C.ar      2 RES2    0.0000
     35 H14        9.0911    3.5136    7.3230 H         2 RES2    0.0000
     36 C12        8.4683    5.4175    7.1336 C.ar      2 RES2    0.0000
     37 H15        9.2563    5.8282    7.4086 H         2 RES2    0.0000
     38 C13        7.3801    6.1598    6.7605 C.ar      2 RES2    0.0000
     39 C14        6.2120    5.5954    6.3331 C.ar      2 RES2    0.0000
     40 H16        5.4969    6.1290    6.0700 H         2 RES2    0.0000
     41 C15        6.1081    4.2053    6.2969 C.ar      2 RES2    0.0000
     42 H17        5.3259    3.7947    6.0060 H         2 RES2    0.0000
     43 C16        5.3444   10.2531    6.9304 C.3       2 RES2    0.0000
     44 H18        5.4854   11.2018    6.9387 H         2 RES2    0.0000
     45 H19        4.8569    9.9940    7.7163 H         2 RES2    0.0000
     46 H20        4.8407   10.0116    6.1493 H         2 RES2    0.0000
@<TRIPOS>BOND
     1    1    6 1
     2    2    4 1
     3    3    5 1
     4    4    5 2
     5    6    7 1
     6    8    6 1
     7    9    6 1
     8   10    1 1
     9   11   10 ar
    10   12   11 1
    11   13   11 ar
    12   14   13 1
    13   15    4 1
    14   16   15 ar
    15   17   16 1
    16   18   10 ar
    17   19   18 1
    18   20    3 1
    19   21   20 1
    20   22   20 1
    21   23   20 1
    22   24   29 1
    23   25   27 1
    24   26   28 1
    25   27   28 2
    26   29   30 1
    27   31   29 1
    28   32   29 1
    29   33   24 1
    30   34   33 ar
    31   35   34 1
    32   36   34 ar
    33   37   36 1
    34   38   27 1
    35   39   38 ar
    36   40   39 1
    37   41   33 ar
    38   42   41 1
    39   43   26 1
    40   44   43 1
    41   45   43 1
    42   46   43 1
    43   13   15 ar
    44   16   18 ar
    45   36   38 ar
    46   39   41 ar
@<TRIPOS>SUBSTRUCTURE
     1 RES1 1
     2 RES2 24

@<TRIPOS>CRYSIN
  11.5530   21.9600    6.9610  90.0000  90.0000  90.0000  33 1

