# MOL2 file generated by ConQuest
# Please check atom types

@<TRIPOS>MOLECULE
COWHON
   108   114     2
SMALL
NO_CHARGES
****
Generated from CSD

@<TRIPOS>ATOM
      1 O1        -1.0558   13.0470   74.3992 O.2       1 RES1    0.0000
      2 O2         0.0417   11.8709   75.8223 O.2       1 RES1    0.0000
      3 O3         3.0373   10.6172   69.4752 O.3       1 RES1    0.0000
      4 O4         3.2533    8.6605   70.5728 O.2       1 RES1    0.0000
      5 O5         7.3913    9.4969   69.5398 O.3       1 RES1    0.0000
      6 O6         9.4560   10.8068   68.3576 O.3       1 RES1    0.0000
      7 O7         7.9018   12.2541   67.6266 O.2       1 RES1    0.0000
      8 N1        -0.2278   12.1878   74.6685 N.pl3     1 RES1    0.0000
      9 N2         6.1130    9.1883   69.0005 N.2       1 RES1    0.0000
     10 C1         1.9498   10.4001   71.5549 C.ar      1 RES1    0.0000
     11 C2         1.2063   11.5641   71.3046 C.ar      1 RES1    0.0000
     12 H1         1.2165   11.9595   70.4442 H         1 RES1    0.0000
     13 C3         0.4628   12.1297   72.3177 C.ar      1 RES1    0.0000
     14 H2        -0.0620   12.9064   72.1616 H         1 RES1    0.0000
     15 C4         0.4974   11.5416   73.5742 C.ar      1 RES1    0.0000
     16 C5         1.2053   10.3879   73.8357 C.ar      1 RES1    0.0000
     17 H3         1.2033   10.0026   74.7073 H         1 RES1    0.0000
     18 C6         1.9173    9.8039   72.8036 C.ar      1 RES1    0.0000
     19 H4         2.3852    8.9916   72.9555 H         1 RES1    0.0000
     20 C7         2.7981    9.7702   70.5098 C.2       1 RES1    0.0000
     21 C8         3.9770   10.1443   68.4741 C.3       1 RES1    0.0000
     22 H5         3.7695    9.1903   68.2523 H         1 RES1    0.0000
     23 C9         3.7603   10.9923   67.2443 C.ar      1 RES1    0.0000
     24 C10        3.6708   10.3675   65.9974 C.ar      1 RES1    0.0000
     25 H6         3.7624    9.4247   65.9309 H         1 RES1    0.0000
     26 C11        3.4501   11.1248   64.8591 C.ar      1 RES1    0.0000
     27 H7         3.3931   10.6957   64.0151 H         1 RES1    0.0000
     28 C12        3.3118   12.4967   64.9394 C.ar      1 RES1    0.0000
     29 H8         3.1602   13.0103   64.1532 H         1 RES1    0.0000
     30 C13        3.3952   13.1143   66.1777 C.ar      1 RES1    0.0000
     31 H9         3.3077   14.0581   66.2329 H         1 RES1    0.0000
     32 C14        3.6037   12.3764   67.3255 C.ar      1 RES1    0.0000
     33 H10        3.6413   12.8106   68.1660 H         1 RES1    0.0000
     34 C15        5.3857   10.2330   69.0272 C.2       1 RES1    0.0000
     35 C16        6.0499   11.4509   69.6451 C.3       1 RES1    0.0000
     36 H11        5.9472   12.2439   69.0462 H         1 RES1    0.0000
     37 C17        5.4844   11.7577   71.0267 C.ar      1 RES1    0.0000
     38 C18        4.6880   12.8768   71.2390 C.ar      1 RES1    0.0000
     39 H12        4.5110   13.4720   70.5219 H         1 RES1    0.0000
     40 C19        4.1519   13.1306   72.4903 C.ar      1 RES1    0.0000
     41 H13        3.6098   13.8991   72.6189 H         1 RES1    0.0000
     42 C20        4.3991   12.2796   73.5406 C.ar      1 RES1    0.0000
     43 H14        4.0268   12.4589   74.3966 H         1 RES1    0.0000
     44 C21        5.1935   11.1574   73.3481 C.ar      1 RES1    0.0000
     45 H15        5.3684   10.5693   74.0773 H         1 RES1    0.0000
     46 C22        5.7295   10.8965   72.0968 C.ar      1 RES1    0.0000
     47 H16        6.2686   10.1239   71.9631 H         1 RES1    0.0000
     48 C23        7.4942   10.9525   69.6236 C.3       1 RES1    0.0000
     49 H17        7.9590   11.2155   70.4701 H         1 RES1    0.0000
     50 C24        8.2886   11.4346   68.4206 C.2       1 RES1    0.0000
     51 C25       10.3198   11.1696   67.2418 C.3       1 RES1    0.0000
     52 H18        9.7919   11.2053   66.4142 H         1 RES1    0.0000
     53 H19       11.0298   10.5010   67.1477 H         1 RES1    0.0000
     54 H20       10.7195   12.0482   67.4152 H         1 RES1    0.0000
     55 O8         4.0685    3.8873   76.5920 O.2       2 RES2    0.0000
     56 O9         2.6313    4.7445   75.2493 O.2       2 RES2    0.0000
     57 O10        2.0171    8.2213   81.5193 O.3       2 RES2    0.0000
     58 O11        0.0543    8.5134   80.4443 O.2       2 RES2    0.0000
     59 O12        0.9179   12.5849   81.5230 O.3       2 RES2    0.0000
     60 O13        2.2224   14.6354   82.7260 O.3       2 RES2    0.0000
     61 O14        3.6810   13.0785   83.4311 O.2       2 RES2    0.0000
     62 N3         3.1541    4.6589   76.3487 N.pl3     2 RES2    0.0000
     63 N4         0.6062   11.2899   82.0382 N.2       2 RES2    0.0000
     64 C26        1.7403    7.1386   79.4373 C.ar      2 RES2    0.0000
     65 C27        2.8236    6.3100   79.6711 C.ar      2 RES2    0.0000
     66 H21        3.2416    6.3080   80.5237 H         2 RES2    0.0000
     67 C28        3.3026    5.4824   78.6632 C.ar      2 RES2    0.0000
     68 H22        4.0339    4.8953   78.8151 H         2 RES2    0.0000
     69 C29        2.6700    5.5456   77.4231 C.ar      2 RES2    0.0000
     70 C30        1.6101    6.3834   77.1607 C.ar      2 RES2    0.0000
     71 H23        1.2175    6.4170   76.2952 H         2 RES2    0.0000
     72 C31        1.1331    7.1723   78.1877 C.ar      2 RES2    0.0000
     73 H24        0.3855    7.7410   78.0384 H         2 RES2    0.0000
     74 C32        1.1626    8.0243   80.4883 C.2       2 RES2    0.0000
     75 C33        1.5603    9.1597   82.5405 C.3       2 RES2    0.0000
     76 H25        0.6062    8.9569   82.7588 H         2 RES2    0.0000
     77 C34        2.4096    8.9100   83.7702 C.ar      2 RES2    0.0000
     78 C35        1.7800    8.7999   85.0069 C.ar      2 RES2    0.0000
     79 H26        0.8371    8.8947   85.0716 H         2 RES2    0.0000
     80 C36        2.5296    8.5513   86.1537 C.ar      2 RES2    0.0000
     81 H27        2.0983    8.4779   86.9960 H         2 RES2    0.0000
     82 C37        3.9088    8.4116   86.0640 C.ar      2 RES2    0.0000
     83 H28        4.4225    8.2373   86.8407 H         2 RES2    0.0000
     84 C38        4.5323    8.5268   84.8317 C.ar      2 RES2    0.0000
     85 H29        5.4762    8.4381   84.7695 H         2 RES2    0.0000
     86 C39        3.7878    8.7704   83.6882 C.ar      2 RES2    0.0000
     87 H30        4.2221    8.8428   82.8451 H         2 RES2    0.0000
     88 C40        1.6498   10.5754   82.0098 C.2       2 RES2    0.0000
     89 C41        2.8693   11.2410   81.4048 C.3       2 RES2    0.0000
     90 H31        3.6637   11.1350   82.0080 H         2 RES2    0.0000
     91 C42        3.1694   10.6916   80.0111 C.ar      2 RES2    0.0000
     92 C43        4.2435    9.8477   79.7962 C.ar      2 RES2    0.0000
     93 H32        4.8283    9.6398   80.5151 H         2 RES2    0.0000
     94 C44        4.4744    9.3034   78.5449 C.ar      2 RES2    0.0000
     95 H33        5.2016    8.7062   78.4181 H         2 RES2    0.0000
     96 C45        3.6596    9.6235   77.4938 C.ar      2 RES2    0.0000
     97 H34        3.8275    9.2566   76.6317 H         2 RES2    0.0000
     98 C46        2.5916   10.4796   77.6828 C.ar      2 RES2    0.0000
     99 H35        2.0373   10.7151   76.9510 H         2 RES2    0.0000
    100 C47        2.3292   10.9964   78.9445 C.ar      2 RES2    0.0000
    101 H36        1.5755   11.5580   79.0826 H         2 RES2    0.0000
    102 C48        2.3597   12.6873   81.4324 C.3       2 RES2    0.0000
    103 H37        2.6191   13.1602   80.5928 H         2 RES2    0.0000
    104 C49        2.8520   13.4700   82.6492 C.2       2 RES2    0.0000
    105 C50        2.6089   15.4860   83.8349 C.3       2 RES2    0.0000
    106 H38        2.6120   14.9611   84.6660 H         2 RES2    0.0000
    107 H39        1.9702   16.2239   83.9152 H         2 RES2    0.0000
    108 H40        3.5060   15.8458   83.6736 H         2 RES2    0.0000
@<TRIPOS>BOND
     1    1    8 2
     2    2    8 2
     3    3   20 1
     4    4   20 2
     5    5    9 1
     6    6   50 1
     7    7   50 2
     8    8   15 1
     9    9   34 2
    10   10   11 ar
    11   11   12 1
    12   13   11 ar
    13   14   13 1
    14   15   13 ar
    15   16   15 ar
    16   17   16 1
    17   18   10 ar
    18   19   18 1
    19   20   10 1
    20   21    3 1
    21   22   21 1
    22   23   21 1
    23   24   23 ar
    24   25   24 1
    25   26   24 ar
    26   27   26 1
    27   28   26 ar
    28   29   28 1
    29   30   28 ar
    30   31   30 1
    31   32   23 ar
    32   33   32 1
    33   34   21 1
    34   35   34 1
    35   36   35 1
    36   37   35 1
    37   38   37 ar
    38   39   38 1
    39   40   38 ar
    40   41   40 1
    41   42   40 ar
    42   43   42 1
    43   44   42 ar
    44   45   44 1
    45   46   37 ar
    46   47   46 1
    47   48    5 1
    48   49   48 1
    49   50   48 1
    50   51    6 1
    51   52   51 1
    52   53   51 1
    53   54   51 1
    54   55   62 2
    55   56   62 2
    56   57   74 1
    57   58   74 2
    58   59   63 1
    59   60  104 1
    60   61  104 2
    61   62   69 1
    62   63   88 2
    63   64   65 ar
    64   65   66 1
    65   67   65 ar
    66   68   67 1
    67   69   67 ar
    68   70   69 ar
    69   71   70 1
    70   72   64 ar
    71   73   72 1
    72   74   64 1
    73   75   57 1
    74   76   75 1
    75   77   75 1
    76   78   77 ar
    77   79   78 1
    78   80   78 ar
    79   81   80 1
    80   82   80 ar
    81   83   82 1
    82   84   82 ar
    83   85   84 1
    84   86   77 ar
    85   87   86 1
    86   88   75 1
    87   89   88 1
    88   90   89 1
    89   91   89 1
    90   92   91 ar
    91   93   92 1
    92   94   92 ar
    93   95   94 1
    94   96   94 ar
    95   97   96 1
    96   98   96 ar
    97   99   98 1
    98  100   91 ar
    99  101  100 1
   100  102   59 1
   101  103  102 1
   102  104  102 1
   103  105   60 1
   104  106  105 1
   105  107  105 1
   106  108  105 1
   107   16   18 ar
   108   30   32 ar
   109   35   48 1
   110   44   46 ar
   111   70   72 ar
   112   84   86 ar
   113   89  102 1
   114   98  100 ar
@<TRIPOS>SUBSTRUCTURE
     1 RES1 1
     2 RES2 55

@<TRIPOS>CRYSIN
  10.1713   10.1922   86.2970  90.0000  90.0000  90.0000  20 1

