# MOL2 file generated by ConQuest
# Please check atom types

@<TRIPOS>MOLECULE
COWHUT
    15    14     1
SMALL
NO_CHARGES
****
Generated from CSD

@<TRIPOS>ATOM
      1 O1         0.4591    1.2131    5.7587 O.3       1 RES1    0.0000
      2 O2        -1.0863    1.2259    7.4086 O.2       1 RES1    0.0000
      3 O3        -3.5817    1.8751    4.2626 O.2       1 RES1    0.0000
      4 O4        -3.5214    1.2004    6.3247 O.2       1 RES1    0.0000
      5 C1        -0.7743    1.2886    6.2505 C.2       1 RES1    0.0000
      6 N1        -1.6249    1.4437    5.1660 N.am      1 RES1    0.0000
      7 H1        -1.3371    1.5964    4.4188 H         1 RES1    0.0000
      8 N2        -3.0045    1.5149    5.2705 N.pl3     1 RES1    0.0000
      9 C2         1.5378    1.1973    6.7529 C.3       1 RES1    0.0000
     10 H2         1.4727    0.4070    7.3109 H         1 RES1    0.0000
     11 H3         1.4873    1.9828    7.3201 H         1 RES1    0.0000
     12 C3         2.8293    1.1906    5.9796 C.3       1 RES1    0.0000
     13 H4         3.5683    1.1797    6.5927 H         1 RES1    0.0000
     14 H5         2.8780    1.9773    5.4320 H         1 RES1    0.0000
     15 H6         2.8644    0.4095    5.4228 H         1 RES1    0.0000
@<TRIPOS>BOND
     1    1    5 1
     2    2    5 2
     3    3    8 2
     4    4    8 2
     5    5    6 1
     6    6    7 1
     7    8    6 1
     8    9    1 1
     9   10    9 1
    10   11    9 1
    11   12    9 1
    12   13   12 1
    13   14   12 1
    14   15   12 1
@<TRIPOS>SUBSTRUCTURE
     1 RES1 1

@<TRIPOS>CRYSIN
   9.9090    6.0840    9.4870  90.0000 103.6430  90.0000  14 1

