# MOL2 file generated by ConQuest
# Please check atom types

@<TRIPOS>MOLECULE
COWJAB
    24    22     2
SMALL
NO_CHARGES
****
Generated from CSD

@<TRIPOS>ATOM
      1 O1         2.6481    5.3605    1.5441 O.2       1 RES1    0.0000
      2 O2         3.8301    3.6581    2.1921 O.2       1 RES1    0.0000
      3 O3         3.7341    3.1675    4.8244 O.2       1 RES1    0.0000
      4 O4         2.3660    4.6636    5.8211 O.3       1 RES1    0.0000
      5 N1         2.6166    4.8365    3.6670 N.am      1 RES1    0.0000
      6 H1         2.0484    5.4998    3.7750 H         1 RES1    0.0000
      7 N2         3.0746    4.5853    2.3875 N.pl3     1 RES1    0.0000
      8 C1         2.9915    4.1119    4.7964 C.2       1 RES1    0.0000
      9 C2         2.6009    4.0508    7.1188 C.3       1 RES1    0.0000
     10 H2         2.0887    4.5294    7.8038 H         1 RES1    0.0000
     11 H3         3.5558    4.0965    7.3331 H         1 RES1    0.0000
     12 H4         2.3158    3.1135    7.0932 H         1 RES1    0.0000
     13 O5         2.6698    0.6150    1.3191 O.2       2 RES2    0.0000
     14 O6         1.3476    2.1092    2.2020 O.2       2 RES2    0.0000
     15 O7         0.8864    1.7788    4.8401 O.2       2 RES2    0.0000
     16 O8         2.1109    0.0276    5.5647 O.3       2 RES2    0.0000
     17 N3         2.2510    0.4923    3.4600 N.am      2 RES2    0.0000
     18 H5         2.7891   -0.2038    3.4757 H         2 RES2    0.0000
     19 N4         2.0618    1.1288    2.2515 N.pl3     2 RES2    0.0000
     20 C3         1.6488    0.8734    4.6612 C.2       2 RES2    0.0000
     21 C4         1.6583    0.1951    6.9349 C.3       2 RES2    0.0000
     22 H6         2.0679   -0.4920    7.5013 H         2 RES2    0.0000
     23 H7         0.6825    0.1090    6.9695 H         2 RES2    0.0000
     24 H8         1.9191    1.0826    7.2589 H         2 RES2    0.0000
@<TRIPOS>BOND
     1    1    7 2
     2    2    7 2
     3    3    8 2
     4    4    8 1
     5    5    6 1
     6    7    5 1
     7    8    5 1
     8    9    4 1
     9   10    9 1
    10   11    9 1
    11   12    9 1
    12   13   19 2
    13   14   19 2
    14   15   20 2
    15   16   20 1
    16   17   18 1
    17   19   17 1
    18   20   17 1
    19   21   16 1
    20   22   21 1
    21   23   21 1
    22   24   21 1
@<TRIPOS>SUBSTRUCTURE
     1 RES1 1
     2 RES2 13

@<TRIPOS>CRYSIN
   7.6247    7.8003    8.3539  80.9550  89.9920  76.5360   2 1

