# MOL2 file generated by ConQuest
# Please check atom types

@<TRIPOS>MOLECULE
COWMAE
   120   126     2
SMALL
NO_CHARGES
****
Generated from CSD

@<TRIPOS>ATOM
      1 C1         4.0698    3.6089    8.8389 C.2       1 RES1    0.0000
      2 C2         3.4725    2.4837    8.4443 C.2       1 RES1    0.0000
      3 H1         2.9495    2.5154    7.6770 H         1 RES1    0.0000
      4 C3         3.5852    1.2367    9.1265 C.2       1 RES1    0.0000
      5 H2         2.8553    0.6634    9.0832 H         1 RES1    0.0000
      6 C4         4.6465    0.8220    9.8188 C.2       1 RES1    0.0000
      7 H3         4.5819   -0.0052   10.2382 H         1 RES1    0.0000
      8 C5         5.8796    1.5387    9.9736 C.2       1 RES1    0.0000
      9 H4         6.6649    1.0436   10.0285 H         1 RES1    0.0000
     10 C6         5.9731    2.8687   10.0461 C.2       1 RES1    0.0000
     11 H5         6.8086    3.2762   10.0169 H         1 RES1    0.0000
     12 C7         4.7422    3.7057   10.1748 C.3       1 RES1    0.0000
     13 H6         4.1581    3.2661   10.8273 H         1 RES1    0.0000
     14 C8         4.9917    5.1347   10.6795 C.3       1 RES1    0.0000
     15 H7         4.2196    5.4448   11.1785 H         1 RES1    0.0000
     16 H8         5.7600    5.1436   11.2717 H         1 RES1    0.0000
     17 C9         5.2365    6.0358    9.5269 C.2       1 RES1    0.0000
     18 C10        6.2177    6.8420    9.1909 C.2       1 RES1    0.0000
     19 C11        5.9298    7.3749    7.8296 C.2       1 RES1    0.0000
     20 C12        4.2252    5.9594    8.4220 C.3       1 RES1    0.0000
     21 C13        7.4812    7.2083    9.9093 C.3       1 RES1    0.0000
     22 H9         8.1888    7.3354    9.2580 H         1 RES1    0.0000
     23 H10        7.7400    6.4740   10.4878 H         1 RES1    0.0000
     24 C14        7.3443    8.4712   10.7443 C.ar      1 RES1    0.0000
     25 C15        6.5346    8.5100   11.8618 C.ar      1 RES1    0.0000
     26 H11        6.0592    7.7476   12.0988 H         1 RES1    0.0000
     27 C16        6.4065    9.6415   12.6386 C.ar      1 RES1    0.0000
     28 H12        5.8509    9.6533   13.3835 H         1 RES1    0.0000
     29 C17        7.1297   10.7492   12.2710 C.ar      1 RES1    0.0000
     30 C18        7.9519   10.7525   11.1868 C.ar      1 RES1    0.0000
     31 H13        8.4412   11.5117   10.9655 H         1 RES1    0.0000
     32 C19        8.0470    9.6079   10.4214 C.ar      1 RES1    0.0000
     33 H14        8.5989    9.6060    9.6724 H         1 RES1    0.0000
     34 C20        2.7374    7.5603    9.4099 C.3       1 RES1    0.0000
     35 H15        3.1735    8.2318    8.8636 H         1 RES1    0.0000
     36 H16        3.1259    7.5861   10.2981 H         1 RES1    0.0000
     37 C21        1.2753    7.8308    9.4826 C.3       1 RES1    0.0000
     38 H17        0.9063    7.8393    8.5956 H         1 RES1    0.0000
     39 H18        1.1272    8.6817    9.8987 H         1 RES1    0.0000
     40 H19        0.8485    7.1440   10.0002 H         1 RES1    0.0000
     41 C22        4.1754    7.0502    6.0361 C.3       1 RES1    0.0000
     42 C23        2.8266    6.3633    5.8731 C.3       1 RES1    0.0000
     43 H20        2.9295    5.4187    6.0094 H         1 RES1    0.0000
     44 H21        2.4902    6.5257    4.9893 H         1 RES1    0.0000
     45 H22        2.2086    6.7138    6.5187 H         1 RES1    0.0000
     46 C24        5.1596    6.5155    5.0222 C.3       1 RES1    0.0000
     47 H23        6.0200    6.9169    5.1690 H         1 RES1    0.0000
     48 H24        4.8547    6.7284    4.1372 H         1 RES1    0.0000
     49 H25        5.2307    5.5636    5.1158 H         1 RES1    0.0000
     50 C25        3.9346    8.5335    5.8314 C.3       1 RES1    0.0000
     51 H26        3.3185    8.8515    6.4937 H         1 RES1    0.0000
     52 H27        3.5682    8.6804    4.9560 H         1 RES1    0.0000
     53 H28        4.7663    9.0064    5.9129 H         1 RES1    0.0000
     54 N1         4.7440    6.8365    7.3991 N.am      1 RES1    0.0000
     55 N2         7.0015   11.9773   13.0575 N.pl3     1 RES1    0.0000
     56 O1         4.1580    4.6388    7.9133 O.3       1 RES1    0.0000
     57 O2         2.9183    6.2566    8.8293 O.3       1 RES1    0.0000
     58 O3         6.6442    8.1439    7.2062 O.2       1 RES1    0.0000
     59 O4         7.7309   12.9196   12.7831 O.2       1 RES1    0.0000
     60 O5         6.1577   12.0100   13.9326 O.2       1 RES1    0.0000
     61 C26       11.5489   15.1728   16.3057 C.2       2 RES2    0.0000
     62 C27       12.6499   14.5978   16.8070 C.2       2 RES2    0.0000
     63 H29       12.9851   14.9199   17.6123 H         2 RES2    0.0000
     64 C28       13.3476   13.5018   16.1654 C.2       2 RES2    0.0000
     65 H30       14.2665   13.4637   16.3009 H         2 RES2    0.0000
     66 C29       12.8226   12.5384   15.4006 C.2       2 RES2    0.0000
     67 H31       13.4054   11.9187   15.0244 H         2 RES2    0.0000
     68 C30       11.4375   12.3939   15.1211 C.2       2 RES2    0.0000
     69 H32       11.1029   11.5317   15.0178 H         2 RES2    0.0000
     70 C31       10.5804   13.4129   14.9958 C.2       2 RES2    0.0000
     71 H33        9.6693   13.2319   14.9496 H         2 RES2    0.0000
     72 C32       11.0415   14.8353   14.9283 C.3       2 RES2    0.0000
     73 H34       11.8047   14.8708   14.3138 H         2 RES2    0.0000
     74 C33        9.9691   15.7897   14.3922 C.3       2 RES2    0.0000
     75 H35       10.3854   16.5605   13.9777 H         2 RES2    0.0000
     76 H36        9.4261   15.3404   13.7264 H         2 RES2    0.0000
     77 C34        9.1215   16.2191   15.5339 C.2       2 RES2    0.0000
     78 C35        7.8756   16.0173   15.8923 C.2       2 RES2    0.0000
     79 C36        7.6836   16.5756   17.2616 C.2       2 RES2    0.0000
     80 C37        9.8749   16.8892   16.6429 C.3       2 RES2    0.0000
     81 C38        6.7821   15.2646   15.2025 C.3       2 RES2    0.0000
     82 H37        6.2676   14.7835   15.8699 H         2 RES2    0.0000
     83 H38        7.1827   14.6070   14.6117 H         2 RES2    0.0000
     84 C39        5.8363   16.1287   14.3940 C.ar      2 RES2    0.0000
     85 C40        6.0438   16.3249   13.0500 C.ar      2 RES2    0.0000
     86 H39        6.7797   15.9314   12.6396 H         2 RES2    0.0000
     87 C41        5.1794   17.0931   12.2983 C.ar      2 RES2    0.0000
     88 H40        5.3426   17.2495   11.3965 H         2 RES2    0.0000
     89 C42        4.0745   17.6216   12.9134 C.ar      2 RES2    0.0000
     90 C43        3.8295   17.4374   14.2476 C.ar      2 RES2    0.0000
     91 H41        3.0702   17.7974   14.6467 H         2 RES2    0.0000
     92 C44        4.7334   16.7075   14.9853 C.ar      2 RES2    0.0000
     93 H42        4.5978   16.6029   15.8998 H         2 RES2    0.0000
     94 C45        9.7611   19.0904   15.7153 C.3       2 RES2    0.0000
     95 H43        9.0987   19.3579   16.3708 H         2 RES2    0.0000
     96 H44        9.2961   18.7760   14.9246 H         2 RES2    0.0000
     97 C46       10.6191   20.2433   15.3689 C.3       2 RES2    0.0000
     98 H45       11.1185   20.5165   16.1428 H         2 RES2    0.0000
     99 H46       10.0710   20.9714   15.0677 H         2 RES2    0.0000
    100 H47       11.2271   19.9917   14.6683 H         2 RES2    0.0000
    101 C47        9.1181   17.5929   19.0591 C.3       2 RES2    0.0000
    102 C48       10.5379   18.1318   19.2196 C.3       2 RES2    0.0000
    103 H48       11.1689   17.4401   19.0086 H         2 RES2    0.0000
    104 H49       10.6697   18.4209   20.1252 H         2 RES2    0.0000
    105 H50       10.6668   18.8746   18.6241 H         2 RES2    0.0000
    106 C49        8.9342   16.3986   20.0047 C.3       2 RES2    0.0000
    107 H51        8.0751   15.9976   19.8506 H         2 RES2    0.0000
    108 H52        8.9872   16.6989   20.9141 H         2 RES2    0.0000
    109 H53        9.6233   15.7510   19.8407 H         2 RES2    0.0000
    110 C50        8.1319   18.7235   19.3897 C.3       2 RES2    0.0000
    111 H54        8.2432   19.4389   18.7589 H         2 RES2    0.0000
    112 H55        8.3027   19.0474   20.2767 H         2 RES2    0.0000
    113 H56        7.2333   18.3879   19.3381 H         2 RES2    0.0000
    114 N3         8.8757   17.1309   17.6642 N.am      2 RES2    0.0000
    115 N4         3.1297   18.4102   12.1211 N.pl3     2 RES2    0.0000
    116 O6        10.8511   16.0078   17.1674 O.3       2 RES2    0.0000
    117 O7        10.5810   18.0369   16.2511 O.3       2 RES2    0.0000
    118 O8         6.6510   16.5275   17.9092 O.2       2 RES2    0.0000
    119 O9         3.4907   18.8191   11.0482 O.2       2 RES2    0.0000
    120 O10        2.0356   18.6569   12.5912 O.2       2 RES2    0.0000
@<TRIPOS>BOND
     1    1    2 2
     2    2    3 1
     3    4    2 1
     4    5    4 1
     5    6    4 2
     6    7    6 1
     7    8    6 1
     8    9    8 1
     9   10    8 2
    10   11   10 1
    11   12    1 1
    12   13   12 1
    13   14   12 1
    14   15   14 1
    15   16   14 1
    16   17   14 1
    17   18   17 2
    18   19   18 1
    19   20   17 1
    20   21   18 1
    21   22   21 1
    22   23   21 1
    23   24   21 1
    24   25   24 ar
    25   26   25 1
    26   27   25 ar
    27   28   27 1
    28   29   27 ar
    29   30   29 ar
    30   31   30 1
    31   32   24 ar
    32   33   32 1
    33   34   35 1
    34   36   34 1
    35   37   34 1
    36   38   37 1
    37   39   37 1
    38   40   37 1
    39   41   42 1
    40   42   43 1
    41   44   42 1
    42   45   42 1
    43   46   41 1
    44   47   46 1
    45   48   46 1
    46   49   46 1
    47   50   41 1
    48   51   50 1
    49   52   50 1
    50   53   50 1
    51   54   19 1
    52   55   29 1
    53   56    1 1
    54   57   20 1
    55   58   19 2
    56   59   55 2
    57   60   55 2
    58   61   62 2
    59   62   63 1
    60   64   62 1
    61   65   64 1
    62   66   64 2
    63   67   66 1
    64   68   66 1
    65   69   68 1
    66   70   68 2
    67   71   70 1
    68   72   61 1
    69   73   72 1
    70   74   72 1
    71   75   74 1
    72   76   74 1
    73   77   74 1
    74   78   77 2
    75   79   78 1
    76   80   77 1
    77   81   78 1
    78   82   81 1
    79   83   81 1
    80   84   81 1
    81   85   84 ar
    82   86   85 1
    83   87   85 ar
    84   88   87 1
    85   89   87 ar
    86   90   89 ar
    87   91   90 1
    88   92   84 ar
    89   93   92 1
    90   94   95 1
    91   96   94 1
    92   97   94 1
    93   98   97 1
    94   99   97 1
    95  100   97 1
    96  101  102 1
    97  102  103 1
    98  104  102 1
    99  105  102 1
   100  106  101 1
   101  107  106 1
   102  108  106 1
   103  109  106 1
   104  110  101 1
   105  111  110 1
   106  112  110 1
   107  113  110 1
   108  114   79 1
   109  115   89 1
   110  116   61 1
   111  117   80 1
   112  118   79 2
   113  119  115 2
   114  120  115 2
   115   10   12 1
   116   20   54 1
   117   20   56 1
   118   30   32 ar
   119   34   57 1
   120   41   54 1
   121   70   72 1
   122   80  114 1
   123   80  116 1
   124   90   92 ar
   125   94  117 1
   126  101  114 1
@<TRIPOS>SUBSTRUCTURE
     1 RES1 1
     2 RES2 61

@<TRIPOS>CRYSIN
   9.9083   14.6680   17.8910  69.4070  78.7990  74.6760   2 1

