# MOL2 file generated by ConQuest
# Please check atom types

@<TRIPOS>MOLECULE
COWNUX
    40    42     1
SMALL
NO_CHARGES
****
Generated from CSD

@<TRIPOS>ATOM
      1 O1         2.6032    0.3991   11.1571 O.3       1 RES1    0.0000
      2 C1         1.7932   -0.4946   10.3087 C.3       1 RES1    0.0000
      3 N1         2.3714   -1.7771   10.1615 N.3       1 RES1    0.0000
      4 C2         2.5350   -2.4764   11.5035 C.3       1 RES1    0.0000
      5 C3         3.3453   -1.5309   12.4182 C.3       1 RES1    0.0000
      6 C4         2.7465   -0.1897   12.5136 C.3       1 RES1    0.0000
      7 C5         3.4643   -2.1182   13.8763 C.3       1 RES1    0.0000
      8 C6         2.1382   -2.6244   14.3949 C.3       1 RES1    0.0000
      9 C7         1.4946   -3.6007   13.4221 C.3       1 RES1    0.0000
     10 C8         1.2239   -2.9123   12.0199 C.3       1 RES1    0.0000
     11 C9         3.6489   -1.7335    9.3857 C.3       1 RES1    0.0000
     12 C10        1.5721    0.2279    8.9999 C.ar      1 RES1    0.0000
     13 C11        1.9970    1.5193    8.8070 C.ar      1 RES1    0.0000
     14 C12        1.8110    2.1749    7.6061 C.ar      1 RES1    0.0000
     15 C13        1.1403    1.5070    6.6042 C.ar      1 RES1    0.0000
     16 C14        0.7035    0.2251    6.7536 C.ar      1 RES1    0.0000
     17 C15        0.8893   -0.4189    7.9607 C.ar      1 RES1    0.0000
     18 N2         0.9212    2.2287    5.3327 N.pl3     1 RES1    0.0000
     19 O2         0.4296    1.5936    4.4139 O.2       1 RES1    0.0000
     20 O3         1.1906    3.4028    5.2684 O.2       1 RES1    0.0000
     21 H1         0.8446   -0.5730   10.7443 H         1 RES1    0.0000
     22 H2         3.0487   -3.1177   11.4288 H         1 RES1    0.0000
     23 H3         4.4162   -1.7055   12.1133 H         1 RES1    0.0000
     24 H4         1.8912   -0.2797   12.7563 H         1 RES1    0.0000
     25 H5         3.2563    0.2933   13.1296 H         1 RES1    0.0000
     26 H6         3.8096   -1.4122   14.5401 H         1 RES1    0.0000
     27 H7         4.0951   -2.8380   13.8556 H         1 RES1    0.0000
     28 H8         1.8678   -1.7055   14.5401 H         1 RES1    0.0000
     29 H9         2.3366   -3.1245   15.3283 H         1 RES1    0.0000
     30 H10        0.5605   -3.9022   13.8348 H         1 RES1    0.0000
     31 H11        2.4398   -3.9704   13.1296 H         1 RES1    0.0000
     32 H12        0.5402   -3.4110   11.3873 H         1 RES1    0.0000
     33 H13        0.5625   -2.0739   12.1133 H         1 RES1    0.0000
     34 H14        3.9355   -2.5582    9.3546 H         1 RES1    0.0000
     35 H15        3.3845   -1.1461    8.6701 H         1 RES1    0.0000
     36 H16        4.4751   -1.4258    9.6865 H         1 RES1    0.0000
     37 H17        2.5324    1.9852    9.3131 H         1 RES1    0.0000
     38 H18        2.0170    3.1177    7.5708 H         1 RES1    0.0000
     39 H19        0.2041   -0.2729    5.9529 H         1 RES1    0.0000
     40 H20        0.6427   -1.4258    7.9856 H         1 RES1    0.0000
@<TRIPOS>BOND
     1    1    2 1
     2    2    3 1
     3    3    4 1
     4    4    5 1
     5    5    6 1
     6    6    1 1
     7    7    5 1
     8    8    7 1
     9    9    8 1
    10   10    4 1
    11   11    3 1
    12   12    2 1
    13   13   12 ar
    14   14   13 ar
    15   15   14 ar
    16   16   15 ar
    17   17   12 ar
    18   18   15 1
    19   19   18 2
    20   20   18 2
    21   21    2 1
    22   22    4 1
    23   23    5 1
    24   24    6 1
    25   25    6 1
    26   26    7 1
    27   27    7 1
    28   28    8 1
    29   29    8 1
    30   30    9 1
    31   31    9 1
    32   32   10 1
    33   33   10 1
    34   34   11 1
    35   35   11 1
    36   36   11 1
    37   37   13 1
    38   38   14 1
    39   39   16 1
    40   40   17 1
    41    9   10 1
    42   16   17 ar
@<TRIPOS>SUBSTRUCTURE
     1 RES1 1

@<TRIPOS>CRYSIN
   9.9580    6.8220   20.7480  90.0000  91.3900  90.0000 231 1

