# MOL2 file generated by ConQuest
# Please check atom types

@<TRIPOS>MOLECULE
COWPEJ
    50    56     2
SMALL
NO_CHARGES
****
Generated from CSD

@<TRIPOS>ATOM
      1 O1         3.3248    3.3307   14.4313 O.2       1 RES1    0.0000
      2 O2         5.3703    0.3418   15.5366 O.2       1 RES1    0.0000
      3 O3         4.4711    1.6754   16.9351 O.2       1 RES1    0.0000
      4 N1         3.3894    5.3680   16.4641 N.3       1 RES1    0.0000
      5 N2         5.0928    1.4526   15.9115 N.pl3     1 RES1    0.0000
      6 C1         4.3194    3.6004   15.0609 C.2       1 RES1    0.0000
      7 C2         5.5482    2.6488   15.1089 C.3       1 RES1    0.0000
      8 C3         6.5969    3.4413   15.9187 C.3       1 RES1    0.0000
      9 C4         5.8225    4.4901   16.7404 C.3       1 RES1    0.0000
     10 C5         6.6191    5.7852   16.8894 C.3       1 RES1    0.0000
     11 C6         6.4165    6.5525   15.5631 C.3       1 RES1    0.0000
     12 C7         5.2389    5.8807   14.8518 C.3       1 RES1    0.0000
     13 C8         4.6118    4.8587   15.8418 C.3       1 RES1    0.0000
     14 C9         5.9912    2.1881   13.7297 C.3       1 RES1    0.0000
     15 C10        2.7976    4.4515   17.4469 C.3       1 RES1    0.0000
     16 C11        1.3815    4.8905   17.7785 C.3       1 RES1    0.0000
     17 C12        1.3692    6.3112   18.3287 C.3       1 RES1    0.0000
     18 C13        2.0602    7.2159   17.3484 C.3       1 RES1    0.0000
     19 C14        3.4660    6.7150   17.0360 C.3       1 RES1    0.0000
     20 C15        7.6177    2.6136   16.6900 C.ar      1 RES1    0.0000
     21 C16        8.7823    2.2099   16.0701 C.ar      1 RES1    0.0000
     22 C17        9.7531    1.4777   16.7140 C.ar      1 RES1    0.0000
     23 C18        9.5669    1.1376   18.0356 C.ar      1 RES1    0.0000
     24 C19        8.4267    1.5313   18.6891 C.ar      1 RES1    0.0000
     25 C20        7.4494    2.2718   18.0187 C.ar      1 RES1    0.0000
     26 O4         8.1004    3.3458    0.5502 O.2       2 RES2    0.0000
     27 O5        10.3305    0.3887   -0.7737 O.2       2 RES2    0.0000
     28 O6         9.4620    1.7709   -2.1025 O.2       2 RES2    0.0000
     29 N3         8.2407    5.4769   -1.3792 N.3       2 RES2    0.0000
     30 N4         9.9257    1.5012   -0.9996 N.pl3     2 RES2    0.0000
     31 C21        9.1092    3.6105   -0.0505 C.2       2 RES2    0.0000
     32 C22       10.3251    2.6471   -0.0985 C.3       2 RES2    0.0000
     33 C23       11.4175    3.4915   -0.8290 C.3       2 RES2    0.0000
     34 C24       10.6658    4.5688   -1.6435 C.3       2 RES2    0.0000
     35 C25       11.4628    5.8656   -1.7541 C.3       2 RES2    0.0000
     36 C26       11.2374    6.5893   -0.4181 C.3       2 RES2    0.0000
     37 C27       10.0797    5.8689    0.2883 C.3       2 RES2    0.0000
     38 C28        9.4458    4.9106   -0.7569 C.3       2 RES2    0.0000
     39 C29       10.7209    2.1077    1.2591 C.3       2 RES2    0.0000
     40 C30        7.7325    4.6844   -2.5061 C.3       2 RES2    0.0000
     41 C31        6.3266    5.1116   -2.8618 C.3       2 RES2    0.0000
     42 C32        6.2392    6.5826   -3.1861 C.3       2 RES2    0.0000
     43 C33        6.8489    7.3734   -2.0424 C.3       2 RES2    0.0000
     44 C34        8.2592    6.9010   -1.7517 C.3       2 RES2    0.0000
     45 C35       12.4894    2.7091   -1.5666 C.ar      2 RES2    0.0000
     46 C36       13.6179    2.3121   -0.8770 C.ar      2 RES2    0.0000
     47 C37       14.6525    1.6235   -1.4970 C.ar      2 RES2    0.0000
     48 C38       14.5586    1.3453   -2.8377 C.ar      2 RES2    0.0000
     49 C39       13.4451    1.7340   -3.5514 C.ar      2 RES2    0.0000
     50 C40       12.4120    2.4059   -2.9170 C.ar      2 RES2    0.0000
@<TRIPOS>BOND
     1    1    6 2
     2    2    5 2
     3    3    5 2
     4    4   13 1
     5    5    7 1
     6    6    7 1
     7    7    8 1
     8    8    9 1
     9    9   10 1
    10   10   11 1
    11   11   12 1
    12   12   13 1
    13   13    6 1
    14   14    7 1
    15   15    4 1
    16   16   15 1
    17   17   16 1
    18   18   17 1
    19   19    4 1
    20   20    8 1
    21   21   20 ar
    22   22   21 ar
    23   23   22 ar
    24   24   23 ar
    25   25   20 ar
    26   26   31 2
    27   27   30 2
    28   28   30 2
    29   29   38 1
    30   30   32 1
    31   31   32 1
    32   32   33 1
    33   33   34 1
    34   34   35 1
    35   35   36 1
    36   36   37 1
    37   37   38 1
    38   38   31 1
    39   39   32 1
    40   40   29 1
    41   41   40 1
    42   42   41 1
    43   43   42 1
    44   44   29 1
    45   45   33 1
    46   46   45 ar
    47   47   46 ar
    48   48   47 ar
    49   49   48 ar
    50   50   45 ar
    51    9   13 1
    52   18   19 1
    53   24   25 ar
    54   34   38 1
    55   43   44 1
    56   49   50 ar
@<TRIPOS>SUBSTRUCTURE
     1 RES1 1
     2 RES2 26

@<TRIPOS>CRYSIN
   9.0240   16.7540   24.0360  90.0000  91.4600  90.0000  14 1

