# MOL2 file generated by ConQuest
# Please check atom types

@<TRIPOS>MOLECULE
COWYET
    19    19     1
SMALL
NO_CHARGES
****
Generated from CSD

@<TRIPOS>ATOM
      1 C1         1.4072    4.9694    9.2380 C.ar      1 RES1    0.0000
      2 C2         0.0997    4.5638    9.3537 C.ar      1 RES1    0.0000
      3 C3        -0.3790    3.5434    8.5401 C.ar      1 RES1    0.0000
      4 C4         0.4913    2.9363    7.6130 C.ar      1 RES1    0.0000
      5 C5         1.8245    3.3840    7.4903 C.ar      1 RES1    0.0000
      6 C6         2.2646    4.4090    8.3190 C.ar      1 RES1    0.0000
      7 C7         1.9494    6.0489   10.1340 C.2       1 RES1    0.0000
      8 O1         3.1303    6.3566   10.1016 O.2       1 RES1    0.0000
      9 O2         1.0799    6.5874   10.9188 O.3       1 RES1    0.0000
     10 O3         0.7847    1.3347    5.9826 O.2       1 RES1    0.0000
     11 O4        -1.1392    1.4394    6.9299 O.2       1 RES1    0.0000
     12 O5        -1.6592    3.1979    8.6999 O.3       1 RES1    0.0000
     13 O6         2.7221    2.8758    6.6271 O.3       1 RES1    0.0000
     14 N1         0.0196    1.8509    6.7971 N.pl3     1 RES1    0.0000
     15 H1        -0.4836    4.9634    9.9507 H         1 RES1    0.0000
     16 H2         1.5207    7.2714   11.5446 H         1 RES1    0.0000
     17 H3         2.3337    2.2981    6.1123 H         1 RES1    0.0000
     18 H4         3.1592    4.6656    8.2532 H         1 RES1    0.0000
     19 H5        -1.8228    2.5363    8.1249 H         1 RES1    0.0000
@<TRIPOS>BOND
     1    1    2 ar
     2    2    3 ar
     3    3    4 ar
     4    4    5 ar
     5    5    6 ar
     6    6    1 ar
     7    7    1 1
     8    8    7 2
     9    9    7 1
    10   10   14 2
    11   11   14 2
    12   12    3 1
    13   13    5 1
    14   14    4 1
    15   15    2 1
    16   16    9 1
    17   17   13 1
    18   18    6 1
    19   19   12 1
@<TRIPOS>SUBSTRUCTURE
     1 RES1 1

@<TRIPOS>CRYSIN
   6.8366    4.9634   22.5647  90.0000  93.8810  90.0000  14 1

