# MOL2 file generated by ConQuest
# Please check atom types

@<TRIPOS>MOLECULE
COXROW
    67    69     2
SMALL
NO_CHARGES
****
Generated from CSD

@<TRIPOS>ATOM
      1 O1         8.3118    4.2422   11.4162 O.3       1 RES1    0.0000
      2 O2         5.9629    1.1553   12.2484 O.3       2 RES2    0.0000
      3 O3        10.2355    4.7474    9.9286 O.2       1 RES1    0.0000
      4 O4         4.0278    0.5699   13.6791 O.2       2 RES2    0.0000
      5 O5         9.6011    0.8594    8.5026 O.2       1 RES1    0.0000
      6 O6         4.5115    4.4347   15.2082 O.2       2 RES2    0.0000
      7 N1         8.2762    2.9840   10.8876 N.2       1 RES1    0.0000
      8 N2         5.9659    2.4051   12.8031 N.2       2 RES2    0.0000
      9 N3        10.8408    3.1869    8.3924 N.am      1 RES1    0.0000
     10 N4         3.3638    2.0666   15.2592 N.am      2 RES2    0.0000
     11 N5         8.1254    0.4905   10.1704 N.am      1 RES1    0.0000
     12 N6         6.0287    4.8836   13.5961 N.am      2 RES2    0.0000
     13 C1         9.1063    2.6805    9.9594 C.2       1 RES1    0.0000
     14 C2         5.1055    2.6700   13.7229 C.2       2 RES2    0.0000
     15 C3        10.1251    3.6245    9.4165 C.2       1 RES1    0.0000
     16 C4         4.1097    1.6782   14.2267 C.2       2 RES2    0.0000
     17 C5         8.9611    1.2626    9.4687 C.2       1 RES1    0.0000
     18 C6         5.1877    4.0755   14.2481 C.2       2 RES2    0.0000
     19 C7        11.8121    3.8628    7.6207 C.ar      1 RES1    0.0000
     20 C8         2.3670    1.3680   15.9716 C.ar      2 RES2    0.0000
     21 C9        12.3646    5.0838    7.9514 C.ar      1 RES1    0.0000
     22 C10        2.0220    0.0451   15.7309 C.ar      2 RES2    0.0000
     23 C11       13.3211    5.6541    7.1205 C.ar      1 RES1    0.0000
     24 C12        1.0242   -0.5284   16.4943 C.ar      2 RES2    0.0000
     25 C13       13.7101    5.0310    5.9766 C.ar      1 RES1    0.0000
     26 C14        0.3820    0.1732   17.4805 C.ar      2 RES2    0.0000
     27 C15       13.1427    3.8355    5.6328 C.ar      1 RES1    0.0000
     28 C16        0.7178    1.4732   17.7247 C.ar      2 RES2    0.0000
     29 C17       12.1978    3.2431    6.4496 C.ar      1 RES1    0.0000
     30 C18        1.7159    2.0679   16.9661 C.ar      2 RES2    0.0000
     31 C19        7.8862   -0.8916    9.9938 C.ar      1 RES1    0.0000
     32 C20        6.2842    6.2586   13.8628 C.ar      2 RES2    0.0000
     33 C21        7.9528   -1.5041    8.7646 C.ar      1 RES1    0.0000
     34 C22        5.3283    7.0810   14.4460 C.ar      2 RES2    0.0000
     35 C23        7.6889   -2.8595    8.6650 C.ar      1 RES1    0.0000
     36 C24        5.6485    8.4105   14.6475 C.ar      2 RES2    0.0000
     37 C25        7.3673   -3.5952    9.7840 C.ar      1 RES1    0.0000
     38 C26        6.8637    8.9255   14.2741 C.ar      2 RES2    0.0000
     39 C27        7.3141   -2.9818   11.0014 C.ar      1 RES1    0.0000
     40 C28        7.7965    8.1023   13.6874 C.ar      2 RES2    0.0000
     41 C29        7.5590   -1.6238   11.1128 C.ar      1 RES1    0.0000
     42 C30        7.5077    6.7644   13.4752 C.ar      2 RES2    0.0000
     43 H1         8.9737    4.6527   10.8461 H         1 RES1    0.0000
     44 H2         4.9973    0.6789   12.6561 H         2 RES2    0.0000
     45 H3        10.6997    2.2963    8.2039 H         1 RES1    0.0000
     46 H4         3.6291    2.9274   15.6006 H         2 RES2    0.0000
     47 H5         7.6637    0.9580   10.7773 H         1 RES1    0.0000
     48 H6         6.4874    4.5021   12.9074 H         2 RES2    0.0000
     49 H7        12.1283    5.5793    8.7681 H         1 RES1    0.0000
     50 H8         2.4197   -0.4532   15.0340 H         2 RES2    0.0000
     51 H9        13.6590    6.6360    7.3730 H         1 RES1    0.0000
     52 H10        0.7391   -1.4426   16.2478 H         2 RES2    0.0000
     53 H11       14.4839    5.4593    5.3484 H         1 RES1    0.0000
     54 H12       -0.3381   -0.1772   18.0175 H         2 RES2    0.0000
     55 H13       13.4623    3.3591    4.8801 H         1 RES1    0.0000
     56 H14        0.2582    2.0672   18.3992 H         2 RES2    0.0000
     57 H15       11.8685    2.3813    6.1354 H         1 RES1    0.0000
     58 H16        2.0874    3.0706   17.0941 H         2 RES2    0.0000
     59 H17        4.5000    6.6546   14.7969 H         2 RES2    0.0000
     60 H18        6.9557   -3.3584    7.7428 H         1 RES1    0.0000
     61 H19        4.9124    9.0210   15.0778 H         2 RES2    0.0000
     62 H20        7.2534   -4.5609    9.6785 H         1 RES1    0.0000
     63 H21        7.0583    9.9133   14.4045 H         2 RES2    0.0000
     64 H22        7.1370   -3.5145   11.8465 H         1 RES1    0.0000
     65 H23        8.6332    8.5009   13.2761 H         2 RES2    0.0000
     66 H24        7.4581   -1.1603   11.9722 H         1 RES1    0.0000
     67 H25        8.2008    6.2070   13.0651 H         2 RES2    0.0000
@<TRIPOS>BOND
     1    1    7 1
     2    2    8 1
     3    3   15 2
     4    4   16 2
     5    5   17 2
     6    6   18 2
     7    7   13 2
     8    8   14 2
     9    9   15 1
    10   10   16 1
    11   11   17 1
    12   12   18 1
    13   13   15 1
    14   14   16 1
    15   17   13 1
    16   18   14 1
    17   19    9 1
    18   20   10 1
    19   21   19 ar
    20   22   20 ar
    21   23   21 ar
    22   24   22 ar
    23   25   23 ar
    24   26   24 ar
    25   27   25 ar
    26   28   26 ar
    27   29   19 ar
    28   30   20 ar
    29   31   11 1
    30   32   12 1
    31   33   31 ar
    32   34   32 ar
    33   35   33 ar
    34   36   34 ar
    35   37   35 ar
    36   38   36 ar
    37   39   37 ar
    38   40   38 ar
    39   41   31 ar
    40   42   32 ar
    41   43    1 1
    42   44    2 1
    43   45    9 1
    44   46   10 1
    45   47   11 1
    46   48   12 1
    47   49   21 1
    48   50   22 1
    49   51   23 1
    50   52   24 1
    51   53   25 1
    52   54   26 1
    53   55   27 1
    54   56   28 1
    55   57   29 1
    56   58   30 1
    57   59   34 1
    58   60   35 1
    59   61   36 1
    60   62   37 1
    61   63   38 1
    62   64   39 1
    63   65   40 1
    64   66   41 1
    65   67   42 1
    66   27   29 ar
    67   28   30 ar
    68   39   41 ar
    69   40   42 ar
@<TRIPOS>SUBSTRUCTURE
     1 RES1 1
     2 RES2 2

@<TRIPOS>CRYSIN
   9.8580   12.0300   13.0000  81.9900  69.1200  99.9300   2 1

