# MOL2 file generated by ConQuest
# Please check atom types

@<TRIPOS>MOLECULE
COXVAN
    56    58     1
SMALL
NO_CHARGES
****
Generated from CSD

@<TRIPOS>ATOM
      1 C1         0.2844   -2.5475    7.3167 C.ar      1 RES1    0.0000
      2 C2        -0.0994   -2.6087    8.6348 C.ar      1 RES1    0.0000
      3 H1        -0.7104   -1.9843    8.9535 H         1 RES1    0.0000
      4 C3         1.2678   -4.4211    9.0002 C.ar      1 RES1    0.0000
      5 C4         1.7105   -4.3958    7.6714 C.ar      1 RES1    0.0000
      6 H2         2.3307   -5.0193    7.3668 H         1 RES1    0.0000
      7 C5         1.2185   -3.4412    6.8323 C.ar      1 RES1    0.0000
      8 H3         1.5064   -3.3926    5.9490 H         1 RES1    0.0000
      9 C6         2.5427   -6.4187    9.7524 C.2       1 RES1    0.0000
     10 C7         3.2185   -6.8766   10.9977 C.ar      1 RES1    0.0000
     11 C8         3.4019   -8.2257   11.2695 C.ar      1 RES1    0.0000
     12 H4         3.0768   -8.8662   10.6791 H         1 RES1    0.0000
     13 C9         4.0653   -8.6187   12.4154 C.ar      1 RES1    0.0000
     14 H5         4.1822   -9.5240   12.5958 H         1 RES1    0.0000
     15 C10        4.5542   -7.6766   13.2911 C.ar      1 RES1    0.0000
     16 H6         4.9980   -7.9479   14.0614 H         1 RES1    0.0000
     17 C11        4.3901   -6.3350   13.0334 C.ar      1 RES1    0.0000
     18 H7         4.7314   -5.7011   13.6225 H         1 RES1    0.0000
     19 C12        3.7141   -5.9313   11.8944 C.ar      1 RES1    0.0000
     20 H8         3.5912   -5.0257   11.7269 H         1 RES1    0.0000
     21 C13        3.5527   -7.9445    8.2087 C.ar      1 RES1    0.0000
     22 C14        2.9883   -9.1121    7.6660 C.ar      1 RES1    0.0000
     23 C15        3.8422  -10.0586    7.1113 C.ar      1 RES1    0.0000
     24 H9         3.4822  -10.8374    6.7535 H         1 RES1    0.0000
     25 C16        5.2061   -9.8750    7.0762 C.ar      1 RES1    0.0000
     26 H10        5.7591  -10.5184    6.6957 H         1 RES1    0.0000
     27 C17        5.7389   -8.7252    7.6131 C.ar      1 RES1    0.0000
     28 H11        6.6605   -8.6040    7.5924 H         1 RES1    0.0000
     29 C18        4.9440   -7.7397    8.1845 C.ar      1 RES1    0.0000
     30 C19        5.6181   -6.4755    8.6981 C.3       1 RES1    0.0000
     31 H12        4.9231   -5.9008    9.0802 H         1 RES1    0.0000
     32 C20        6.2857   -5.7061    7.5607 C.3       1 RES1    0.0000
     33 H13        5.6365   -5.5151    6.8802 H         1 RES1    0.0000
     34 H14        6.9933   -6.2361    7.1879 H         1 RES1    0.0000
     35 H15        6.6459   -4.8826    7.8991 H         1 RES1    0.0000
     36 C21        6.6262   -6.7893    9.8069 C.3       1 RES1    0.0000
     37 H16        6.1854   -7.2636   10.5158 H         1 RES1    0.0000
     38 H17        6.9909   -5.9699   10.1491 H         1 RES1    0.0000
     39 H18        7.3347   -7.3312    9.4513 H         1 RES1    0.0000
     40 C22        1.4924   -9.3478    7.6798 C.3       1 RES1    0.0000
     41 H19        1.0652   -8.5135    7.9657 H         1 RES1    0.0000
     42 C23        0.9565   -9.6854    6.3124 C.3       1 RES1    0.0000
     43 H20        1.1830   -8.9821    5.6979 H         1 RES1    0.0000
     44 H21        0.0026   -9.7773    6.3557 H         1 RES1    0.0000
     45 H22        1.3441  -10.5100    6.0112 H         1 RES1    0.0000
     46 C24        1.0992  -10.4264    8.6724 C.3       1 RES1    0.0000
     47 H23        0.1468  -10.5474    8.6524 H         1 RES1    0.0000
     48 H24        1.3701  -10.1627    9.5547 H         1 RES1    0.0000
     49 H25        1.5321  -11.2501    8.4369 H         1 RES1    0.0000
     50 N1        -0.2998   -1.5568    6.4258 N.pl3     1 RES1    0.0000
     51 N2         0.3731   -3.5309    9.4732 N.ar      1 RES1    0.0000
     52 N3         1.7236   -5.3085    9.9412 N.pl3     1 RES1    0.0000
     53 H26        1.4716   -5.1604   10.7502 H         1 RES1    0.0000
     54 N4         2.6518   -6.9177    8.5826 N.2       1 RES1    0.0000
     55 O1         0.1871   -1.4280    5.3103 O.2       1 RES1    0.0000
     56 O2        -1.2380   -0.8916    6.8314 O.2       1 RES1    0.0000
@<TRIPOS>BOND
     1    1    2 ar
     2    2    3 1
     3    4    5 ar
     4    5    6 1
     5    7    1 ar
     6    8    7 1
     7    9   10 1
     8   10   11 ar
     9   11   12 1
    10   13   11 ar
    11   14   13 1
    12   15   13 ar
    13   16   15 1
    14   17   15 ar
    15   18   17 1
    16   19   10 ar
    17   20   19 1
    18   21   22 ar
    19   22   23 ar
    20   23   24 1
    21   25   23 ar
    22   26   25 1
    23   27   25 ar
    24   28   27 1
    25   29   21 ar
    26   30   29 1
    27   31   30 1
    28   32   30 1
    29   33   32 1
    30   34   32 1
    31   35   32 1
    32   36   30 1
    33   37   36 1
    34   38   36 1
    35   39   36 1
    36   40   22 1
    37   41   40 1
    38   42   40 1
    39   43   42 1
    40   44   42 1
    41   45   42 1
    42   46   40 1
    43   47   46 1
    44   48   46 1
    45   49   46 1
    46   50    1 1
    47   51    2 ar
    48   52    4 1
    49   53   52 1
    50   54    9 2
    51   55   50 2
    52   56   50 2
    53    4   51 ar
    54    5    7 ar
    55    9   52 1
    56   17   19 ar
    57   21   54 1
    58   27   29 ar
@<TRIPOS>SUBSTRUCTURE
     1 RES1 1

@<TRIPOS>CRYSIN
   8.2857   11.8340   12.5490 110.5200 107.4370  90.8940   2 1

