# MOL2 file generated by ConQuest
# Please check atom types

@<TRIPOS>MOLECULE
COXXIW
    27    27     1
SMALL
NO_CHARGES
****
Generated from CSD

@<TRIPOS>ATOM
      1 C1         5.1475    1.8822   -0.4602 C.ar      1 RES1    0.0000
      2 C2         5.9756    2.5498   -1.3238 C.ar      1 RES1    0.0000
      3 C3         7.2814    2.7872   -0.9527 C.ar      1 RES1    0.0000
      4 C4         7.7658    2.3163    0.2810 C.ar      1 RES1    0.0000
      5 C5         6.8774    1.6713    1.1204 C.ar      1 RES1    0.0000
      6 C6         5.5671    1.4535    0.7741 C.ar      1 RES1    0.0000
      7 N1         3.7434    1.6261   -0.8596 N.pl3     1 RES1    0.0000
      8 O1         3.4309    1.8235   -2.0216 O.2       1 RES1    0.0000
      9 O2         2.9688    1.1807   -0.0318 O.2       1 RES1    0.0000
     10 C7         9.2168    2.4918    0.6457 C.3       1 RES1    0.0000
     11 O3         9.3038    2.9371    2.0158 O.3       1 RES1    0.0000
     12 C8        10.0003    1.1777    0.5018 C.3       1 RES1    0.0000
     13 N2        11.4177    1.3525    0.8504 N.3       1 RES1    0.0000
     14 C9         9.8730    0.5576   -0.8556 C.3       1 RES1    0.0000
     15 O4        10.5628    1.3156   -1.8511 O.3       1 RES1    0.0000
     16 H1         5.7144    2.7955   -2.0118 H         1 RES1    0.0000
     17 H2         9.6208    3.6469    2.1390 H         1 RES1    0.0000
     18 H3         7.8797    3.2325   -1.6418 H         1 RES1    0.0000
     19 H4        10.1342    1.8762   -2.2546 H         1 RES1    0.0000
     20 H5         7.2100    1.4769    1.7401 H         1 RES1    0.0000
     21 H6         8.8842    0.3617   -0.9539 H         1 RES1    0.0000
     22 H7         4.9108    0.9796    1.5262 H         1 RES1    0.0000
     23 H8        10.3351   -0.3466   -0.7920 H         1 RES1    0.0000
     24 H9         9.7770    3.1195    0.1792 H         1 RES1    0.0000
     25 H10       11.5628    1.8762    1.8846 H         1 RES1    0.0000
     26 H11        9.6654    0.5802    1.1793 H         1 RES1    0.0000
     27 H12       11.8976    1.5145    0.2197 H         1 RES1    0.0000
@<TRIPOS>BOND
     1    1    2 ar
     2    2    3 ar
     3    3    4 ar
     4    4    5 ar
     5    5    6 ar
     6    6    1 ar
     7    7    1 1
     8    8    7 2
     9    9    7 2
    10   10    4 1
    11   11   10 1
    12   12   10 1
    13   13   12 1
    14   14   12 1
    15   15   14 1
    16   16    2 1
    17   17   11 1
    18   18    3 1
    19   19   15 1
    20   20    5 1
    21   21   14 1
    22   22    6 1
    23   23   14 1
    24   24   10 1
    25   25   13 1
    26   26   12 1
    27   27   13 1
@<TRIPOS>SUBSTRUCTURE
     1 RES1 1

@<TRIPOS>CRYSIN
  22.3220    7.5350    5.7810  90.0000  90.0000  90.0000  19 1

