# MOL2 file generated by ConQuest
# Please check atom types

@<TRIPOS>MOLECULE
COXXOE
    45    46     1
SMALL
NO_CHARGES
****
Generated from CSD

@<TRIPOS>ATOM
      1 O1         4.9292    6.2288   10.0586 O.3       1 RES1    0.0000
      2 O2         3.4653    6.6523   11.7537 O.2       1 RES1    0.0000
      3 O3         5.7094    6.7553   11.9768 O.3       1 RES1    0.0000
      4 O4         6.8763    4.7298    8.5095 O.2       1 RES1    0.0000
      5 O5         4.6309    9.4297    5.2661 O.2       1 RES1    0.0000
      6 O6         5.3471    3.2467    8.1252 O.2       1 RES1    0.0000
      7 O7         6.1666    9.3456    6.7717 O.2       1 RES1    0.0000
      8 N1         5.1515    8.9228    6.2481 N.pl3     1 RES1    0.0000
      9 C1         5.5017    6.6538    7.1950 C.3       1 RES1    0.0000
     10 H1         6.1468    7.0253    7.8626 H         1 RES1    0.0000
     11 C2         2.9914    6.9940    8.7251 C.3       1 RES1    0.0000
     12 H2         2.3060    6.6722    8.0875 H         1 RES1    0.0000
     13 H3         2.5222    7.2951    9.5428 H         1 RES1    0.0000
     14 C3         3.1124    4.6250    9.5761 C.3       1 RES1    0.0000
     15 H4         3.7111    4.0036   10.0400 H         1 RES1    0.0000
     16 H5         2.7008    4.1724    8.8108 H         1 RES1    0.0000
     17 H6         2.4130    4.9260   10.1924 H         1 RES1    0.0000
     18 C4         7.6263    6.4766    5.8441 C.ar      1 RES1    0.0000
     19 H7         8.0615    6.9908    6.5147 H         1 RES1    0.0000
     20 N2         5.7448    4.4044    8.1824 N.pl3     1 RES1    0.0000
     21 C5         3.9081    5.8268    9.0876 C.3       1 RES1    0.0000
     22 C6         6.2735    6.1882    5.9708 C.ar      1 RES1    0.0000
     23 C7         3.7125    8.1904    8.1073 C.3       1 RES1    0.0000
     24 H8         3.0569    8.8915    7.8664 H         1 RES1    0.0000
     25 H9         4.3516    8.5730    8.7596 H         1 RES1    0.0000
     26 C8         6.9392    7.7822   13.7400 C.3       1 RES1    0.0000
     27 H10        7.2583    8.4767   13.1256 H         1 RES1    0.0000
     28 H11        7.5598    7.0241   13.7265 H         1 RES1    0.0000
     29 H12        6.8886    8.1474   14.6484 H         1 RES1    0.0000
     30 C9         6.3714    4.9863    3.8753 C.ar      1 RES1    0.0000
     31 H13        5.9363    4.4791    3.1993 H         1 RES1    0.0000
     32 C10        4.4584    7.7291    6.8621 C.3       1 RES1    0.0000
     33 H14        3.8021    7.3569    6.2049 H         1 RES1    0.0000
     34 C11        7.7253    5.2693    3.7678 C.ar      1 RES1    0.0000
     35 H15        8.2219    4.9486    3.0244 H         1 RES1    0.0000
     36 C12        4.5838    6.5580   11.3149 C.2       1 RES1    0.0000
     37 C13        8.3510    6.0222    4.7484 C.ar      1 RES1    0.0000
     38 H16        9.2754    6.2276    4.6721 H         1 RES1    0.0000
     39 C14        4.7438    5.4857    7.8363 C.3       1 RES1    0.0000
     40 H17        4.1206    5.1138    7.1481 H         1 RES1    0.0000
     41 C15        5.6511    5.4451    4.9715 C.ar      1 RES1    0.0000
     42 H18        4.7236    5.2493    5.0394 H         1 RES1    0.0000
     43 C16        5.5742    7.3204   13.3091 C.3       1 RES1    0.0000
     44 H19        5.2298    6.6378   13.9376 H         1 RES1    0.0000
     45 H20        4.9432    8.0832   13.2955 H         1 RES1    0.0000
@<TRIPOS>BOND
     1    1   21 1
     2    2   36 2
     3    3   36 1
     4    4   20 2
     5    5    8 2
     6    6   20 2
     7    7    8 2
     8    8   32 1
     9    9   10 1
    10   11   12 1
    11   13   11 1
    12   14   15 1
    13   16   14 1
    14   17   14 1
    15   18   19 1
    16   20   39 1
    17   21   11 1
    18   22    9 1
    19   23   11 1
    20   24   23 1
    21   25   23 1
    22   26   27 1
    23   28   26 1
    24   29   26 1
    25   30   31 1
    26   32    9 1
    27   33   32 1
    28   34   30 ar
    29   35   34 1
    30   36    1 1
    31   37   18 ar
    32   38   37 1
    33   39    9 1
    34   40   39 1
    35   41   22 ar
    36   42   41 1
    37   43    3 1
    38   44   43 1
    39   45   43 1
    40   14   21 1
    41   18   22 ar
    42   21   39 1
    43   23   32 1
    44   26   43 1
    45   30   41 ar
    46   34   37 ar
@<TRIPOS>SUBSTRUCTURE
     1 RES1 1

@<TRIPOS>CRYSIN
  11.3767   11.8871   12.4923  90.0000  90.0000  90.0000  19 1

