# MOL2 file generated by ConQuest
# Please check atom types

@<TRIPOS>MOLECULE
COXXIY
    90    92     2
SMALL
NO_CHARGES
****
Generated from CSD

@<TRIPOS>ATOM
      1 O1        -0.0912    3.9376    2.5401 O.2       1 RES1    0.0000
      2 O2         0.1936    5.1471    4.3152 O.2       1 RES1    0.0000
      3 O3         4.3228    3.7773   -0.0519 O.2       1 RES1    0.0000
      4 O4         5.3878    5.8654    2.4164 O.2       1 RES1    0.0000
      5 O5         1.8058    1.5889    2.7830 O.3       1 RES1    0.0000
      6 H1         1.0020    1.3458    2.8000 H         1 RES1    0.0000
      7 N1         4.9519    4.9523    3.0983 N.pl3     1 RES1    0.0000
      8 O6         6.2000    3.4789    1.1678 O.3       1 RES1    0.0000
      9 N2         0.5926    4.3587    3.4560 N.pl3     1 RES1    0.0000
     10 C1         2.0835    2.3873    3.9254 C.3       1 RES1    0.0000
     11 C2         2.0164    3.8960    3.5749 C.3       1 RES1    0.0000
     12 H2         2.4594    4.4133    4.3069 H         1 RES1    0.0000
     13 C3         2.7317    4.2130    2.2472 C.3       1 RES1    0.0000
     14 H3         2.3385    3.6018    1.5603 H         1 RES1    0.0000
     15 C4         2.4355    5.6353    1.7815 C.ar      1 RES1    0.0000
     16 C5         4.2299    3.8203    2.3792 C.3       1 RES1    0.0000
     17 C6         2.1588    8.0026    2.2137 C.ar      1 RES1    0.0000
     18 H4         2.2314    8.7427    2.8042 H         1 RES1    0.0000
     19 O7         4.9951    4.9157    4.3234 O.2       1 RES1    0.0000
     20 C7         4.9055    3.7222    0.9934 C.2       1 RES1    0.0000
     21 C8         2.5290    6.7335    2.6409 C.ar      1 RES1    0.0000
     22 H5         2.8489    6.6107    3.5267 H         1 RES1    0.0000
     23 C9         1.6831    8.1889    0.9231 C.ar      1 RES1    0.0000
     24 H6         1.4246    9.0562    0.6325 H         1 RES1    0.0000
     25 C10        4.4653    2.4760    3.0938 C.3       1 RES1    0.0000
     26 H7         4.3654    1.7511    2.4275 H         1 RES1    0.0000
     27 H8         5.4018    2.4562    3.4129 H         1 RES1    0.0000
     28 C11        3.5516    2.1629    4.2800 C.3       1 RES1    0.0000
     29 H9         3.6820    1.2208    4.5557 H         1 RES1    0.0000
     30 H10        3.7963    2.7414    5.0448 H         1 RES1    0.0000
     31 C12        1.1629    2.0364    5.0925 C.3       1 RES1    0.0000
     32 H11        0.2291    2.1574    4.8199 H         1 RES1    0.0000
     33 H12        1.3599    2.6242    5.8516 H         1 RES1    0.0000
     34 H13        1.3091    1.1036    5.3541 H         1 RES1    0.0000
     35 C13        1.9581    5.8378    0.4930 C.ar      1 RES1    0.0000
     36 H14        1.8849    5.0999   -0.1012 H         1 RES1    0.0000
     37 C14        7.0519    3.4593   -0.0238 C.3       1 RES1    0.0000
     38 H15        6.5294    3.1555   -0.8082 H         1 RES1    0.0000
     39 H16        7.8052    2.8312    0.1096 H         1 RES1    0.0000
     40 C15        1.5844    7.1120    0.0583 C.ar      1 RES1    0.0000
     41 H17        1.2642    7.2387   -0.8265 H         1 RES1    0.0000
     42 C16        7.5766    4.8449   -0.2638 C.3       1 RES1    0.0000
     43 H18        8.1821    4.8362   -1.0345 H         1 RES1    0.0000
     44 H19        8.0623    5.1526    0.5299 H         1 RES1    0.0000
     45 H20        6.8278    5.4515   -0.4442 H         1 RES1    0.0000
     46 O8        11.6695    0.2267    2.4236 O.2       2 RES2    0.0000
     47 O9        11.9542   -0.7282    4.3374 O.2       2 RES2    0.0000
     48 O10       10.2607   -3.0222    4.3985 O.3       2 RES2    0.0000
     49 H21       10.9950   -3.3840    4.2085 H         2 RES2    0.0000
     50 N3        11.2624   -0.4304    3.3860 N.pl3     2 RES2    0.0000
     51 O11        5.6171   -0.4364    3.5870 O.2       2 RES2    0.0000
     52 O12        7.3218    0.5761    2.7212 O.2       2 RES2    0.0000
     53 N4         6.8046   -0.1377    3.5682 N.pl3     2 RES2    0.0000
     54 O13        7.1608   -0.9025    7.0142 O.2       2 RES2    0.0000
     55 C17        9.4831    1.0718    5.0382 C.ar      2 RES2    0.0000
     56 C18        9.8209   -0.8632    3.3586 C.3       2 RES2    0.0000
     57 H22        9.3655   -0.4414    2.5737 H         2 RES2    0.0000
     58 C19        7.6572   -0.7599    4.6740 C.3       2 RES2    0.0000
     59 O14        6.5753    0.9610    5.8973 O.3       2 RES2    0.0000
     60 C20        8.2254   -2.7430    3.2249 C.3       2 RES2    0.0000
     61 H23        7.8005   -2.3058    2.4458 H         2 RES2    0.0000
     62 H24        8.1091   -3.7209    3.1261 H         2 RES2    0.0000
     63 C21        9.8578    1.3139    6.3618 C.ar      2 RES2    0.0000
     64 H25        9.9127    0.5889    6.9733 H         2 RES2    0.0000
     65 C22        9.1600   -0.3643    4.6556 C.3       2 RES2    0.0000
     66 H26        9.5753   -0.9170    5.3780 H         2 RES2    0.0000
     67 C23       10.4201   -2.8998    1.9703 C.3       2 RES2    0.0000
     68 H27       11.3747   -2.6857    2.0213 H         2 RES2    0.0000
     69 H28       10.0268   -2.4582    1.1892 H         2 RES2    0.0000
     70 H29       10.3064   -3.8694    1.8878 H         2 RES2    0.0000
     71 C24        9.7332    3.4304    4.5877 C.ar      2 RES2    0.0000
     72 H30        9.6952    4.1565    3.9765 H         2 RES2    0.0000
     73 C25        9.4421    2.1390    4.1455 C.ar      2 RES2    0.0000
     74 H31        9.2160    1.9884    3.2358 H         2 RES2    0.0000
     75 C26        6.3665    3.0882    6.9904 C.3       2 RES2    0.0000
     76 H32        5.8067    3.4162    6.2565 H         2 RES2    0.0000
     77 H33        7.3079    3.2727    6.7906 H         2 RES2    0.0000
     78 H34        6.1142    3.5422    7.8209 H         2 RES2    0.0000
     79 C27        7.0733   -0.2605    6.0044 C.2       2 RES2    0.0000
     80 C28        7.5279   -2.2791    4.5060 C.3       2 RES2    0.0000
     81 H35        7.9337   -2.7336    5.2866 H         2 RES2    0.0000
     82 H36        6.5696   -2.5275    4.4699 H         2 RES2    0.0000
     83 C29       10.1516    2.6030    6.7954 C.ar      2 RES2    0.0000
     84 H37       10.4030    2.7550    7.6987 H         2 RES2    0.0000
     85 C30       10.0766    3.6649    5.9090 C.ar      2 RES2    0.0000
     86 H38       10.2592    4.5491    6.2059 H         2 RES2    0.0000
     87 C31        9.7203   -2.4112    3.2368 C.3       2 RES2    0.0000
     88 C32        6.1691    1.6132    7.1476 C.3       2 RES2    0.0000
     89 H39        6.7167    1.2755    7.8997 H         2 RES2    0.0000
     90 H40        5.2183    1.4161    7.3402 H         2 RES2    0.0000
@<TRIPOS>BOND
     1    1    9 2
     2    2    9 2
     3    3   20 2
     4    4    7 2
     5    5    6 1
     6    7   16 1
     7    8   20 1
     8    9   11 1
     9   10    5 1
    10   11   10 1
    11   12   11 1
    12   13   11 1
    13   14   13 1
    14   15   13 1
    15   16   13 1
    16   17   18 1
    17   19    7 2
    18   20   16 1
    19   21   15 ar
    20   22   21 1
    21   23   17 ar
    22   24   23 1
    23   25   16 1
    24   26   25 1
    25   27   25 1
    26   28   10 1
    27   29   28 1
    28   30   28 1
    29   31   10 1
    30   32   31 1
    31   33   31 1
    32   34   31 1
    33   35   15 ar
    34   36   35 1
    35   37    8 1
    36   38   37 1
    37   39   37 1
    38   40   23 ar
    39   41   40 1
    40   42   37 1
    41   43   42 1
    42   44   42 1
    43   45   42 1
    44   46   50 2
    45   47   50 2
    46   48   49 1
    47   50   56 1
    48   51   53 2
    49   52   53 2
    50   53   58 1
    51   54   79 2
    52   55   63 ar
    53   56   57 1
    54   58   65 1
    55   59   79 1
    56   60   61 1
    57   62   60 1
    58   63   64 1
    59   65   55 1
    60   66   65 1
    61   67   68 1
    62   69   67 1
    63   70   67 1
    64   71   72 1
    65   73   55 ar
    66   74   73 1
    67   75   76 1
    68   77   75 1
    69   78   75 1
    70   79   58 1
    71   80   58 1
    72   81   80 1
    73   82   80 1
    74   83   63 ar
    75   84   83 1
    76   85   71 ar
    77   86   85 1
    78   87   48 1
    79   88   59 1
    80   89   88 1
    81   90   88 1
    82   17   21 ar
    83   25   28 1
    84   35   40 ar
    85   56   65 1
    86   56   87 1
    87   60   80 1
    88   60   87 1
    89   67   87 1
    90   71   73 ar
    91   75   88 1
    92   83   85 ar
@<TRIPOS>SUBSTRUCTURE
     1 RES1 1
     2 RES2 46

@<TRIPOS>CRYSIN
  12.4250    9.7662   14.2351  90.0000  99.0900  90.0000   4 1

