# MOL2 file generated by ConQuest
# Please check atom types

@<TRIPOS>MOLECULE
COYLAF02
    70    70     2
SMALL
NO_CHARGES
****
Generated from CSD

@<TRIPOS>ATOM
      1 O1         6.4049   11.2832    7.0245 O.3       1 RES1    0.0000
      2 N1         5.5267   12.0514    6.2355 N.2       1 RES1    0.0000
      3 C1         5.9316   11.8671    5.0109 C.2       1 RES1    0.0000
      4 C2         7.0688   10.9849    4.9951 C.2       1 RES1    0.0000
      5 N2         7.3534   10.6313    6.2195 N.2       1 RES1    0.0000
      6 N3         5.2977   12.4096    3.9203 N.3       1 RES1    0.0000
      7 H1         5.5206   12.1620    3.1044 H         1 RES1    0.0000
      8 C3         4.2570   13.3943    4.1333 C.3       1 RES1    0.0000
      9 H2         4.6103   14.2995    3.9449 H         1 RES1    0.0000
     10 H3         3.9613   13.3689    5.0769 H         1 RES1    0.0000
     11 C4         3.0817   13.1052    3.2230 C.3       1 RES1    0.0000
     12 N4         2.7309   11.6310    3.2309 N.pl3     1 RES1    0.0000
     13 O2         2.6088   11.1565    4.3383 O.2       1 RES1    0.0000
     14 O3         2.6278   11.0586    2.1636 O.2       1 RES1    0.0000
     15 N5         1.8439   13.8791    3.6720 N.pl3     1 RES1    0.0000
     16 O4         0.7917   13.2883    3.7610 O.2       1 RES1    0.0000
     17 O5         2.0437   15.0550    3.8837 O.2       1 RES1    0.0000
     18 N6         3.2915   13.5233    1.7824 N.pl3     1 RES1    0.0000
     19 O6         2.3003   13.7778    1.1383 O.2       1 RES1    0.0000
     20 O7         4.4582   13.5705    1.4128 O.2       1 RES1    0.0000
     21 N7         7.7941   10.6026    3.8986 N.3       1 RES1    0.0000
     22 H4         7.6197   10.9342    3.1022 H         1 RES1    0.0000
     23 C5         8.8575    9.6351    4.0848 C.3       1 RES1    0.0000
     24 H5         8.5299    8.7310    3.8478 H         1 RES1    0.0000
     25 H6         9.1348    9.6236    5.0339 H         1 RES1    0.0000
     26 C6        10.0438    9.9921    3.2124 C.3       1 RES1    0.0000
     27 N8         9.8463    9.6605    1.7388 N.pl3     1 RES1    0.0000
     28 O8         8.6980    9.4693    1.3773 O.2       1 RES1    0.0000
     29 O9        10.8560    9.5960    1.0619 O.2       1 RES1    0.0000
     30 N9        10.3530   11.4744    3.3288 N.pl3     1 RES1    0.0000
     31 O10       10.5387   11.8591    4.4628 O.2       1 RES1    0.0000
     32 O11       10.3517   12.1378    2.3087 O.2       1 RES1    0.0000
     33 N10       11.2669    9.1986    3.6094 N.pl3     1 RES1    0.0000
     34 O12       11.0757    7.9997    3.6989 O.2       1 RES1    0.0000
     35 O13       12.3237    9.7825    3.7741 O.2       1 RES1    0.0000
     36 O14        5.8500   11.6667   12.6655 O.3       2 RES2    0.0000
     37 N11        5.0103   10.9112   11.8338 N.2       2 RES2    0.0000
     38 C7         5.4691   11.1047   10.6266 C.2       2 RES2    0.0000
     39 C8         6.6125   11.9892   10.6833 C.2       2 RES2    0.0000
     40 N12        6.8419   12.3347   11.9177 N.2       2 RES2    0.0000
     41 N13        4.8962   10.5968    9.4956 N.3       2 RES2    0.0000
     42 H7         5.1648   10.8571    8.6987 H         2 RES2    0.0000
     43 C9         3.8387    9.6178    9.6397 C.3       2 RES2    0.0000
     44 H8         3.5504    9.5775   10.5853 H         2 RES2    0.0000
     45 H9         4.1760    8.7241    9.3810 H         2 RES2    0.0000
     46 C10        2.6609    9.9875    8.7658 C.3       2 RES2    0.0000
     47 N14        2.3579   11.4606    8.8715 N.pl3     2 RES2    0.0000
     48 O15        2.1825   11.8487   10.0073 O.2       2 RES2    0.0000
     49 O16        2.3751   12.1378    7.8516 O.2       2 RES2    0.0000
     50 N15        1.4157    9.2055    9.1736 N.pl3     2 RES2    0.0000
     51 O17        0.3631    9.8056    9.2875 O.2       2 RES2    0.0000
     52 O18        1.6034    8.0181    9.3155 O.2       2 RES2    0.0000
     53 N16        2.8425    9.6512    7.2913 N.pl3     2 RES2    0.0000
     54 O19        1.8328    9.5983    6.6144 O.2       2 RES2    0.0000
     55 O20        3.9908    9.4497    6.9266 O.2       2 RES2    0.0000
     56 N17        7.3829   12.3934    9.6228 N.3       2 RES2    0.0000
     57 H10        7.2443   12.0744    8.8139 H         2 RES2    0.0000
     58 C11        8.4343   13.3666    9.8727 C.3       2 RES2    0.0000
     59 H11        8.7115   13.3217   10.8225 H         2 RES2    0.0000
     60 H12        8.0969   14.2788    9.6906 H         2 RES2    0.0000
     61 C12        9.6242   13.0718    8.9764 C.3       2 RES2    0.0000
     62 N18        9.4120   13.4749    7.5209 N.pl3     2 RES2    0.0000
     63 O21        8.2564   13.5256    7.1413 O.2       2 RES2    0.0000
     64 O22       10.4155   13.7075    6.8751 O.2       2 RES2    0.0000
     65 N19        9.9739   11.5976    9.0042 N.pl3     2 RES2    0.0000
     66 O23       10.1076   11.1392   10.1226 O.2       2 RES2    0.0000
     67 O24       10.0585   11.0033    7.9483 O.2       2 RES2    0.0000
     68 N20       10.8486   13.8596    9.4120 N.pl3     2 RES2    0.0000
     69 O25       10.6425   15.0424    9.5584 O.2       2 RES2    0.0000
     70 O26       11.9012   13.2733    9.5412 O.2       2 RES2    0.0000
@<TRIPOS>BOND
     1    1    2 1
     2    2    3 2
     3    3    4 1
     4    4    5 2
     5    5    1 1
     6    6    3 1
     7    7    6 1
     8    8    6 1
     9    9    8 1
    10   10    8 1
    11   11    8 1
    12   12   11 1
    13   13   12 2
    14   14   12 2
    15   15   11 1
    16   16   15 2
    17   17   15 2
    18   18   11 1
    19   19   18 2
    20   20   18 2
    21   21    4 1
    22   22   21 1
    23   23   21 1
    24   24   23 1
    25   25   23 1
    26   26   23 1
    27   27   26 1
    28   28   27 2
    29   29   27 2
    30   30   26 1
    31   31   30 2
    32   32   30 2
    33   33   26 1
    34   34   33 2
    35   35   33 2
    36   36   37 1
    37   37   38 2
    38   38   39 1
    39   39   40 2
    40   40   36 1
    41   41   38 1
    42   42   41 1
    43   43   41 1
    44   44   43 1
    45   45   43 1
    46   46   43 1
    47   47   46 1
    48   48   47 2
    49   49   47 2
    50   50   46 1
    51   51   50 2
    52   52   50 2
    53   53   46 1
    54   54   53 2
    55   55   53 2
    56   56   39 1
    57   57   56 1
    58   58   56 1
    59   59   58 1
    60   60   58 1
    61   61   58 1
    62   62   61 1
    63   63   62 2
    64   64   62 2
    65   65   61 1
    66   66   65 2
    67   67   65 2
    68   68   61 1
    69   69   68 2
    70   70   68 2
@<TRIPOS>SUBSTRUCTURE
     1 RES1 1
     2 RES2 36

@<TRIPOS>CRYSIN
  12.2680   11.5170   22.5940  90.0000  90.0000  90.0000  33 1

