# MOL2 file generated by ConQuest
# Please check atom types

@<TRIPOS>MOLECULE
COYLAF03
    70    70     2
SMALL
NO_CHARGES
****
Generated from CSD

@<TRIPOS>ATOM
      1 O1        10.7918    4.9451    7.2762 O.2       1 RES1    0.0000
      2 O2        11.1045    2.7932    7.1242 O.2       1 RES1    0.0000
      3 O3        12.3366    3.0370    4.2304 O.2       1 RES1    0.0000
      4 O4        10.6060    1.7593    4.4025 O.2       1 RES1    0.0000
      5 O5         8.3639    3.5223    6.1421 O.2       1 RES1    0.0000
      6 O6         8.5309    3.7210    3.9924 O.2       1 RES1    0.0000
      7 O7         8.0265    7.3201    2.1452 O.3       1 RES1    0.0000
      8 O8         9.7031   11.1154    4.4325 O.2       1 RES1    0.0000
      9 O9         7.9407   11.7080    3.3293 O.2       1 RES1    0.0000
     10 O10        6.8967   13.3124    5.2843 O.2       1 RES1    0.0000
     11 O11        5.5646   11.8750    6.1449 O.2       1 RES1    0.0000
     12 O12        9.1857   12.3005    6.8482 O.2       1 RES1    0.0000
     13 O13        8.5121   10.3778    7.5832 O.2       1 RES1    0.0000
     14 N1        10.8305    3.8990    6.6741 N.pl3     1 RES1    0.0000
     15 N2        11.1891    2.7993    4.5542 N.pl3     1 RES1    0.0000
     16 N3         8.9800    3.6954    5.1201 N.pl3     1 RES1    0.0000
     17 N4         9.9017    6.3545    4.9006 N.pl3     1 RES1    0.0000
     18 H1         9.9934    6.7300    5.6397 H         1 RES1    0.0000
     19 N5         9.0059    6.5142    2.7257 N.2       1 RES1    0.0000
     20 N6         7.4892    8.2259    3.0736 N.2       1 RES1    0.0000
     21 N7         7.9795    8.6819    5.3428 N.pl3     1 RES1    0.0000
     22 H2         8.1946    8.2418    6.0167 H         1 RES1    0.0000
     23 N8         8.5168   11.3642    4.3241 N.pl3     1 RES1    0.0000
     24 N9         6.6039   12.2152    5.6653 N.pl3     1 RES1    0.0000
     25 N10        8.5462   11.2727    6.7717 N.pl3     1 RES1    0.0000
     26 C1        10.4720    3.9636    5.2020 C.3       1 RES1    0.0000
     27 C2        10.8376    5.2986    4.5542 C.3       1 RES1    0.0000
     28 H3        11.7276    5.5571    4.8383 H         1 RES1    0.0000
     29 H4        10.8529    5.1901    3.5911 H         1 RES1    0.0000
     30 C3         9.0799    6.9092    3.9687 C.2       1 RES1    0.0000
     31 C4         8.1394    7.9821    4.1852 C.2       1 RES1    0.0000
     32 C5         6.9978    9.7329    5.4525 C.3       1 RES1    0.0000
     33 H5         6.4558    9.5854    6.2429 H         1 RES1    0.0000
     34 H6         6.4111    9.7061    4.6789 H         1 RES1    0.0000
     35 C6         7.6538   11.1008    5.5393 C.3       1 RES1    0.0000
     36 O14        4.1443    8.8977   -2.0667 O.2       2 RES2    0.0000
     37 O15        2.7464    7.9650   -0.6906 O.2       2 RES2    0.0000
     38 O16        5.4552    6.4032   -0.9192 O.2       2 RES2    0.0000
     39 O17        7.0930    7.7505   -0.4033 O.2       2 RES2    0.0000
     40 O18        4.8310    6.9080    1.7841 O.2       2 RES2    0.0000
     41 O19        3.5306    8.6405    1.8582 O.2       2 RES2    0.0000
     42 O20        4.3595   12.2371    3.4099 O.3       2 RES2    0.0000
     43 O21        0.0658   16.5641    1.1553 O.2       2 RES2    0.0000
     44 O22        1.6248   17.8296    0.3794 O.2       2 RES2    0.0000
     45 O23        3.9339   16.0459    0.4119 O.2       2 RES2    0.0000
     46 O24        3.3649   16.0044   -1.6596 O.2       2 RES2    0.0000
     47 O25        0.3939   16.0947   -1.8860 O.2       2 RES2    0.0000
     48 O26        0.9323   14.0037   -1.6144 O.2       2 RES2    0.0000
     49 N11        3.8081    8.4430   -0.9924 N.pl3     2 RES2    0.0000
     50 N12        5.9196    7.4444   -0.4649 N.pl3     2 RES2    0.0000
     51 N13        4.3807    7.9516    1.3520 N.pl3     2 RES2    0.0000
     52 N14        4.5253   10.9082    0.2001 N.pl3     2 RES2    0.0000
     53 H7         4.3618   11.3142   -0.5170 H         2 RES2    0.0000
     54 N15        4.8780   11.3191    2.4913 N.2       2 RES2    0.0000
     55 N16        3.4354   13.0893    2.7949 N.2       2 RES2    0.0000
     56 N17        2.6771   13.3356    0.5584 N.pl3     2 RES2    0.0000
     57 H8         2.3984   12.8138   -0.0452 H         2 RES2    0.0000
     58 N18        1.0816   16.7591    0.5431 N.pl3     2 RES2    0.0000
     59 N19        3.1497   15.8996   -0.4845 N.pl3     2 RES2    0.0000
     60 N20        0.9406   15.1766   -1.3001 N.pl3     2 RES2    0.0000
     61 C7         4.9262    8.4698    0.0401 C.3       2 RES2    0.0000
     62 C8         5.5328    9.8743    0.1377 C.3       2 RES2    0.0000
     63 H9         6.0901    9.9255    0.9306 H         2 RES2    0.0000
     64 H10        6.0995   10.0304   -0.6333 H         2 RES2    0.0000
     65 C9         4.3007   11.6019    1.3701 C.2       2 RES2    0.0000
     66 C10        3.4037   12.7126    1.5461 C.2       2 RES2    0.0000
     67 C11        1.7518   14.3890    0.9657 C.3       2 RES2    0.0000
     68 H11        2.0163   14.7328    1.8332 H         2 RES2    0.0000
     69 H12        0.8583   14.0196    1.0491 H         2 RES2    0.0000
     70 C12        1.7353   15.5241   -0.0433 C.3       2 RES2    0.0000
@<TRIPOS>BOND
     1    1   14 2
     2    2   14 2
     3    3   15 2
     4    4   15 2
     5    5   16 2
     6    6   16 2
     7    7   19 1
     8    8   23 2
     9    9   23 2
    10   10   24 2
    11   11   24 2
    12   12   25 2
    13   13   25 2
    14   14   26 1
    15   15   26 1
    16   16   26 1
    17   17   18 1
    18   19   30 2
    19   20    7 1
    20   21   22 1
    21   23   35 1
    22   24   35 1
    23   25   35 1
    24   26   27 1
    25   27   17 1
    26   28   27 1
    27   29   27 1
    28   30   17 1
    29   31   20 2
    30   32   21 1
    31   33   32 1
    32   34   32 1
    33   35   32 1
    34   36   49 2
    35   37   49 2
    36   38   50 2
    37   39   50 2
    38   40   51 2
    39   41   51 2
    40   42   54 1
    41   43   58 2
    42   44   58 2
    43   45   59 2
    44   46   59 2
    45   47   60 2
    46   48   60 2
    47   49   61 1
    48   50   61 1
    49   51   61 1
    50   52   53 1
    51   54   65 2
    52   55   42 1
    53   56   57 1
    54   58   70 1
    55   59   70 1
    56   60   70 1
    57   61   62 1
    58   62   52 1
    59   63   62 1
    60   64   62 1
    61   65   52 1
    62   66   55 2
    63   67   56 1
    64   68   67 1
    65   69   67 1
    66   70   67 1
    67   21   31 1
    68   30   31 1
    69   56   66 1
    70   65   66 1
@<TRIPOS>SUBSTRUCTURE
     1 RES1 1
     2 RES2 36

@<TRIPOS>CRYSIN
  11.7570   12.1920   21.5420  90.0000  90.0000  90.0000  19 1

