# MOL2 file generated by ConQuest
# Please check atom types

@<TRIPOS>MOLECULE
COYLAF
    70    70     2
SMALL
NO_CHARGES
****
Generated from CSD

@<TRIPOS>ATOM
      1 N1        10.9614    5.8201   10.4182 N.2       1 RES1    0.0000
      2 O1        10.8688    4.7994   11.3834 O.3       1 RES1    0.0000
      3 N2        11.1813    3.5521   10.8210 N.2       1 RES1    0.0000
      4 C1        11.4542    3.8103    9.5768 C.2       1 RES1    0.0000
      5 C2        11.3155    5.2024    9.3293 C.2       1 RES1    0.0000
      6 N3        11.8824    2.8760    8.6599 N.3       1 RES1    0.0000
      7 H1        11.5425    2.9580    7.8646 H         1 RES1    0.0000
      8 C3        11.8567    1.4790    9.0570 C.3       1 RES1    0.0000
      9 H2        11.0075    1.0646    8.7589 H         1 RES1    0.0000
     10 H3        11.9020    1.4122   10.0436 H         1 RES1    0.0000
     11 C4        13.0186    0.7470    8.4439 C.3       1 RES1    0.0000
     12 N4        13.2170   -0.6066    9.0795 N.pl3     1 RES1    0.0000
     13 O2        14.3125   -0.9242    9.4699 O.2       1 RES1    0.0000
     14 O3        12.2012   -1.2709    9.1200 O.2       1 RES1    0.0000
     15 N5        12.8168    0.4462    6.9680 N.pl3     1 RES1    0.0000
     16 O4        13.4556   -0.4947    6.5135 O.2       1 RES1    0.0000
     17 O5        12.0118    1.1732    6.3785 O.2       1 RES1    0.0000
     18 N6        14.2901    1.5642    8.5542 N.pl3     1 RES1    0.0000
     19 O6        14.5900    1.8717    9.6735 O.2       1 RES1    0.0000
     20 O7        14.8262    1.8784    7.4933 O.2       1 RES1    0.0000
     21 N7        11.4714    5.8220    8.1031 N.3       1 RES1    0.0000
     22 H4        11.9307    5.4314    7.4697 H         1 RES1    0.0000
     23 C5        11.3751    7.2614    8.0254 C.3       1 RES1    0.0000
     24 H5        12.2608    7.6457    7.8027 H         1 RES1    0.0000
     25 H6        11.0921    7.6257    8.9018 H         1 RES1    0.0000
     26 C6        10.3678    7.6524    6.9612 C.3       1 RES1    0.0000
     27 N8         9.1178    6.7801    7.0782 N.pl3     1 RES1    0.0000
     28 O8         8.5039    6.9355    8.1008 O.2       1 RES1    0.0000
     29 O9         8.8823    5.9812    6.2019 O.2       1 RES1    0.0000
     30 N9         9.9665    9.1097    7.0906 N.pl3     1 RES1    0.0000
     31 O10        8.9072    9.4189    6.7340 O.2       1 RES1    0.0000
     32 O11       10.8202    9.8303    7.5507 O.2       1 RES1    0.0000
     33 N10       10.9077    7.4937    5.5427 N.pl3     1 RES1    0.0000
     34 O12       12.0186    7.0419    5.4324 O.2       1 RES1    0.0000
     35 O13       10.1872    7.8764    4.6506 O.2       1 RES1    0.0000
     36 N11       12.1935    4.1974   16.2860 N.2       2 RES2    0.0000
     37 O14       11.0478    4.1292   17.0926 O.3       2 RES2    0.0000
     38 N12        9.8722    4.0667   16.3231 N.2       2 RES2    0.0000
     39 C7        10.2921    4.0761   15.0902 C.2       2 RES2    0.0000
     40 C8        11.7284    4.1479   15.0598 C.2       2 RES2    0.0000
     41 N13        9.4821    3.9818   13.9877 N.3       2 RES2    0.0000
     42 H7         9.8338    4.3953   13.2857 H         2 RES2    0.0000
     43 C9         8.0468    3.9541   14.1542 C.3       2 RES2    0.0000
     44 H8         7.6450    4.7696   13.7627 H         2 RES2    0.0000
     45 H9         7.8185    3.9273   15.1172 H         2 RES2    0.0000
     46 C10        7.4964    2.7257   13.4612 C.3       2 RES2    0.0000
     47 N14        6.0536    2.4567   13.8313 N.pl3     2 RES2    0.0000
     48 O15        5.3401    3.4458   13.8246 O.2       2 RES2    0.0000
     49 O16        5.7261    1.3219   14.1081 O.2       2 RES2    0.0000
     50 N15        7.4697    2.8695   11.9358 N.pl3     2 RES2    0.0000
     51 O17        6.7996    2.0372   11.3463 O.2       2 RES2    0.0000
     52 O18        8.0958    3.7803   11.4611 O.2       2 RES2    0.0000
     53 N16        8.3467    1.5119   13.7897 N.pl3     2 RES2    0.0000
     54 O19        8.4290    1.2646   14.9687 O.2       2 RES2    0.0000
     55 O20        8.9177    0.9522   12.8706 O.2       2 RES2    0.0000
     56 N17       12.4964    4.1772   13.9315 N.3       2 RES2    0.0000
     57 H10       12.1019    3.8270   13.2295 H         2 RES2    0.0000
     58 C11       13.9411    4.2331   14.0687 C.3       2 RES2    0.0000
     59 H11       14.3383    3.3892   13.7346 H         2 RES2    0.0000
     60 H12       14.1793    4.3267   15.0249 H         2 RES2    0.0000
     61 C12       14.5103    5.4030   13.2891 C.3       2 RES2    0.0000
     62 N18       13.6144    6.6291   13.3544 N.pl3     2 RES2    0.0000
     63 O21       13.2374    6.9255   14.4714 O.2       2 RES2    0.0000
     64 O22       13.3416    7.1933   12.3093 O.2       2 RES2    0.0000
     65 N19       15.8830    5.7623   13.7931 N.pl3     2 RES2    0.0000
     66 O23       16.1273    6.9072   14.0721 O.2       2 RES2    0.0000
     67 O24       16.6326    4.7965   13.8853 O.2       2 RES2    0.0000
     68 N20       14.7038    5.0871   11.8087 N.pl3     2 RES2    0.0000
     69 O25       15.6213    5.6520   11.2338 O.2       2 RES2    0.0000
     70 O26       13.9097    4.3047   11.3328 O.2       2 RES2    0.0000
@<TRIPOS>BOND
     1    1    2 1
     2    2    3 1
     3    3    4 2
     4    4    5 1
     5    5    1 2
     6    6    4 1
     7    7    6 1
     8    8    6 1
     9    9    8 1
    10   10    8 1
    11   11    8 1
    12   12   11 1
    13   13   12 2
    14   14   12 2
    15   15   11 1
    16   16   15 2
    17   17   15 2
    18   18   11 1
    19   19   18 2
    20   20   18 2
    21   21    5 1
    22   22   21 1
    23   23   21 1
    24   24   23 1
    25   25   23 1
    26   26   23 1
    27   27   26 1
    28   28   27 2
    29   29   27 2
    30   30   26 1
    31   31   30 2
    32   32   30 2
    33   33   26 1
    34   34   33 2
    35   35   33 2
    36   36   37 1
    37   37   38 1
    38   38   39 2
    39   39   40 1
    40   40   36 2
    41   41   39 1
    42   42   41 1
    43   43   41 1
    44   44   43 1
    45   45   43 1
    46   46   43 1
    47   47   46 1
    48   48   47 2
    49   49   47 2
    50   50   46 1
    51   51   50 2
    52   52   50 2
    53   53   46 1
    54   54   53 2
    55   55   53 2
    56   56   40 1
    57   57   56 1
    58   58   56 1
    59   59   58 1
    60   60   58 1
    61   61   58 1
    62   62   61 1
    63   63   62 2
    64   64   62 2
    65   65   61 1
    66   66   65 2
    67   67   65 2
    68   68   61 1
    69   69   68 2
    70   70   68 2
@<TRIPOS>SUBSTRUCTURE
     1 RES1 1
     2 RES2 36

@<TRIPOS>CRYSIN
  16.8720   16.7120   11.3420  90.0000  97.3200  90.0000   9 1

