# MOL2 file generated by ConQuest
# Please check atom types

@<TRIPOS>MOLECULE
COYPOW
   103   107     1
SMALL
NO_CHARGES
****
Generated from CSD

@<TRIPOS>ATOM
      1 O1         0.8959   11.4743    8.6639 O.2       1 RES1    0.0000
      2 O2         1.8583   10.0251    9.9147 O.2       1 RES1    0.0000
      3 N1         1.6698   10.5598    8.8290 N.pl3     1 RES1    0.0000
      4 N2         9.6815   12.2408    4.5840 N.2       1 RES1    0.0000
      5 N3        11.0497   14.5236    2.2546 N.ar      1 RES1    0.0000
      6 N4         2.6979    9.1790   -0.8660 N.2       1 RES1    0.0000
      7 N5         3.4650    8.4691   -4.2393 N.ar      1 RES1    0.0000
      8 C1         2.4321   10.0589    7.6615 C.ar      1 RES1    0.0000
      9 C2         3.4206    9.1320    7.8726 C.ar      1 RES1    0.0000
     10 H1         3.5662    8.7739    8.7170 H         1 RES1    0.0000
     11 C3         4.1945    8.7406    6.7898 C.ar      1 RES1    0.0000
     12 H2         4.8711    8.1172    6.9233 H         1 RES1    0.0000
     13 C4         3.9951    9.2458    5.5217 C.ar      1 RES1    0.0000
     14 C5         2.9458   10.1348    5.3480 C.ar      1 RES1    0.0000
     15 H3         2.7564   10.4521    4.4949 H         1 RES1    0.0000
     16 C6         2.1660   10.5631    6.4222 C.ar      1 RES1    0.0000
     17 H4         1.4807   11.1788    6.2972 H         1 RES1    0.0000
     18 C7         4.9869    8.9137    4.4102 C.3       1 RES1    0.0000
     19 H5         5.2727    7.9869    4.5553 H         1 RES1    0.0000
     20 C8         6.2425    9.7882    4.5366 C.ar      1 RES1    0.0000
     21 C9         7.4787    9.2702    4.1819 C.ar      1 RES1    0.0000
     22 H6         7.5414    8.3789    3.9191 H         1 RES1    0.0000
     23 C10        8.6314   10.0579    4.2092 C.ar      1 RES1    0.0000
     24 C11        9.9842    9.4936    3.8013 C.3       1 RES1    0.0000
     25 H7        10.6621   10.0705    4.2106 H         1 RES1    0.0000
     26 C12       10.2455    8.0911    4.3126 C.3       1 RES1    0.0000
     27 H8         9.5823    7.4927    3.9593 H         1 RES1    0.0000
     28 H9        10.2032    8.0873    5.2719 H         1 RES1    0.0000
     29 H10       11.1169    7.8054    4.0296 H         1 RES1    0.0000
     30 C13       10.2012    9.5657    2.3150 C.3       1 RES1    0.0000
     31 H11       10.1394   10.4794    2.0263 H         1 RES1    0.0000
     32 H12        9.5329    9.0420    1.8683 H         1 RES1    0.0000
     33 H13       11.0724    9.2219    2.1024 H         1 RES1    0.0000
     34 C14        8.5046   11.4039    4.5696 C.ar      1 RES1    0.0000
     35 C15        7.2783   11.9581    4.9487 C.ar      1 RES1    0.0000
     36 C16        7.1284   13.4255    5.3408 C.3       1 RES1    0.0000
     37 H14        8.0250   13.7696    5.5361 H         1 RES1    0.0000
     38 C17        6.5733   14.2386    4.1776 C.3       1 RES1    0.0000
     39 H15        5.7101   13.8982    3.9320 H         1 RES1    0.0000
     40 H16        7.1692   14.1722    3.4279 H         1 RES1    0.0000
     41 H17        6.4909   15.1591    4.4404 H         1 RES1    0.0000
     42 C18        6.2824   13.6403    6.5758 C.3       1 RES1    0.0000
     43 H18        6.6713   13.1673    7.3154 H         1 RES1    0.0000
     44 H19        5.3947   13.3109    6.4164 H         1 RES1    0.0000
     45 H20        6.2453   14.5779    6.7797 H         1 RES1    0.0000
     46 C19        6.1617   11.1114    4.9329 C.ar      1 RES1    0.0000
     47 H21        5.3374   11.4515    5.1972 H         1 RES1    0.0000
     48 C20        9.8863   12.9711    3.5845 C.2       1 RES1    0.0000
     49 H22        9.2817   12.9130    2.8793 H         1 RES1    0.0000
     50 C21       11.0090   13.9106    3.4423 C.ar      1 RES1    0.0000
     51 C22       11.9321   14.1145    4.4576 C.ar      1 RES1    0.0000
     52 H23       11.8673   13.6654    5.2690 H         1 RES1    0.0000
     53 C23       12.9580   15.0193    4.2048 C.ar      1 RES1    0.0000
     54 H24       13.6042   15.1945    4.8511 H         1 RES1    0.0000
     55 C24       12.9990   15.6548    2.9770 C.ar      1 RES1    0.0000
     56 H25       13.6735   16.2684    2.7975 H         1 RES1    0.0000
     57 C25       12.0454   15.3819    2.0120 C.ar      1 RES1    0.0000
     58 C26       12.0470   16.0183    0.6448 C.3       1 RES1    0.0000
     59 H26       11.9880   15.3334   -0.0258 H         1 RES1    0.0000
     60 H27       12.8594   16.5163    0.5242 H         1 RES1    0.0000
     61 H28       11.2945   16.6092    0.5673 H         1 RES1    0.0000
     62 C27        4.4023    8.9759    3.0086 C.ar      1 RES1    0.0000
     63 C28        3.8069    7.8384    2.4284 C.ar      1 RES1    0.0000
     64 H29        3.7774    7.0483    2.9181 H         1 RES1    0.0000
     65 C29        3.2643    7.8570    1.1517 C.ar      1 RES1    0.0000
     66 C30        2.6638    6.5960    0.5515 C.3       1 RES1    0.0000
     67 H30        2.2251    6.8560   -0.2858 H         1 RES1    0.0000
     68 C31        1.5993    5.9838    1.4418 C.3       1 RES1    0.0000
     69 H31        0.9028    6.6254    1.5969 H         1 RES1    0.0000
     70 H32        1.9910    5.7281    2.2805 H         1 RES1    0.0000
     71 H33        1.2297    5.2084    1.0124 H         1 RES1    0.0000
     72 C32        3.7115    5.5910    0.2039 C.3       1 RES1    0.0000
     73 H34        4.1823    5.3326    0.9995 H         1 RES1    0.0000
     74 H35        4.3288    5.9753   -0.4222 H         1 RES1    0.0000
     75 H36        3.2965    4.8195   -0.1867 H         1 RES1    0.0000
     76 C33        3.3092    9.0540    0.4193 C.ar      1 RES1    0.0000
     77 C34        3.8796   10.2233    0.9751 C.ar      1 RES1    0.0000
     78 C35        3.9235   11.5201    0.1738 C.3       1 RES1    0.0000
     79 H37        3.2659   11.4389   -0.5471 H         1 RES1    0.0000
     80 C36        5.2499   11.7179   -0.4595 C.3       1 RES1    0.0000
     81 H38        5.4441   10.9723   -1.0340 H         1 RES1    0.0000
     82 H39        5.9240   11.7828    0.2212 H         1 RES1    0.0000
     83 H40        5.2389   12.5256   -0.9780 H         1 RES1    0.0000
     84 C37        3.5508   12.7187    0.9751 C.3       1 RES1    0.0000
     85 H41        4.1730   12.8252    1.6989 H         1 RES1    0.0000
     86 H42        2.6652   12.6048    1.3284 H         1 RES1    0.0000
     87 H43        3.5750   13.4974    0.4150 H         1 RES1    0.0000
     88 C38        4.4149   10.1397    2.2345 C.ar      1 RES1    0.0000
     89 H44        4.8086   10.9011    2.5950 H         1 RES1    0.0000
     90 C39        3.3078    8.7950   -1.8971 C.2       1 RES1    0.0000
     91 H45        4.1246    8.3591   -1.8052 H         1 RES1    0.0000
     92 C40        2.7597    9.0190   -3.2427 C.ar      1 RES1    0.0000
     93 C41        3.0463    8.6907   -5.4901 C.ar      1 RES1    0.0000
     94 C42        3.8670    8.0896   -6.5959 C.3       1 RES1    0.0000
     95 H46        4.1524    8.7839   -7.1948 H         1 RES1    0.0000
     96 H47        3.3359    7.4498   -7.0770 H         1 RES1    0.0000
     97 H48        4.6355    7.6532   -6.2240 H         1 RES1    0.0000
     98 C43        1.9121    9.4305   -5.7616 C.ar      1 RES1    0.0000
     99 H49        1.6405    9.5656   -6.6419 H         1 RES1    0.0000
    100 C44        1.1965    9.9584   -4.7391 C.ar      1 RES1    0.0000
    101 H50        0.4321   10.4587   -4.9100 H         1 RES1    0.0000
    102 C45        1.6136    9.7491   -3.4466 C.ar      1 RES1    0.0000
    103 H51        1.1318   10.0926   -2.7300 H         1 RES1    0.0000
@<TRIPOS>BOND
     1    1    3 2
     2    2    3 2
     3    3    8 1
     4    4   34 1
     5    5   50 ar
     6    6   76 1
     7    7   92 ar
     8    8    9 ar
     9    9   10 1
    10   11    9 ar
    11   12   11 1
    12   13   11 ar
    13   14   13 ar
    14   15   14 1
    15   16    8 ar
    16   17   16 1
    17   18   13 1
    18   19   18 1
    19   20   18 1
    20   21   20 ar
    21   22   21 1
    22   23   21 ar
    23   24   23 1
    24   25   24 1
    25   26   24 1
    26   27   26 1
    27   28   26 1
    28   29   26 1
    29   30   24 1
    30   31   30 1
    31   32   30 1
    32   33   30 1
    33   34   23 ar
    34   35   34 ar
    35   36   35 1
    36   37   36 1
    37   38   36 1
    38   39   38 1
    39   40   38 1
    40   41   38 1
    41   42   36 1
    42   43   42 1
    43   44   42 1
    44   45   42 1
    45   46   20 ar
    46   47   46 1
    47   48    4 2
    48   49   48 1
    49   50   48 1
    50   51   50 ar
    51   52   51 1
    52   53   51 ar
    53   54   53 1
    54   55   53 ar
    55   56   55 1
    56   57    5 ar
    57   58   57 1
    58   59   58 1
    59   60   58 1
    60   61   58 1
    61   62   18 1
    62   63   62 ar
    63   64   63 1
    64   65   63 ar
    65   66   65 1
    66   67   66 1
    67   68   66 1
    68   69   68 1
    69   70   68 1
    70   71   68 1
    71   72   66 1
    72   73   72 1
    73   74   72 1
    74   75   72 1
    75   76   65 ar
    76   77   76 ar
    77   78   77 1
    78   79   78 1
    79   80   78 1
    80   81   80 1
    81   82   80 1
    82   83   80 1
    83   84   78 1
    84   85   84 1
    85   86   84 1
    86   87   84 1
    87   88   62 ar
    88   89   88 1
    89   90    6 2
    90   91   90 1
    91   92   90 1
    92   93    7 ar
    93   94   93 1
    94   95   94 1
    95   96   94 1
    96   97   94 1
    97   98   93 ar
    98   99   98 1
    99  100   98 ar
   100  101  100 1
   101  102   92 ar
   102  103  102 1
   103   14   16 ar
   104   35   46 ar
   105   55   57 ar
   106   77   88 ar
   107  100  102 ar
@<TRIPOS>SUBSTRUCTURE
     1 RES1 1

@<TRIPOS>CRYSIN
  10.3608   13.8950   15.2480  85.9600  70.6760  88.0100   2 1

