# MOL2 file generated by ConQuest
# Please check atom types

@<TRIPOS>MOLECULE
COZCOK
    97   100     1
SMALL
NO_CHARGES
****
Generated from CSD

@<TRIPOS>ATOM
      1 O1         6.4499    6.3910    5.4895 O.3       1 RES1    0.0000
      2 N1         8.1124    5.0942    4.7345 N.am      1 RES1    0.0000
      3 C1         6.3728    5.1916    6.2225 C.3       1 RES1    0.0000
      4 H1         5.4538    4.8860    6.2784 H         1 RES1    0.0000
      5 H2         6.7126    5.3205    7.1222 H         1 RES1    0.0000
      6 O2         9.0042    3.3879    3.5626 O.2       1 RES1    0.0000
      7 N2        10.1742   -2.9556    4.2478 N.pl3     1 RES1    0.0000
      8 C2         7.2137    4.1913    5.4835 C.3       1 RES1    0.0000
      9 H3         6.6469    3.7047    4.8482 H         1 RES1    0.0000
     10 O3         9.7639    5.5242    3.3152 O.3       1 RES1    0.0000
     11 C3         7.9704    3.1729    6.3632 C.3       1 RES1    0.0000
     12 H4         8.5780    2.6591    5.7917 H         1 RES1    0.0000
     13 N3         7.7379   -2.1726    0.1007 N.pl3     1 RES1    0.0000
     14 O4         7.8717    1.3081    7.7894 O.3       1 RES1    0.0000
     15 C4         7.0486    2.2178    7.0703 C.3       1 RES1    0.0000
     16 H5         6.5094    2.7248    7.7136 H         1 RES1    0.0000
     17 O5         8.7393    3.8608    7.3396 O.3       1 RES1    0.0000
     18 C5         6.1171    1.4122    6.1916 C.3       1 RES1    0.0000
     19 H6         5.5484    2.0164    5.6700 H         1 RES1    0.0000
     20 O6         6.9798    0.6608    5.3030 O.3       1 RES1    0.0000
     21 C6         5.2637    0.4639    6.9736 C.3       1 RES1    0.0000
     22 H7         4.7828    0.9686    7.6478 H         1 RES1    0.0000
     23 H8         5.8457   -0.1584    7.4373 H         1 RES1    0.0000
     24 O7         5.9968    1.3330    3.4100 O.2       1 RES1    0.0000
     25 C7         4.2455   -0.3440    6.1577 C.3       1 RES1    0.0000
     26 H9         4.6709   -0.6563    5.3449 H         1 RES1    0.0000
     27 H10        3.9798   -1.1248    6.6704 H         1 RES1    0.0000
     28 O8        10.3207   -2.6863    5.4366 O.2       1 RES1    0.0000
     29 C8         3.0567    0.4119    5.8056 C.2       1 RES1    0.0000
     30 H11        2.4706    0.5522    6.5138 H         1 RES1    0.0000
     31 O9        10.8344   -3.7952    3.6484 O.2       1 RES1    0.0000
     32 C9         2.6915    0.8985    4.7574 C.2       1 RES1    0.0000
     33 H12        3.2169    0.8079    3.9954 H         1 RES1    0.0000
     34 H13        1.8851    1.3601    4.7145 H         1 RES1    0.0000
     35 C10        7.7005    6.5132    4.8532 C.3       1 RES1    0.0000
     36 O10        7.0171   -1.4755   -0.5515 O.2       1 RES1    0.0000
     37 O11        8.2441   -3.2294   -0.3221 O.2       1 RES1    0.0000
     38 C11        8.6466    7.2691    5.7199 C.3       1 RES1    0.0000
     39 H14        8.5389    8.2105    5.5673 H         1 RES1    0.0000
     40 H15        9.5473    7.0111    5.5094 H         1 RES1    0.0000
     41 H16        8.4649    7.0722    6.6414 H         1 RES1    0.0000
     42 C12        7.4339    7.1808    3.5476 C.3       1 RES1    0.0000
     43 H17        6.9657    6.5743    2.9691 H         1 RES1    0.0000
     44 H18        8.2671    7.4320    3.1417 H         1 RES1    0.0000
     45 H19        6.8985    7.9638    3.6922 H         1 RES1    0.0000
     46 C13        8.9512    4.5850    3.8369 C.2       1 RES1    0.0000
     47 C14       10.8649    5.1961    2.3987 C.3       1 RES1    0.0000
     48 C15       11.8906    4.2931    3.1237 C.3       1 RES1    0.0000
     49 H20       12.3206    4.7932    3.8209 H         1 RES1    0.0000
     50 H21       12.5482    3.9876    2.4954 H         1 RES1    0.0000
     51 H22       11.4372    3.5372    3.5067 H         1 RES1    0.0000
     52 C16       10.2950    4.5918    1.1340 C.3       1 RES1    0.0000
     53 H23        9.9915    3.6979    1.3145 H         1 RES1    0.0000
     54 H24       10.9741    4.5669    0.4558 H         1 RES1    0.0000
     55 H25        9.5573    5.1237    0.8288 H         1 RES1    0.0000
     56 C17       11.4282    6.5585    2.0526 C.3       1 RES1    0.0000
     57 H26       10.7072    7.1650    1.8721 H         1 RES1    0.0000
     58 H27       11.9873    6.4860    1.2756 H         1 RES1    0.0000
     59 H28       11.9470    6.8866    2.7906 H         1 RES1    0.0000
     60 C18        7.7443    1.2809    9.2087 C.3       1 RES1    0.0000
     61 H29        6.8108    1.1972    9.4590 H         1 RES1    0.0000
     62 H30        8.0931    2.1024    9.5906 H         1 RES1    0.0000
     63 C19        8.5261    0.0973    9.7163 C.ar      1 RES1    0.0000
     64 C20        9.0280    0.1064   10.9879 C.ar      1 RES1    0.0000
     65 H31        8.9069    0.8577   11.5255 H         1 RES1    0.0000
     66 C21        9.7310   -1.0139   11.4986 C.ar      1 RES1    0.0000
     67 H32       10.0565   -1.0161   12.3693 H         1 RES1    0.0000
     68 C22        9.9187   -2.0956   10.6828 C.ar      1 RES1    0.0000
     69 H33       10.4050   -2.8266   10.9889 H         1 RES1    0.0000
     70 C23        9.4072   -2.1092    9.4450 C.ar      1 RES1    0.0000
     71 H34        9.5099   -2.8606    8.9074 H         1 RES1    0.0000
     72 C24        8.7342   -1.0161    8.9683 C.ar      1 RES1    0.0000
     73 H35        8.4060   -1.0365    8.0986 H         1 RES1    0.0000
     74 C25       10.1391    4.0283    7.0115 C.3       1 RES1    0.0000
     75 H36       10.2708    4.8815    6.5666 H         1 RES1    0.0000
     76 H37       10.4194    3.3245    6.4061 H         1 RES1    0.0000
     77 C26       10.9594    3.9785    8.2572 C.ar      1 RES1    0.0000
     78 C27       11.0655    2.8017    9.0042 C.ar      1 RES1    0.0000
     79 H38       10.5983    2.0458    8.7279 H         1 RES1    0.0000
     80 C28       11.8452    2.7316   10.1382 C.ar      1 RES1    0.0000
     81 H39       11.8905    1.9327   10.6129 H         1 RES1    0.0000
     82 C29       12.5311    3.7816   10.5661 C.ar      1 RES1    0.0000
     83 H40       13.0696    3.7160   11.3211 H         1 RES1    0.0000
     84 C30       12.4408    4.9607    9.8889 C.ar      1 RES1    0.0000
     85 H41       12.9094    5.7030   10.1990 H         1 RES1    0.0000
     86 C31       11.6577    5.0784    8.7369 C.ar      1 RES1    0.0000
     87 H42       11.6049    5.8931    8.2911 H         1 RES1    0.0000
     88 C32        6.7546    0.6269    3.9964 C.2       1 RES1    0.0000
     89 C33        7.5736   -0.4436    3.3711 C.ar      1 RES1    0.0000
     90 C34        7.3530   -0.7808    2.0227 C.ar      1 RES1    0.0000
     91 H43        6.7411   -0.3033    1.5100 H         1 RES1    0.0000
     92 C35        8.0433   -1.8127    1.4821 C.ar      1 RES1    0.0000
     93 C36        8.9713   -2.5528    2.1683 C.ar      1 RES1    0.0000
     94 H44        9.4298   -3.2566    1.7703 H         1 RES1    0.0000
     95 C37        9.1852   -2.1997    3.4618 C.ar      1 RES1    0.0000
     96 C38        8.5013   -1.1564    4.0842 C.ar      1 RES1    0.0000
     97 H45        8.6729   -0.9460    4.9738 H         1 RES1    0.0000
@<TRIPOS>BOND
     1    1    3 1
     2    2    8 1
     3    3    4 1
     4    5    3 1
     5    6   46 2
     6    7   28 2
     7    8    3 1
     8    9    8 1
     9   10   46 1
    10   11    8 1
    11   12   11 1
    12   13   36 2
    13   14   15 1
    14   15   11 1
    15   16   15 1
    16   17   11 1
    17   18   15 1
    18   19   18 1
    19   20   18 1
    20   21   18 1
    21   22   21 1
    22   23   21 1
    23   24   88 2
    24   25   21 1
    25   26   25 1
    26   27   25 1
    27   29   25 1
    28   30   29 1
    29   31    7 2
    30   32   29 2
    31   33   32 1
    32   34   32 1
    33   35    1 1
    34   37   13 2
    35   38   35 1
    36   39   38 1
    37   40   38 1
    38   41   38 1
    39   42   35 1
    40   43   42 1
    41   44   42 1
    42   45   42 1
    43   46    2 1
    44   47   10 1
    45   48   47 1
    46   49   48 1
    47   50   48 1
    48   51   48 1
    49   52   47 1
    50   53   52 1
    51   54   52 1
    52   55   52 1
    53   56   47 1
    54   57   56 1
    55   58   56 1
    56   59   56 1
    57   60   14 1
    58   61   60 1
    59   62   60 1
    60   63   60 1
    61   64   63 ar
    62   65   64 1
    63   66   64 ar
    64   67   66 1
    65   68   66 ar
    66   69   68 1
    67   70   68 ar
    68   71   70 1
    69   72   63 ar
    70   73   72 1
    71   74   17 1
    72   75   74 1
    73   76   74 1
    74   77   74 1
    75   78   77 ar
    76   79   78 1
    77   80   78 ar
    78   81   80 1
    79   82   80 ar
    80   83   82 1
    81   84   82 ar
    82   85   84 1
    83   86   77 ar
    84   87   86 1
    85   88   20 1
    86   89   88 1
    87   90   89 ar
    88   91   90 1
    89   92   13 1
    90   93   92 ar
    91   94   93 1
    92   95    7 1
    93   96   89 ar
    94   97   96 1
    95    2   35 1
    96   70   72 ar
    97   84   86 ar
    98   90   92 ar
    99   93   95 ar
   100   95   96 ar
@<TRIPOS>SUBSTRUCTURE
     1 RES1 1

@<TRIPOS>CRYSIN
   8.3976   22.6310   10.2340  90.0000 102.9520  90.0000   4 1

