# MOL2 file generated by ConQuest
# Please check atom types

@<TRIPOS>MOLECULE
COZFOM
    92   100     2
SMALL
NO_CHARGES
****
Generated from CSD

@<TRIPOS>ATOM
      1 O1         2.5418    2.9795    1.8581 O.2       1 RES1    0.0000
      2 O2         4.5539    3.3713    0.9692 O.3       1 RES1    0.0000
      3 O3         0.8669    0.4468    1.5037 O.2       1 RES1    0.0000
      4 O4         1.4824    0.4973    3.6462 O.3       1 RES1    0.0000
      5 O5         4.6769    5.3139    3.0382 O.2       1 RES1    0.0000
      6 O6         3.4115    4.6319   -1.2829 O.2       1 RES1    0.0000
      7 O7        -0.1706    2.7960    3.4513 O.2       1 RES1    0.0000
      8 O8        -0.1121   -1.5769    4.7223 O.2       1 RES1    0.0000
      9 O9         4.4396   11.1512    7.9173 O.2       2 RES2    0.0000
     10 O10        2.7283   12.4436    8.5864 O.3       2 RES2    0.0000
     11 O11        4.8073    8.2660    8.1049 O.2       2 RES2    0.0000
     12 O12        3.9488    8.1228    6.0210 O.3       2 RES2    0.0000
     13 O13        3.4965   14.4881    6.7690 O.2       2 RES2    0.0000
     14 O14        3.8211   13.0631   11.0889 O.2       2 RES2    0.0000
     15 O15        6.0919    9.4976    4.8054 O.2       2 RES2    0.0000
     16 O16        4.7825    5.4426    6.4189 O.2       2 RES2    0.0000
     17 N1         4.1595    4.6944    0.8836 N.am      1 RES1    0.0000
     18 N2         0.1215    0.5700    3.9615 N.am      1 RES1    0.0000
     19 N3         3.6549   13.4453    8.8240 N.am      2 RES2    0.0000
     20 N4         5.1716    7.5697    5.6553 N.am      2 RES2    0.0000
     21 C1         4.0515    1.1615    1.6090 C.ar      1 RES1    0.0000
     22 C2         3.5867    2.5432    1.5122 C.2       1 RES1    0.0000
     23 C3         5.3566    0.8016    1.2868 C.ar      1 RES1    0.0000
     24 C4         5.7805   -0.4909    1.4430 C.ar      1 RES1    0.0000
     25 C5         4.9410   -1.4505    1.9372 C.ar      1 RES1    0.0000
     26 C6         3.6256   -1.1089    2.2574 C.ar      1 RES1    0.0000
     27 C7         3.1801    0.1767    2.0815 C.ar      1 RES1    0.0000
     28 C8         1.7215    0.4154    2.3167 C.2       1 RES1    0.0000
     29 C9         4.2739    5.5878    1.9431 C.2       1 RES1    0.0000
     30 C10        3.7928    6.8579    1.3837 C.ar      1 RES1    0.0000
     31 C11        3.3986    6.6532    0.0791 C.ar      1 RES1    0.0000
     32 C12        3.6123    5.2421   -0.2728 C.2       1 RES1    0.0000
     33 C13       -0.5647    1.7829    3.9396 C.2       1 RES1    0.0000
     34 C14       -1.8469    1.4646    4.6037 C.ar      1 RES1    0.0000
     35 C15       -1.8297    0.1412    4.9754 C.ar      1 RES1    0.0000
     36 C16       -0.5351   -0.4742    4.5859 C.2       1 RES1    0.0000
     37 C17        3.7108    8.1021    1.9648 C.ar      1 RES1    0.0000
     38 C18        3.2180    9.1394    1.2038 C.ar      1 RES1    0.0000
     39 C19        2.8209    8.9344   -0.0890 C.ar      1 RES1    0.0000
     40 C20        2.9059    7.6895   -0.6899 C.ar      1 RES1    0.0000
     41 C21       -2.9457    2.2681    4.8192 C.ar      1 RES1    0.0000
     42 C22       -4.0484    1.6796    5.4221 C.ar      1 RES1    0.0000
     43 C23       -4.0417    0.3604    5.7779 C.ar      1 RES1    0.0000
     44 C24       -2.9323   -0.4489    5.5684 C.ar      1 RES1    0.0000
     45 C25        3.2863   11.2458    8.1737 C.2       2 RES2    0.0000
     46 C26        2.2398   10.2124    8.1183 C.ar      2 RES2    0.0000
     47 C27        0.9339   10.5120    8.4978 C.ar      2 RES2    0.0000
     48 C28       -0.0641    9.5604    8.4504 C.ar      2 RES2    0.0000
     49 C29        0.2215    8.3018    8.0412 C.ar      2 RES2    0.0000
     50 C30        1.5143    7.9735    7.6538 C.ar      2 RES2    0.0000
     51 C31        2.5231    8.9183    7.6953 C.ar      2 RES2    0.0000
     52 C32        3.9068    8.4508    7.3593 C.2       2 RES2    0.0000
     53 C33        3.8730   14.4726    7.9108 C.2       2 RES2    0.0000
     54 C34        4.6546   15.4682    8.6836 C.ar      2 RES2    0.0000
     55 C35        4.7330   15.0422    9.9981 C.ar      2 RES2    0.0000
     56 C36        4.0387   13.7478   10.1306 C.2       2 RES2    0.0000
     57 C37        6.1827    8.3325    5.0702 C.2       2 RES2    0.0000
     58 C38        7.2755    7.3620    4.8923 C.ar      2 RES2    0.0000
     59 C39        6.8940    6.1502    5.4003 C.ar      2 RES2    0.0000
     60 C40        5.5055    6.2492    5.9064 C.2       2 RES2    0.0000
     61 C41        5.2532   16.6330    8.2745 C.ar      2 RES2    0.0000
     62 C42        5.9389   17.3626    9.2351 C.ar      2 RES2    0.0000
     63 C43        6.0045   16.9431   10.5457 C.ar      2 RES2    0.0000
     64 C44        5.4005   15.7720   10.9549 C.ar      2 RES2    0.0000
     65 C45        8.5425    7.5591    4.3586 C.ar      2 RES2    0.0000
     66 C46        9.3902    6.4705    4.3606 C.ar      2 RES2    0.0000
     67 C47        9.0166    5.2569    4.8627 C.ar      2 RES2    0.0000
     68 C48        7.7486    5.0721    5.4083 C.ar      2 RES2    0.0000
     69 H1         5.9326    1.4930    0.9686 H         1 RES1    0.0000
     70 H2         6.6378   -0.7421    1.2256 H         1 RES1    0.0000
     71 H3         5.2400   -2.3828    2.0953 H         1 RES1    0.0000
     72 H4         3.0839   -1.7918    2.6092 H         1 RES1    0.0000
     73 H5         3.9859    8.2357    2.8464 H         1 RES1    0.0000
     74 H6         3.1400   10.0507    1.6209 H         1 RES1    0.0000
     75 H7         2.4638    9.6785   -0.5732 H         1 RES1    0.0000
     76 H8         2.6833    7.4546   -1.5814 H         1 RES1    0.0000
     77 H9        -2.9488    3.2011    4.5464 H         1 RES1    0.0000
     78 H10       -4.8520    2.2249    5.5743 H         1 RES1    0.0000
     79 H11       -4.7992   -0.0653    6.2068 H         1 RES1    0.0000
     80 H12       -2.8637   -1.3769    5.7324 H         1 RES1    0.0000
     81 H13        0.7634   11.3901    8.7963 H         2 RES2    0.0000
     82 H14       -0.9305    9.8077    8.7370 H         2 RES2    0.0000
     83 H15       -0.4471    7.5999    8.0452 H         2 RES2    0.0000
     84 H16        1.7433    7.1018    7.3731 H         2 RES2    0.0000
     85 H17        5.1961   16.8906    7.3533 H         2 RES2    0.0000
     86 H18        6.3910   18.1829    8.9347 H         2 RES2    0.0000
     87 H19        6.4238   17.4800   11.2079 H         2 RES2    0.0000
     88 H20        5.4149   15.4365   11.8207 H         2 RES2    0.0000
     89 H21        8.7188    8.4471    4.0522 H         2 RES2    0.0000
     90 H22       10.2309    6.5813    3.9732 H         2 RES2    0.0000
     91 H23        9.6657    4.4427    4.8231 H         2 RES2    0.0000
     92 H24        7.4232    4.1882    5.7720 H         2 RES2    0.0000
@<TRIPOS>BOND
     1    1   22 2
     2    2   17 1
     3    3   28 2
     4    4   18 1
     5    5   29 2
     6    6   32 2
     7    7   33 2
     8    8   36 2
     9    9   45 2
    10   10   19 1
    11   11   52 2
    12   12   20 1
    13   13   53 2
    14   14   56 2
    15   15   57 2
    16   16   60 2
    17   17   29 1
    18   18   33 1
    19   19   53 1
    20   20   57 1
    21   21   22 1
    22   22    2 1
    23   23   21 ar
    24   24   23 ar
    25   25   24 ar
    26   26   25 ar
    27   27   21 ar
    28   28    4 1
    29   29   30 1
    30   30   31 ar
    31   31   32 1
    32   32   17 1
    33   33   34 1
    34   34   35 ar
    35   35   36 1
    36   36   18 1
    37   37   30 ar
    38   38   37 ar
    39   39   38 ar
    40   40   31 ar
    41   41   34 ar
    42   42   41 ar
    43   43   42 ar
    44   44   35 ar
    45   45   10 1
    46   46   45 1
    47   47   46 ar
    48   48   47 ar
    49   49   48 ar
    50   50   49 ar
    51   51   46 ar
    52   52   12 1
    53   53   54 1
    54   54   55 ar
    55   55   56 1
    56   56   19 1
    57   57   58 1
    58   58   59 ar
    59   59   60 1
    60   60   20 1
    61   61   54 ar
    62   62   61 ar
    63   63   62 ar
    64   64   55 ar
    65   65   58 ar
    66   66   65 ar
    67   67   66 ar
    68   68   59 ar
    69   69   23 1
    70   70   24 1
    71   71   25 1
    72   72   26 1
    73   73   37 1
    74   74   38 1
    75   75   39 1
    76   76   40 1
    77   77   41 1
    78   78   42 1
    79   79   43 1
    80   80   44 1
    81   81   47 1
    82   82   48 1
    83   83   49 1
    84   84   50 1
    85   85   61 1
    86   86   62 1
    87   87   63 1
    88   88   64 1
    89   89   65 1
    90   90   66 1
    91   91   67 1
    92   92   68 1
    93   26   27 ar
    94   27   28 1
    95   39   40 ar
    96   43   44 ar
    97   50   51 ar
    98   51   52 1
    99   63   64 ar
   100   67   68 ar
@<TRIPOS>SUBSTRUCTURE
     1 RES1 1
     2 RES2 9

@<TRIPOS>CRYSIN
   8.0250   12.9100   20.5890  73.9000  88.7200  77.8700   2 1

