# MOL2 file generated by ConQuest
# Please check atom types

@<TRIPOS>MOLECULE
COZKIM
    85    84     2
SMALL
NO_CHARGES
****
Generated from CSD

@<TRIPOS>ATOM
      1 C1         3.0092   -0.1592   10.0969 C.ar      1 RES1    0.0000
      2 C2         1.8643    0.0907    9.3939 C.ar      1 RES1    0.0000
      3 H1         1.7043    0.9437    9.0572 H         1 RES1    0.0000
      4 C3         0.9526   -0.9080    9.1778 C.ar      1 RES1    0.0000
      5 H2         0.2088   -0.7204    8.6522 H         1 RES1    0.0000
      6 C4         1.0703   -2.0822    9.6669 C.ar      1 RES1    0.0000
      7 H3         0.4661   -2.7700    9.4895 H         1 RES1    0.0000
      8 C5         2.4759   -2.5549   10.2380 C.ar      1 RES1    0.0000
      9 H4         2.7328   -3.4294   10.4200 H         1 RES1    0.0000
     10 C6         3.2756   -1.4397   10.5883 C.ar      1 RES1    0.0000
     11 H5         4.0894   -1.7099   10.9501 H         1 RES1    0.0000
     12 N1         3.9878    0.8703   10.3381 N.pl3     1 RES1    0.0000
     13 O1         4.8226    0.7458   11.2827 O.2       1 RES1    0.0000
     14 N2         3.9409    1.8424    9.5245 N.2       1 RES1    0.0000
     15 N3         4.8584    2.7501    9.8003 N.pl3     1 RES1    0.0000
     16 H6         5.4544    2.6027   10.4018 H         1 RES1    0.0000
     17 C7         4.8409    3.9556    9.0936 C.ar      1 RES1    0.0000
     18 C8         5.8953    4.8534    9.2415 C.ar      1 RES1    0.0000
     19 H7         6.6152    4.6403    9.7898 H         1 RES1    0.0000
     20 C9         5.8717    6.0448    8.5817 C.ar      1 RES1    0.0000
     21 H8         6.5849    6.6330    8.6841 H         1 RES1    0.0000
     22 C10        4.8165    6.4048    7.7649 C.ar      1 RES1    0.0000
     23 C11        3.7946    5.4887    7.6466 C.ar      1 RES1    0.0000
     24 H9         3.0752    5.7002    7.0961 H         1 RES1    0.0000
     25 C12        3.7805    4.2969    8.2882 C.ar      1 RES1    0.0000
     26 H10        3.0617    3.7159    8.1858 H         1 RES1    0.0000
     27 C13        4.7387    7.6621    6.9960 C.2       1 RES1    0.0000
     28 O2         3.8403    7.9648    6.2823 O.2       1 RES1    0.0000
     29 O3         5.8227    8.4414    7.2362 O.3       1 RES1    0.0000
     30 C14        5.8560    9.7277    6.6456 C.ar      1 RES1    0.0000
     31 C15        6.9682   10.0567    5.9517 C.ar      1 RES1    0.0000
     32 H11        7.6268    9.4170    5.8015 H         1 RES1    0.0000
     33 C16        7.1316   11.3388    5.4625 C.ar      1 RES1    0.0000
     34 H12        7.8997   11.5786    4.9961 H         1 RES1    0.0000
     35 C17        6.1254   12.2497    5.6832 C.ar      1 RES1    0.0000
     36 C18        5.0049   11.9247    6.3794 C.ar      1 RES1    0.0000
     37 H13        4.3420   12.5612    6.5250 H         1 RES1    0.0000
     38 C19        4.8567   10.6323    6.8731 C.ar      1 RES1    0.0000
     39 H14        4.0943   10.3904    7.3486 H         1 RES1    0.0000
     40 O4         6.1789   13.5496    5.1465 O.3       1 RES1    0.0000
     41 C20        7.1339   14.3727    5.6263 C.2       1 RES1    0.0000
     42 O5         7.9396   14.0581    6.4317 O.2       1 RES1    0.0000
     43 C21        7.0033   15.7388    5.0416 C.ar      1 RES1    0.0000
     44 C22        8.0274   16.6437    5.2555 C.ar      1 RES1    0.0000
     45 H15        8.7767   16.3722    5.7355 H         1 RES1    0.0000
     46 C23        7.9724   17.9129    4.7914 C.ar      1 RES1    0.0000
     47 H16        8.6746   18.4993    4.9575 H         1 RES1    0.0000
     48 C24        6.8675   18.3394    4.0702 C.ar      1 RES1    0.0000
     49 C25        5.8187   17.4506    3.8358 C.ar      1 RES1    0.0000
     50 H17        5.0681   17.7253    3.3603 H         1 RES1    0.0000
     51 C26        5.9051   16.1581    4.3136 C.ar      1 RES1    0.0000
     52 H18        5.2127   15.5604    4.1452 H         1 RES1    0.0000
     53 O6         6.8844   19.6272    3.6529 O.3       1 RES1    0.0000
     54 C27        5.7118   20.1882    3.0577 C.3       1 RES1    0.0000
     55 H19        4.9362   20.0179    3.6151 H         1 RES1    0.0000
     56 H20        5.5562   19.7951    2.1841 H         1 RES1    0.0000
     57 C28        5.9456   21.6529    2.9303 C.3       1 RES1    0.0000
     58 H21        6.7261   21.8018    2.3752 H         1 RES1    0.0000
     59 H22        6.1323   22.0213    3.8085 H         1 RES1    0.0000
     60 C29        4.7728   22.3777    2.3343 C.3       1 RES1    0.0000
     61 H23        3.9818   22.1751    2.8575 H         1 RES1    0.0000
     62 H24        4.6243   22.0435    1.4356 H         1 RES1    0.0000
     63 C30        4.9474   23.8838    2.2751 C.3       1 RES1    0.0000
     64 H25        5.1115   24.2175    3.1715 H         1 RES1    0.0000
     65 H26        5.7282   24.0887    1.7359 H         1 RES1    0.0000
     66 C31        3.7536   24.6030    1.6972 C.3       1 RES1    0.0000
     67 H27        3.5849   24.2489    0.8099 H         1 RES1    0.0000
     68 H28        2.9796   24.3956    2.2433 H         1 RES1    0.0000
     69 C32        3.8730   26.0957    1.5926 C.3       1 RES1    0.0000
     70 H29        4.6627   26.3083    1.0716 H         1 RES1    0.0000
     71 H30        4.0046   26.4578    2.4844 H         1 RES1    0.0000
     72 C33        2.6702   26.7866    0.9601 C.3       1 RES1    0.0000
     73 H31        2.4957   26.3746    0.0978 H         1 RES1    0.0000
     74 H32        1.8943   26.6312    1.5198 H         1 RES1    0.0000
     75 C34        2.8218   28.2289    0.7622 C.3       1 RES1    0.0000
     76 H33        3.5992   28.3936    0.2070 H         1 RES1    0.0000
     77 H34        2.9754   28.6514    1.6222 H         1 RES1    0.0000
     78 C35        1.6049   28.8574    0.1115 C.3       1 RES1    0.0000
     79 H35        1.7541   29.7985   -0.0046 H         1 RES1    0.0000
     80 H36        0.8366   28.7214    0.6712 H         1 RES1    0.0000
     81 H37        1.4533   28.4490   -0.7440 H         1 RES1    0.0000
     82 C36        1.3240   -2.2556    9.6305 Du        2 SUP2    0.0000
     83 C37        2.1495   -2.2586   10.4632 Du        2 SUP2    0.0000
     84 H38        0.7186   -2.9462    9.4804 Du        2 SUP2    0.0000
     85 H39        2.1419   -3.0200   10.9979 Du        2 SUP2    0.0000
@<TRIPOS>BOND
     1    1    2 ar
     2    2    3 1
     3    4    2 ar
     4    5    4 1
     5    6    4 ar
     6    7    6 1
     7    8    6 ar
     8    9    8 1
     9   10    1 ar
    10   11   10 1
    11   12    1 1
    12   13   12 1
    13   14   12 2
    14   15   14 1
    15   16   15 1
    16   17   15 1
    17   18   17 ar
    18   19   18 1
    19   20   18 ar
    20   21   20 1
    21   22   20 ar
    22   23   22 ar
    23   24   23 1
    24   25   17 ar
    25   26   25 1
    26   27   22 1
    27   28   27 2
    28   29   27 1
    29   30   29 1
    30   31   30 ar
    31   32   31 1
    32   33   31 ar
    33   34   33 1
    34   35   33 ar
    35   36   35 ar
    36   37   36 1
    37   38   30 ar
    38   39   38 1
    39   40   35 1
    40   41   40 1
    41   42   41 2
    42   43   41 1
    43   44   43 ar
    44   45   44 1
    45   46   44 ar
    46   47   46 1
    47   48   46 ar
    48   49   48 ar
    49   50   49 1
    50   51   43 ar
    51   52   51 1
    52   53   48 1
    53   54   53 1
    54   55   54 1
    55   56   54 1
    56   57   54 1
    57   58   57 1
    58   59   57 1
    59   60   57 1
    60   61   60 1
    61   62   60 1
    62   63   60 1
    63   64   63 1
    64   65   63 1
    65   66   63 1
    66   67   66 1
    67   68   66 1
    68   69   66 1
    69   70   69 1
    70   71   69 1
    71   72   69 1
    72   73   72 1
    73   74   72 1
    74   75   72 1
    75   76   75 1
    76   77   75 1
    77   78   75 1
    78   79   78 1
    79   80   78 1
    80   81   78 1
    81    8   10 ar
    82   23   25 ar
    83   36   38 ar
    84   49   51 ar
@<TRIPOS>SUBSTRUCTURE
     1 RES1 1
     2 SUP2 82

@<TRIPOS>CRYSIN
   5.7520   12.1890   23.0570  80.6760  88.5310  84.6400   2 1

