# MOL2 file generated by ConQuest
# Please check atom types

@<TRIPOS>MOLECULE
COZLAF
   111   112     1
SMALL
NO_CHARGES
****
Generated from CSD

@<TRIPOS>ATOM
      1 O1         3.4290    1.8134   15.8467 O.3       1 RES1    0.0000
      2 O2        -0.0345    4.5881   11.4397 O.2       1 RES1    0.0000
      3 O3        -0.4899   10.2199    8.5351 O.3       1 RES1    0.0000
      4 N1         0.9069    5.1214   12.1223 N.pl3     1 RES1    0.0000
      5 N2         1.3689    6.3047   12.0241 N.2       1 RES1    0.0000
      6 C1         3.1254    3.9122   14.8697 C.ar      1 RES1    0.0000
      7 H1         3.7932    4.2439   15.4589 H         1 RES1    0.0000
      8 C2         2.5243    4.7653   13.9756 C.ar      1 RES1    0.0000
      9 H2         2.7678    5.6835   13.9479 H         1 RES1    0.0000
     10 C3         1.5491    4.2626   13.1098 C.ar      1 RES1    0.0000
     11 C4         1.1873    2.9367   13.1614 C.ar      1 RES1    0.0000
     12 H3         0.5172    2.6075   12.5728 H         1 RES1    0.0000
     13 C5         1.7902    2.0787   14.0619 C.ar      1 RES1    0.0000
     14 H4         1.5386    1.1634   14.0921 H         1 RES1    0.0000
     15 C6         2.7675    2.5645   14.9241 C.ar      1 RES1    0.0000
     16 C7         3.0195    0.4430   16.0194 C.3       1 RES1    0.0000
     17 H5         3.1448   -0.0612   15.1761 H         1 RES1    0.0000
     18 H6         2.0629    0.4009   16.2712 H         1 RES1    0.0000
     19 C8         3.8744   -0.1466   17.1118 C.3       1 RES1    0.0000
     20 H7         3.7381    0.3685   17.9457 H         1 RES1    0.0000
     21 H8         4.8277   -0.0671   16.8589 H         1 RES1    0.0000
     22 C9         3.5440   -1.6098   17.3666 C.3       1 RES1    0.0000
     23 H9         3.6358   -2.1113   16.5179 H         1 RES1    0.0000
     24 H10        2.5998   -1.6790   17.6574 H         1 RES1    0.0000
     25 C10        4.4333   -2.2595   18.4214 C.3       1 RES1    0.0000
     26 H11        5.3608   -2.3113   18.0788 H         1 RES1    0.0000
     27 H12        4.4396   -1.6960   19.2349 H         1 RES1    0.0000
     28 C11        3.9551   -3.6538   18.7824 C.3       1 RES1    0.0000
     29 H13        3.9377   -4.1997   17.9568 H         1 RES1    0.0000
     30 H14        3.0245   -3.5871   19.1129 H         1 RES1    0.0000
     31 C12        4.7827   -4.3913   19.8262 C.3       1 RES1    0.0000
     32 H15        5.6963   -4.5379   19.4761 H         1 RES1    0.0000
     33 H16        4.8549   -3.8325   20.6405 H         1 RES1    0.0000
     34 C13        4.1625   -5.7316   20.1902 C.3       1 RES1    0.0000
     35 H17        3.2412   -5.5708   20.5157 H         1 RES1    0.0000
     36 H18        4.0960   -6.2773   19.3679 H         1 RES1    0.0000
     37 C14        4.9033   -6.5398   21.2396 C.3       1 RES1    0.0000
     38 H19        4.9648   -6.0125   22.0738 H         1 RES1    0.0000
     39 H20        5.8241   -6.7193   20.9233 H         1 RES1    0.0000
     40 C15        4.2063   -7.8598   21.5299 C.3       1 RES1    0.0000
     41 H21        3.2720   -7.6697   21.7966 H         1 RES1    0.0000
     42 H22        4.1753   -8.3891   20.6931 H         1 RES1    0.0000
     43 C16        4.8555   -8.7061   22.6125 C.3       1 RES1    0.0000
     44 H23        5.7905   -8.9016   22.3510 H         1 RES1    0.0000
     45 H24        4.8778   -8.1891   23.4572 H         1 RES1    0.0000
     46 C17        4.1247  -10.0152   22.8537 C.3       1 RES1    0.0000
     47 H25        3.1955   -9.8111   23.1273 H         1 RES1    0.0000
     48 H26        4.0820  -10.5132   21.9989 H         1 RES1    0.0000
     49 C18        4.7495  -10.9138   23.9047 C.3       1 RES1    0.0000
     50 H27        5.6797  -11.1239   23.6374 H         1 RES1    0.0000
     51 H28        4.7847  -10.4262   24.7658 H         1 RES1    0.0000
     52 C19        3.9878  -12.2098   24.1015 C.3       1 RES1    0.0000
     53 H29        3.9372  -12.6827   23.2327 H         1 RES1    0.0000
     54 H30        3.0625  -11.9948   24.3804 H         1 RES1    0.0000
     55 C20        4.5989  -13.1446   25.1295 C.3       1 RES1    0.0000
     56 H31        5.5134  -13.3723   24.8601 H         1 RES1    0.0000
     57 H32        4.0623  -13.9625   25.1872 H         1 RES1    0.0000
     58 H33        4.6152  -12.7023   26.0051 H         1 RES1    0.0000
     59 C21       -0.7395    8.1106    9.4971 C.ar      1 RES1    0.0000
     60 H34       -1.5324    8.0154    8.9826 H         1 RES1    0.0000
     61 C22       -0.3452    7.0788   10.3197 C.ar      1 RES1    0.0000
     62 H35       -0.8533    6.2770   10.3577 H         1 RES1    0.0000
     63 C23        0.8167    7.2169   11.1073 C.ar      1 RES1    0.0000
     64 C24        1.5224    8.4146   11.0208 C.ar      1 RES1    0.0000
     65 H36        2.2975    8.5296   11.5581 H         1 RES1    0.0000
     66 C25        1.1368    9.4381   10.1836 C.ar      1 RES1    0.0000
     67 H37        1.6457   10.2393   10.1386 H         1 RES1    0.0000
     68 C26       -0.0058    9.2869    9.4020 C.ar      1 RES1    0.0000
     69 C27        0.2300   11.4535    8.3748 C.3       1 RES1    0.0000
     70 H38        1.1589   11.2730    8.0843 H         1 RES1    0.0000
     71 H39        0.2595   11.9477    9.2321 H         1 RES1    0.0000
     72 C28       -0.4976   12.2614    7.3310 C.3       1 RES1    0.0000
     73 H40       -1.4273   12.4158    7.6324 H         1 RES1    0.0000
     74 H41       -0.5354   11.7407    6.4902 H         1 RES1    0.0000
     75 C29        0.1620   13.6050    7.0530 C.3       1 RES1    0.0000
     76 H42        1.0974   13.4519    6.7674 H         1 RES1    0.0000
     77 H43        0.1842   14.1323    7.8902 H         1 RES1    0.0000
     78 C30       -0.5581   14.4111    5.9795 C.3       1 RES1    0.0000
     79 H44       -0.5731   13.8824    5.1428 H         1 RES1    0.0000
     80 H45       -1.4962   14.5502    6.2628 H         1 RES1    0.0000
     81 C31        0.0693   15.7639    5.6895 C.3       1 RES1    0.0000
     82 H46        1.0140   15.6268    5.4256 H         1 RES1    0.0000
     83 H47        0.0638   16.3021    6.5207 H         1 RES1    0.0000
     84 C32       -0.6364   16.5492    4.5933 C.3       1 RES1    0.0000
     85 H48       -0.6303   16.0123    3.7621 H         1 RES1    0.0000
     86 H49       -1.5813   16.6864    4.8545 H         1 RES1    0.0000
     87 C33       -0.0044   17.9040    4.3080 C.3       1 RES1    0.0000
     88 H50       -0.0204   18.4417    5.1400 H         1 RES1    0.0000
     89 H51        0.9439   17.7650    4.0588 H         1 RES1    0.0000
     90 C34       -0.6841   18.6972    3.2029 C.3       1 RES1    0.0000
     91 H52       -0.6858   18.1573    2.3732 H         1 RES1    0.0000
     92 H53       -1.6266   18.8626    3.4572 H         1 RES1    0.0000
     93 C35       -0.0055   20.0289    2.9249 C.3       1 RES1    0.0000
     94 H54        0.9342   19.8549    2.6670 H         1 RES1    0.0000
     95 H55        0.0088   20.5550    3.7621 H         1 RES1    0.0000
     96 C36       -0.6566   20.8693    1.8381 C.3       1 RES1    0.0000
     97 H56       -0.6686   20.3520    0.9953 H         1 RES1    0.0000
     98 H57       -1.5953   21.0550    2.0932 H         1 RES1    0.0000
     99 C37        0.0615   22.1867    1.6011 C.3       1 RES1    0.0000
    100 H58        0.0964   22.6835    2.4563 H         1 RES1    0.0000
    101 H59        0.9941   21.9923    1.3307 H         1 RES1    0.0000
    102 C38       -0.5680   23.0803    0.5498 C.3       1 RES1    0.0000
    103 H60       -1.5008   23.2798    0.8151 H         1 RES1    0.0000
    104 H61       -0.5969   22.5921   -0.3105 H         1 RES1    0.0000
    105 C39        0.1779   24.3891    0.3490 C.3       1 RES1    0.0000
    106 H62        0.2299   24.8631    1.2171 H         1 RES1    0.0000
    107 H63        1.1032   24.1877    0.0610 H         1 RES1    0.0000
    108 C40       -0.4650   25.3085   -0.6737 C.3       1 RES1    0.0000
    109 H64       -0.4814   24.8648   -1.5470 H         1 RES1    0.0000
    110 H65        0.0522   26.1385   -0.7375 H         1 RES1    0.0000
    111 H66       -1.3816   25.5158   -0.3965 H         1 RES1    0.0000
@<TRIPOS>BOND
     1    1   15 1
     2    2    4 1
     3    3   68 1
     4    4    5 2
     5    5   63 1
     6    6    7 1
     7    8    6 ar
     8    9    8 1
     9   10    4 1
    10   11   10 ar
    11   12   11 1
    12   13   11 ar
    13   14   13 1
    14   15    6 ar
    15   16    1 1
    16   17   16 1
    17   18   16 1
    18   19   16 1
    19   20   19 1
    20   21   19 1
    21   22   19 1
    22   23   22 1
    23   24   22 1
    24   25   22 1
    25   26   25 1
    26   27   25 1
    27   28   25 1
    28   29   28 1
    29   30   28 1
    30   31   28 1
    31   32   31 1
    32   33   31 1
    33   34   31 1
    34   35   34 1
    35   36   34 1
    36   37   34 1
    37   38   37 1
    38   39   37 1
    39   40   37 1
    40   41   40 1
    41   42   40 1
    42   43   40 1
    43   44   43 1
    44   45   43 1
    45   46   43 1
    46   47   46 1
    47   48   46 1
    48   49   46 1
    49   50   49 1
    50   51   49 1
    51   52   49 1
    52   53   52 1
    53   54   52 1
    54   55   52 1
    55   56   55 1
    56   57   55 1
    57   58   55 1
    58   59   60 1
    59   61   59 ar
    60   62   61 1
    61   63   61 ar
    62   64   63 ar
    63   65   64 1
    64   66   64 ar
    65   67   66 1
    66   68   59 ar
    67   69    3 1
    68   70   69 1
    69   71   69 1
    70   72   69 1
    71   73   72 1
    72   74   72 1
    73   75   72 1
    74   76   75 1
    75   77   75 1
    76   78   75 1
    77   79   78 1
    78   80   78 1
    79   81   78 1
    80   82   81 1
    81   83   81 1
    82   84   81 1
    83   85   84 1
    84   86   84 1
    85   87   84 1
    86   88   87 1
    87   89   87 1
    88   90   87 1
    89   91   90 1
    90   92   90 1
    91   93   90 1
    92   94   93 1
    93   95   93 1
    94   96   93 1
    95   97   96 1
    96   98   96 1
    97   99   96 1
    98  100   99 1
    99  101   99 1
   100  102   99 1
   101  103  102 1
   102  104  102 1
   103  105  102 1
   104  106  105 1
   105  107  105 1
   106  108  105 1
   107  109  108 1
   108  110  108 1
   109  111  108 1
   110    8   10 ar
   111   13   15 ar
   112   66   68 ar
@<TRIPOS>SUBSTRUCTURE
     1 RES1 1

@<TRIPOS>CRYSIN
   7.4691    8.8665   27.8340  84.9030  89.6830  86.3250   2 1

