# MOL2 file generated by ConQuest
# Please check atom types

@<TRIPOS>MOLECULE
COZYIB
    48    50     1
SMALL
NO_CHARGES
****
Generated from CSD

@<TRIPOS>ATOM
      1 C1         1.8428    1.3996   17.4633 C.ar      1 RES1    0.0000
      2 C2         3.5206    1.1272   19.1653 C.ar      1 RES1    0.0000
      3 C3         4.3039    2.0823   18.5375 C.ar      1 RES1    0.0000
      4 C4         2.6146    2.3779   16.8265 C.ar      1 RES1    0.0000
      5 C5         1.5742    5.2783   16.5294 C.3       1 RES1    0.0000
      6 C6        -0.0800    6.7137   17.8070 C.ar      1 RES1    0.0000
      7 C7         2.1152    3.0066   15.5253 C.3       1 RES1    0.0000
      8 C8         0.2789    7.1847   15.4756 C.ar      1 RES1    0.0000
      9 C9         3.9245    2.8554   13.7232 C.2       1 RES1    0.0000
     10 C10       -0.6335    8.2263   15.5473 C.ar      1 RES1    0.0000
     11 C11        3.9002    1.3542   13.9124 C.3       1 RES1    0.0000
     12 C12        2.2855    0.7899   18.6317 C.ar      1 RES1    0.0000
     13 C13        1.0427    4.0982   15.7349 C.3       1 RES1    0.0000
     14 C14       -0.9990    7.7537   17.8732 C.ar      1 RES1    0.0000
     15 C15        3.3708    6.9714   16.4329 C.3       1 RES1    0.0000
     16 C16        3.8504    2.7028   17.3792 C.ar      1 RES1    0.0000
     17 C17        3.1977    3.6767   14.6926 C.2       1 RES1    0.0000
     18 C18        4.6828    5.7075   14.3456 C.3       1 RES1    0.0000
     19 C19        3.5125    4.9867   14.9646 C.2       1 RES1    0.0000
     20 C20       -1.2777    8.5145   16.7457 C.ar      1 RES1    0.0000
     21 C21        0.5628    6.4143   16.6062 C.ar      1 RES1    0.0000
     22 N1        -0.1830    3.5221   16.3938 N.pl3     1 RES1    0.0000
     23 N2         2.8187    5.7310   15.8912 N.pl3     1 RES1    0.0000
     24 O1        -1.0023    2.9859   15.6552 O.2       1 RES1    0.0000
     25 O2        -0.2870    3.5781   17.6193 O.2       1 RES1    0.0000
     26 O3         4.5646    3.3098   12.7668 O.2       1 RES1    0.0000
     27 H1         4.2465    6.8441   16.7377 H         1 RES1    0.0000
     28 H2         4.4017    3.3293   16.9577 H         1 RES1    0.0000
     29 H3         0.1087    6.1641   18.6397 H         1 RES1    0.0000
     30 H4         1.7778    4.9560   17.4390 H         1 RES1    0.0000
     31 H5         5.1703    2.3137   18.8752 H         1 RES1    0.0000
     32 H6         4.6269    0.9361   13.3969 H         1 RES1    0.0000
     33 H7         0.7065    4.3970   14.8564 H         1 RES1    0.0000
     34 H8         0.9704    1.1321   17.0870 H         1 RES1    0.0000
     35 H9         3.8273    0.6535   19.9621 H         1 RES1    0.0000
     36 H10        0.7453    6.9942   14.6209 H         1 RES1    0.0000
     37 H11       -0.7918    8.7869   14.7399 H         1 RES1    0.0000
     38 H12        1.7312    0.1148   19.0305 H         1 RES1    0.0000
     39 H13       -1.3974    7.9657   18.7277 H         1 RES1    0.0000
     40 H14       -1.8865    9.2373   16.7843 H         1 RES1    0.0000
     41 H15        4.3784    6.4820   13.9740 H         1 RES1    0.0000
     42 H16        3.9282    1.1039   14.8719 H         1 RES1    0.0000
     43 H17        2.8413    7.2415   17.2216 H         1 RES1    0.0000
     44 H18        5.1237    5.1839   13.6764 H         1 RES1    0.0000
     45 H19        3.0742    0.9891   13.5806 H         1 RES1    0.0000
     46 H20        1.7017    2.3349   15.0091 H         1 RES1    0.0000
     47 H21        3.3770    7.6477   15.8216 H         1 RES1    0.0000
     48 H22        5.3488    5.9257   15.0919 H         1 RES1    0.0000
@<TRIPOS>BOND
     1    1    4 ar
     2    2    3 ar
     3    3   16 ar
     4    4    7 1
     5    5   13 1
     6    6   14 ar
     7    7   13 1
     8    8   10 ar
     9    9   11 1
    10   10   20 ar
    11   11   32 1
    12   12    1 ar
    13   13   22 1
    14   14   20 ar
    15   15   23 1
    16   16    4 ar
    17   17    7 1
    18   18   19 1
    19   19   17 2
    20   20   40 1
    21   21    5 1
    22   22   24 2
    23   23    5 1
    24   25   22 2
    25   26    9 2
    26   27   15 1
    27   28   16 1
    28   29    6 1
    29   30    5 1
    30   31    3 1
    31   33   13 1
    32   34    1 1
    33   35    2 1
    34   36    8 1
    35   37   10 1
    36   38   12 1
    37   39   14 1
    38   41   18 1
    39   42   11 1
    40   43   15 1
    41   44   18 1
    42   45   11 1
    43   46    7 1
    44   47   15 1
    45   48   18 1
    46    2   12 ar
    47    6   21 ar
    48    8   21 ar
    49    9   17 1
    50   19   23 1
@<TRIPOS>SUBSTRUCTURE
     1 RES1 1

@<TRIPOS>CRYSIN
   7.7632    8.8311   25.8777  90.0000  90.0000  90.0000  19 1

