# MOL2 file generated by ConQuest
# Please check atom types

@<TRIPOS>MOLECULE
CPAZOX
    22    23     1
SMALL
NO_CHARGES
****
Generated from CSD

@<TRIPOS>ATOM
      1 C1        -0.8350    0.9982    1.0246 C.2       1 RES1    0.0000
      2 C2        -1.6660    1.0061    2.3004 C.3       1 RES1    0.0000
      3 C3        -1.5331    3.3138    1.2641 C.3       1 RES1    0.0000
      4 C4        -0.7608    2.3643    0.3837 C.3       1 RES1    0.0000
      5 C5        -2.8894    0.1320    2.2209 C.3       1 RES1    0.0000
      6 C6        -0.7951    0.6775    3.5409 C.3       1 RES1    0.0000
      7 C7        -2.7093    3.9614    0.5319 C.3       1 RES1    0.0000
      8 C8        -0.6407    4.3843    1.8362 C.3       1 RES1    0.0000
      9 N1        -0.3575   -0.0927    0.6006 N.2       1 RES1    0.0000
     10 N2        -2.0505    2.4335    2.3436 N.3       1 RES1    0.0000
     11 O1        -2.7881    2.8830    3.2710 O.2       1 RES1    0.0000
     12 N1B        0.3575    0.0927   -0.6006 N.2       1 RES1    0.0000
     13 C1B        0.8350   -0.9982   -1.0246 C.2       1 RES1    0.0000
     14 C2B        1.6660   -1.0061   -2.3004 C.3       1 RES1    0.0000
     15 C4B        0.7608   -2.3643   -0.3837 C.3       1 RES1    0.0000
     16 C5B        2.8894   -0.1320   -2.2209 C.3       1 RES1    0.0000
     17 C6B        0.7951   -0.6775   -3.5409 C.3       1 RES1    0.0000
     18 N2B        2.0505   -2.4335   -2.3436 N.3       1 RES1    0.0000
     19 C3B        1.5331   -3.3138   -1.2641 C.3       1 RES1    0.0000
     20 O1B        2.7881   -2.8830   -3.2710 O.2       1 RES1    0.0000
     21 C7B        2.7093   -3.9614   -0.5319 C.3       1 RES1    0.0000
     22 C8B        0.6407   -4.3843   -1.8362 C.3       1 RES1    0.0000
@<TRIPOS>BOND
     1    1    2 1
     2    2    5 1
     3    3    4 1
     4    4    1 1
     5    6    2 1
     6    7    3 1
     7    8    3 1
     8    9    1 2
     9   10    2 1
    10   11   10 1
    11   12    9 1
    12   13   12 2
    13   14   13 1
    14   15   13 1
    15   16   14 1
    16   17   14 1
    17   18   14 1
    18   19   15 1
    19   20   18 1
    20   21   19 1
    21   22   19 1
    22    3   10 1
    23   18   19 1
@<TRIPOS>SUBSTRUCTURE
     1 RES1 1

@<TRIPOS>CRYSIN
   5.8650   15.7200   10.9530  90.0000 116.3600  90.0000  14 1

