# MOL2 file generated by ConQuest
# Please check atom types

@<TRIPOS>MOLECULE
CTETOX
    43    43     1
SMALL
NO_CHARGES
****
Generated from CSD

@<TRIPOS>ATOM
      1 O1         0.2517   -1.6011    0.2796 O.3       1 RES1    0.0000
      2 N1         1.0216   -0.8478   -0.6426 N.2       1 RES1    0.0000
      3 C1         1.9489   -1.5217   -1.2097 C.2       1 RES1    0.0000
      4 C2         2.2527   -2.9761   -0.9605 C.3       1 RES1    0.0000
      5 C3         2.0737   -3.8458   -2.2128 C.3       1 RES1    0.0000
      6 C4         0.6406   -3.8482   -2.7484 C.3       1 RES1    0.0000
      7 C5         0.4820   -4.5186   -4.1170 C.3       1 RES1    0.0000
      8 C6         1.2606   -3.8567   -5.2611 C.3       1 RES1    0.0000
      9 C7         0.9190   -2.3967   -5.4981 C.3       1 RES1    0.0000
     10 C8         1.7164   -1.7634   -6.6309 C.3       1 RES1    0.0000
     11 C9         1.4673   -0.2777   -6.8541 C.3       1 RES1    0.0000
     12 C10        1.6602    0.6098   -5.6214 C.3       1 RES1    0.0000
     13 C11        3.0636    0.5432   -5.0191 C.3       1 RES1    0.0000
     14 C12        3.1912    1.2581   -3.6683 C.3       1 RES1    0.0000
     15 C13        2.3717    0.6444   -2.5374 C.3       1 RES1    0.0000
     16 C14        2.8022   -0.7790   -2.1949 C.3       1 RES1    0.0000
     17 H1         1.7060   -3.2933   -0.2304 H         1 RES1    0.0000
     18 H2         3.1691   -3.0645   -0.6957 H         1 RES1    0.0000
     19 H3         2.3524   -4.8074   -2.0092 H         1 RES1    0.0000
     20 H4         2.7068   -3.4951   -2.9382 H         1 RES1    0.0000
     21 H5         0.3069   -2.9260   -2.7497 H         1 RES1    0.0000
     22 H6         0.0821   -4.3110   -2.0990 H         1 RES1    0.0000
     23 H7        -0.4814   -4.5378   -4.3340 H         1 RES1    0.0000
     24 H8         0.7372   -5.4874   -4.0528 H         1 RES1    0.0000
     25 H9         1.1013   -4.3755   -6.0904 H         1 RES1    0.0000
     26 H10        2.2624   -3.8984   -5.1270 H         1 RES1    0.0000
     27 H11        1.0587   -1.9089   -4.6497 H         1 RES1    0.0000
     28 H12       -0.0276   -2.3294   -5.6625 H         1 RES1    0.0000
     29 H13        1.5544   -2.3003   -7.4757 H         1 RES1    0.0000
     30 H14        2.6641   -1.9236   -6.4569 H         1 RES1    0.0000
     31 H15        0.5564   -0.2053   -7.1676 H         1 RES1    0.0000
     32 H16        2.0747    0.0331   -7.5835 H         1 RES1    0.0000
     33 H17        0.9993    0.3209   -4.9534 H         1 RES1    0.0000
     34 H18        1.4762    1.5430   -5.8705 H         1 RES1    0.0000
     35 H19        3.7222    0.9727   -5.6177 H         1 RES1    0.0000
     36 H20        3.3355   -0.4411   -4.9265 H         1 RES1    0.0000
     37 H21        2.9083    2.2273   -3.7865 H         1 RES1    0.0000
     38 H22        4.1442    1.3174   -3.4125 H         1 RES1    0.0000
     39 H23        1.4108    0.6441   -2.7901 H         1 RES1    0.0000
     40 H24        2.4693    1.2209   -1.7234 H         1 RES1    0.0000
     41 H25        3.7449   -0.7723   -1.9000 H         1 RES1    0.0000
     42 H26        2.8126   -1.2931   -2.9876 H         1 RES1    0.0000
     43 H27       -0.3023   -0.9210    0.5670 H         1 RES1    0.0000
@<TRIPOS>BOND
     1    1    2 1
     2    2    3 2
     3    3    4 1
     4    4    5 1
     5    5    6 1
     6    6    7 1
     7    7    8 1
     8    8    9 1
     9    9   10 1
    10   10   11 1
    11   11   12 1
    12   12   13 1
    13   13   14 1
    14   14   15 1
    15   15   16 1
    16   16    3 1
    17   17    4 1
    18   18    4 1
    19   19    5 1
    20   20    5 1
    21   21    6 1
    22   22    6 1
    23   23    7 1
    24   24    7 1
    25   25    8 1
    26   26    8 1
    27   27    9 1
    28   28    9 1
    29   29   10 1
    30   30   10 1
    31   31   11 1
    32   32   11 1
    33   33   12 1
    34   34   12 1
    35   35   13 1
    36   36   13 1
    37   37   14 1
    38   38   14 1
    39   39   15 1
    40   40   15 1
    41   41   16 1
    42   42   16 1
    43   43    1 1
@<TRIPOS>SUBSTRUCTURE
     1 RES1 1

@<TRIPOS>CRYSIN
   5.1760    8.7280   15.1890  99.8900  90.8100  91.6500   2 1

