# MOL2 file generated by ConQuest
# Please check atom types

@<TRIPOS>MOLECULE
CTMTNA13
    21    21     1
SMALL
NO_CHARGES
****
Generated from CSD

@<TRIPOS>ATOM
      1 O1         6.4569    4.5983    3.5188 O.2       1 RES1    0.0000
      2 O2         6.7490    2.5009    3.0197 O.2       1 RES1    0.0000
      3 O3         5.2742    1.4016   -0.3610 O.2       1 RES1    0.0000
      4 O4         3.9896    2.6904   -1.5418 O.2       1 RES1    0.0000
      5 O5         3.6353    5.6450   -0.9550 O.2       1 RES1    0.0000
      6 O6         4.9359    6.3950    0.6111 O.2       1 RES1    0.0000
      7 N1         4.9447    3.5571    2.2890 N.3       1 RES1    0.0000
      8 N2         3.6126    2.4956    0.6600 N.3       1 RES1    0.0000
      9 N3         3.3711    4.8732    1.1278 N.3       1 RES1    0.0000
     10 N4         6.1067    3.5494    2.9929 N.pl3     1 RES1    0.0000
     11 N5         4.3648    2.1989   -0.4912 N.pl3     1 RES1    0.0000
     12 N6         4.0473    5.6705    0.1896 N.pl3     1 RES1    0.0000
     13 C1         4.0411    4.7014    2.4095 C.3       1 RES1    0.0000
     14 C2         4.2940    2.2945    1.9299 C.3       1 RES1    0.0000
     15 C3         2.7267    3.6612    0.6093 C.3       1 RES1    0.0000
     16 H1         4.5926    5.5891    2.6801 H         1 RES1    0.0000
     17 H2         3.2555    4.4867    3.1437 H         1 RES1    0.0000
     18 H3         5.0193    1.4987    1.8528 H         1 RES1    0.0000
     19 H4         3.5252    2.0547    2.6630 H         1 RES1    0.0000
     20 H5         2.3725    3.8198   -0.4097 H         1 RES1    0.0000
     21 H6         1.8969    3.4499    1.2685 H         1 RES1    0.0000
@<TRIPOS>BOND
     1    1   10 2
     2    2   10 2
     3    3   11 2
     4    4   11 2
     5    5   12 2
     6    6   12 2
     7    7   10 1
     8    8   11 1
     9    9   12 1
    10   13    7 1
    11   14    7 1
    12   15    8 1
    13   16   13 1
    14   17   13 1
    15   18   14 1
    16   19   14 1
    17   20   15 1
    18   21   15 1
    19    8   14 1
    20    9   13 1
    21    9   15 1
@<TRIPOS>SUBSTRUCTURE
     1 RES1 1

@<TRIPOS>CRYSIN
  11.3790   10.5694   13.1314  90.0000  90.0000  90.0000  61 1

