# MOL2 file generated by ConQuest
# Please check atom types

@<TRIPOS>MOLECULE
CTMTNA06
    21    21     1
SMALL
NO_CHARGES
****
Generated from CSD

@<TRIPOS>ATOM
      1 N1        -0.5591    8.9337    4.7198 N.3       1 RES1    0.0000
      2 N2        -0.1702    6.5223    4.6706 N.3       1 RES1    0.0000
      3 N3         1.4845    7.9891    5.6332 N.3       1 RES1    0.0000
      4 N4        -0.2925    9.3033    3.4276 N.pl3     1 RES1    0.0000
      5 N5         0.2208    6.1443    3.4144 N.pl3     1 RES1    0.0000
      6 N6         2.5549    8.1586    4.7594 N.pl3     1 RES1    0.0000
      7 C1        -1.1456    7.5995    4.7884 C.3       1 RES1    0.0000
      8 C2         0.9051    6.6476    5.6543 C.3       1 RES1    0.0000
      9 C3         0.5148    9.0779    5.7035 C.3       1 RES1    0.0000
     10 O1         0.7715    9.8192    3.2069 O.2       1 RES1    0.0000
     11 O2        -1.1779    9.1811    2.6214 O.2       1 RES1    0.0000
     12 O3         1.0591    5.2818    3.3572 O.2       1 RES1    0.0000
     13 O4        -0.3200    6.6118    2.4465 O.2       1 RES1    0.0000
     14 O5         2.9304    7.2078    4.1300 O.2       1 RES1    0.0000
     15 O6         3.0366    9.2590    4.7031 O.2       1 RES1    0.0000
     16 H1        -1.6343    7.4763    5.6420 H         1 RES1    0.0000
     17 H2        -1.7897    7.5047    4.0614 H         1 RES1    0.0000
     18 H3         0.5542    6.4296    6.5404 H         1 RES1    0.0000
     19 H4         1.6041    6.0221    5.4222 H         1 RES1    0.0000
     20 H5         1.0049    9.9361    5.4715 H         1 RES1    0.0000
     21 H6         0.1864    9.1916    6.5923 H         1 RES1    0.0000
@<TRIPOS>BOND
     1    1    4 1
     2    2    5 1
     3    3    6 1
     4    4   10 2
     5    5   12 2
     6    6   14 2
     7    7    1 1
     8    8    2 1
     9    9    1 1
    10   11    4 2
    11   13    5 2
    12   15    6 2
    13   16    7 1
    14   17    7 1
    15   18    8 1
    16   19    8 1
    17   20    9 1
    18   21    9 1
    19    2    7 1
    20    3    8 1
    21    3    9 1
@<TRIPOS>SUBSTRUCTURE
     1 RES1 1

@<TRIPOS>CRYSIN
   7.0324   10.5300    8.7909  90.0000  90.0000  90.0000  29 1

