# MOL2 file generated by ConQuest
# Please check atom types

@<TRIPOS>MOLECULE
CTMTNA04
    42    42     2
SMALL
NO_CHARGES
****
Generated from CSD

@<TRIPOS>ATOM
      1 C1         7.4181    4.9778    6.4731 C.3       1 RES1    0.0000
      2 N1         8.2304    5.2619    7.6387 N.3       1 RES1    0.0000
      3 N2         7.6738    6.1910    8.5398 N.pl3     1 RES1    0.0000
      4 O1         6.7707    6.9023    8.1417 O.2       1 RES1    0.0000
      5 O2         8.1684    6.2596    9.6335 O.2       1 RES1    0.0000
      6 C2         8.8053    4.0793    8.2523 C.3       1 RES1    0.0000
      7 N3         7.8024    3.0630    8.5182 N.3       1 RES1    0.0000
      8 O3         7.7993    3.6931   10.6711 O.2       1 RES1    0.0000
      9 O4         6.2186    2.3965    9.9123 O.2       1 RES1    0.0000
     10 N4         7.2033    3.0623    9.7815 N.pl3     1 RES1    0.0000
     11 C3         6.9553    2.7536    7.3886 C.3       1 RES1    0.0000
     12 N5         6.4379    3.9600    6.7390 N.3       1 RES1    0.0000
     13 N6         5.1416    4.3716    7.0365 N.pl3     1 RES1    0.0000
     14 O5         4.7843    5.4468    6.6096 O.2       1 RES1    0.0000
     15 O6         4.4548    3.6074    7.6617 O.2       1 RES1    0.0000
     16 H1         6.9810    5.7630    6.1512 H         1 RES1    0.0000
     17 H2         7.9990    4.6043    5.7991 H         1 RES1    0.0000
     18 H3         9.2969    4.3493    9.0543 H         1 RES1    0.0000
     19 H4         9.4466    3.7110    7.6214 H         1 RES1    0.0000
     20 H5         7.5059    2.2839    6.7534 H         1 RES1    0.0000
     21 H6         6.1672    2.2197    7.7465 H         1 RES1    0.0000
     22 C4        11.2164    0.6681    2.9592 C.3       2 RES2    0.0000
     23 N7        11.9437   -0.2677    3.8071 N.3       2 RES2    0.0000
     24 N8        13.1708    0.1536    4.3475 N.pl3     2 RES2    0.0000
     25 O7        13.6897    1.1363    3.8416 O.2       2 RES2    0.0000
     26 O8        13.6428   -0.5413    5.2256 O.2       2 RES2    0.0000
     27 C5        11.1227   -1.1654    4.6076 C.3       2 RES2    0.0000
     28 N9        10.0744   -0.4474    5.3090 N.3       2 RES2    0.0000
     29 N10       10.2862   -0.1051    6.6513 N.pl3     2 RES2    0.0000
     30 O9        11.1696   -0.7203    7.2319 O.2       2 RES2    0.0000
     31 O10        9.5269    0.6987    7.1615 O.2       2 RES2    0.0000
     32 C6         9.3150    0.5070    4.4812 C.3       2 RES2    0.0000
     33 N11       10.1833    1.3809    3.7080 N.3       2 RES2    0.0000
     34 N12       10.5433    2.5993    4.2857 N.pl3     2 RES2    0.0000
     35 O11        9.8263    3.0146    5.1782 O.2       2 RES2    0.0000
     36 O12       11.4827    3.1891    3.8014 O.2       2 RES2    0.0000
     37 H7        11.8200    1.3116    2.5381 H         2 RES2    0.0000
     38 H8        10.7445    0.1387    2.2794 H         2 RES2    0.0000
     39 H9        11.6884   -1.6270    5.2587 H         2 RES2    0.0000
     40 H10       10.6885   -1.8014    3.9695 H         2 RES2    0.0000
     41 H11        8.7538    1.0409    5.0460 H         2 RES2    0.0000
     42 H12        8.7932   -0.0030    3.8474 H         2 RES2    0.0000
@<TRIPOS>BOND
     1    1    2 1
     2    2    3 1
     3    3    4 2
     4    5    3 2
     5    6    2 1
     6    7    6 1
     7    8   10 2
     8    9   10 2
     9   10    7 1
    10   11    7 1
    11   12    1 1
    12   13   12 1
    13   14   13 2
    14   15   13 2
    15   16    1 1
    16   17    1 1
    17   18    6 1
    18   19    6 1
    19   20   11 1
    20   21   11 1
    21   22   23 1
    22   23   24 1
    23   24   25 2
    24   26   24 2
    25   27   23 1
    26   28   27 1
    27   29   28 1
    28   30   29 2
    29   31   29 2
    30   32   28 1
    31   33   22 1
    32   34   33 1
    33   35   34 2
    34   36   34 2
    35   37   22 1
    36   38   22 1
    37   39   27 1
    38   40   27 1
    39   41   32 1
    40   42   32 1
    41   11   12 1
    42   32   33 1
@<TRIPOS>SUBSTRUCTURE
     1 RES1 1
     2 RES2 22

@<TRIPOS>CRYSIN
  15.1267    7.4563   14.3719  90.0000  90.0000  90.0000  29 1

