# MOL2 file generated by ConQuest
# Please check atom types

@<TRIPOS>MOLECULE
CTMTNA10
    21    21     1
SMALL
NO_CHARGES
****
Generated from CSD

@<TRIPOS>ATOM
      1 O1         6.4580    4.6024    3.5204 O.2       1 RES1    0.0000
      2 O2         6.7515    2.4964    3.0193 O.2       1 RES1    0.0000
      3 O3         5.2774    1.3976   -0.3605 O.2       1 RES1    0.0000
      4 O4         3.9872    2.6927   -1.5452 O.2       1 RES1    0.0000
      5 O5         3.6341    5.6447   -0.9600 O.2       1 RES1    0.0000
      6 O6         4.9388    6.3989    0.6113 O.2       1 RES1    0.0000
      7 N1         4.9451    3.5576    2.2887 N.3       1 RES1    0.0000
      8 N2         3.6123    2.4958    0.6597 N.3       1 RES1    0.0000
      9 N3         3.3711    4.8744    1.1275 N.3       1 RES1    0.0000
     10 N4         6.1071    3.5493    2.9937 N.pl3     1 RES1    0.0000
     11 N5         4.3646    2.1997   -0.4910 N.pl3     1 RES1    0.0000
     12 N6         4.0473    5.6690    0.1899 N.pl3     1 RES1    0.0000
     13 C1         4.0413    4.7021    2.4097 C.3       1 RES1    0.0000
     14 C2         4.2941    2.2939    1.9297 C.3       1 RES1    0.0000
     15 C3         2.7261    3.6617    0.6093 C.3       1 RES1    0.0000
     16 H1         4.5880    5.5828    2.6788 H         1 RES1    0.0000
     17 H2         3.2646    4.4825    3.1358 H         1 RES1    0.0000
     18 H3         4.9999    1.5083    1.8620 H         1 RES1    0.0000
     19 H4         3.5320    2.0589    2.6709 H         1 RES1    0.0000
     20 H5         2.3725    3.8230   -0.3742 H         1 RES1    0.0000
     21 H6         1.9071    3.4435    1.2777 H         1 RES1    0.0000
@<TRIPOS>BOND
     1    1   10 2
     2    2   10 2
     3    3   11 2
     4    4   11 2
     5    5   12 2
     6    6   12 2
     7    7   10 1
     8    8   11 1
     9    9   12 1
    10   13    7 1
    11   14    7 1
    12   15    8 1
    13   16   13 1
    14   17   13 1
    15   18   14 1
    16   19   14 1
    17   20   15 1
    18   21   15 1
    19    8   14 1
    20    9   13 1
    21    9   15 1
@<TRIPOS>SUBSTRUCTURE
     1 RES1 1

@<TRIPOS>CRYSIN
  11.3790   10.5694   13.1314  90.0000  90.0000  90.0000  61 1

