# MOL2 file generated by ConQuest
# Please check atom types

@<TRIPOS>MOLECULE
CTMTNA05
    42    42     2
SMALL
NO_CHARGES
****
Generated from CSD

@<TRIPOS>ATOM
      1 O1         6.1506    6.5253    8.9375 O.2       1 RES1    0.0000
      2 O2         6.0585    8.2451    7.6690 O.2       1 RES1    0.0000
      3 O3         3.5599    8.3394    5.7438 O.2       1 RES1    0.0000
      4 O4         1.9702    6.8966    5.8318 O.2       1 RES1    0.0000
      5 O5         2.2359    4.5851    7.7642 O.2       1 RES1    0.0000
      6 O6         3.9555    4.4040    9.0212 O.2       1 RES1    0.0000
      7 C1         3.5343    8.7877    8.3631 C.3       1 RES1    0.0000
      8 C2         1.7739    7.0769    8.4858 C.3       1 RES1    0.0000
      9 C3         3.7486    6.8837    9.9261 C.3       1 RES1    0.0000
     10 N1         4.4084    7.8783    9.0919 N.pl3     1 RES1    0.0000
     11 N2         2.4820    8.0557    7.6675 N.3       1 RES1    0.0000
     12 N3         2.6858    6.1978    9.2001 N.3       1 RES1    0.0000
     13 N4         5.6086    7.5244    8.5175 N.pl3     1 RES1    0.0000
     14 N5         2.7039    7.7236    6.3210 N.pl3     1 RES1    0.0000
     15 N6         2.9983    4.9994    8.5955 N.pl3     1 RES1    0.0000
     16 H1         3.1206    9.4034    9.0010 H         1 RES1    0.0000
     17 H2         4.0702    9.2533    7.7166 H         1 RES1    0.0000
     18 H3         1.2395    7.5523    9.1597 H         1 RES1    0.0000
     19 H4         1.2032    6.5419    7.9100 H         1 RES1    0.0000
     20 H5         3.3440    7.3441   10.6794 H         1 RES1    0.0000
     21 H6         4.3963    6.2159   10.2306 H         1 RES1    0.0000
     22 C4         8.1585    4.8100   12.5454 C.3       2 RES2    0.0000
     23 C5         6.2940    3.4041   11.8974 C.3       2 RES2    0.0000
     24 C6         7.8521    2.6601   13.5830 C.3       2 RES2    0.0000
     25 N7         8.8017    3.6849   13.2035 N.3       2 RES2    0.0000
     26 N8         7.2331    4.4297   11.4977 N.3       2 RES2    0.0000
     27 N9         6.9764    2.2797   12.5021 N.3       2 RES2    0.0000
     28 N10        7.4973    1.2851   11.6607 N.pl3     2 RES2    0.0000
     29 N11        7.7177    4.3497   10.1887 N.pl3     2 RES2    0.0000
     30 N12       10.0593    3.3015   12.7503 N.pl3     2 RES2    0.0000
     31 O7         6.9764    1.1659   10.5986 O.2       2 RES2    0.0000
     32 O8         8.4227    0.6294   12.0085 O.2       2 RES2    0.0000
     33 O9        10.6028    4.1135   12.0735 O.2       2 RES2    0.0000
     34 O10        8.6884    5.0107    9.9896 O.2       2 RES2    0.0000
     35 O11       10.4231    2.2292   13.1414 O.2       2 RES2    0.0000
     36 O12        7.1123    3.6373    9.4296 O.2       2 RES2    0.0000
     37 H7         7.6739    5.3413   13.2006 H         2 RES2    0.0000
     38 H8         8.8636    5.3277   12.1153 H         2 RES2    0.0000
     39 H9         5.6735    3.7482   12.5598 H         2 RES2    0.0000
     40 H10        5.7958    3.1000   11.1195 H         2 RES2    0.0000
     41 H11        7.2995    3.0193   14.3089 H         2 RES2    0.0000
     42 H12        8.3367    1.8707   13.8616 H         2 RES2    0.0000
@<TRIPOS>BOND
     1    1   13 2
     2    2   13 2
     3    3   14 2
     4    4   14 2
     5    5   15 2
     6    6   15 2
     7    7   10 1
     8    8   11 1
     9    9   10 1
    10   10   13 1
    11   11    7 1
    12   12    8 1
    13   14   11 1
    14   15   12 1
    15   16    7 1
    16   17    7 1
    17   18    8 1
    18   19    8 1
    19   20    9 1
    20   21    9 1
    21   22   25 1
    22   23   26 1
    23   24   25 1
    24   25   30 1
    25   26   22 1
    26   27   23 1
    27   28   27 1
    28   29   26 1
    29   30   33 2
    30   31   28 2
    31   32   28 2
    32   34   29 2
    33   35   30 2
    34   36   29 2
    35   37   22 1
    36   38   22 1
    37   39   23 1
    38   40   23 1
    39   41   24 1
    40   42   24 1
    41    9   12 1
    42   24   27 1
@<TRIPOS>SUBSTRUCTURE
     1 RES1 1
     2 RES2 22

@<TRIPOS>CRYSIN
  15.0972    7.5463   14.4316  90.0000  90.0000  90.0000  29 1

