# MOL2 file generated by ConQuest
# Please check atom types

@<TRIPOS>MOLECULE
CTMTNA08
    21    21     1
SMALL
NO_CHARGES
****
Generated from CSD

@<TRIPOS>ATOM
      1 O1         4.9608   -1.1055    5.9743 O.2       1 RES1    0.0000
      2 O2         3.6491   -0.3476    7.5430 O.2       1 RES1    0.0000
      3 O3         4.0203    2.6076    8.1272 O.2       1 RES1    0.0000
      4 O4         5.3218    3.8900    6.9446 O.2       1 RES1    0.0000
      5 O5         6.7955    2.8014    3.5679 O.2       1 RES1    0.0000
      6 O6         6.5035    0.6928    3.0670 O.2       1 RES1    0.0000
      7 N1         3.3974    0.4268    5.4524 N.3       1 RES1    0.0000
      8 N2         3.6423    2.8125    5.9191 N.3       1 RES1    0.0000
      9 N3         4.9778    1.7450    4.2917 N.3       1 RES1    0.0000
     10 N4         4.0709   -0.3745    6.3943 N.pl3     1 RES1    0.0000
     11 N5         4.4020    3.0975    7.0750 N.pl3     1 RES1    0.0000
     12 N6         6.1514    1.7501    3.5913 N.pl3     1 RES1    0.0000
     13 C1         2.7532    1.6447    5.9683 C.3       1 RES1    0.0000
     14 H1         1.9415    1.8325    5.4343 H         1 RES1    0.0000
     15 H2         2.4719    1.4906    6.9049 H         1 RES1    0.0000
     16 C2         4.3295    3.0120    4.6454 C.3       1 RES1    0.0000
     17 H3         5.0056    3.7308    4.7307 H         1 RES1    0.0000
     18 H4         3.6815    3.2721    3.9440 H         1 RES1    0.0000
     19 C3         4.0794    0.5974    4.1696 C.3       1 RES1    0.0000
     20 H5         4.5955   -0.2176    3.9466 H         1 RES1    0.0000
     21 H6         3.4180    0.7570    3.4498 H         1 RES1    0.0000
@<TRIPOS>BOND
     1    1   10 2
     2    2   10 2
     3    3   11 2
     4    4   11 2
     5    5   12 2
     6    6   12 2
     7    7   10 1
     8    8   11 1
     9    9   12 1
    10   13    7 1
    11   14   13 1
    12   15   13 1
    13   16    8 1
    14   17   16 1
    15   18   16 1
    16   19    7 1
    17   20   19 1
    18   21   19 1
    19    8   13 1
    20    9   16 1
    21    9   19 1
@<TRIPOS>SUBSTRUCTURE
     1 RES1 1

@<TRIPOS>CRYSIN
  11.4545   10.6169   13.1773  90.0000  90.0000  90.0000  61 1

