# MOL2 file generated by ConQuest
# Please check atom types

@<TRIPOS>MOLECULE
CTMTNA02
    42    42     2
SMALL
NO_CHARGES
****
Generated from CSD

@<TRIPOS>ATOM
      1 C1         1.5480   10.2275    8.6071 C.3       1 RES1    0.0000
      2 C2         0.6773    8.3141    9.7974 C.3       1 RES1    0.0000
      3 C3         2.7090    8.0942    8.4476 C.3       1 RES1    0.0000
      4 N1         2.3182    9.3281    7.8049 N.pl3     1 RES1    0.0000
      5 N2         0.3631    9.5527    9.1285 N.3       1 RES1    0.0000
      6 N3         1.5191    7.4602    8.9995 N.3       1 RES1    0.0000
      7 N4         2.4565    9.5262    6.4944 N.pl3     1 RES1    0.0000
      8 N5        -0.7413    9.5527    8.3153 N.pl3     1 RES1    0.0000
      9 N6         0.9135    6.5855    8.1317 N.pl3     1 RES1    0.0000
     10 O1         1.9639   10.5326    6.0124 O.2       1 RES1    0.0000
     11 O2         3.0973    8.7036    5.8889 O.2       1 RES1    0.0000
     12 O3        -0.8356   10.4606    7.5043 O.2       1 RES1    0.0000
     13 O4        -1.6020    8.7519    8.5492 O.2       1 RES1    0.0000
     14 O5        -0.2412    6.3107    8.3809 O.2       1 RES1    0.0000
     15 O6         1.5568    6.1107    7.2366 O.2       1 RES1    0.0000
     16 H1         2.0996   10.5146    9.3558 H         1 RES1    0.0000
     17 H2         1.2929   11.0017    8.0858 H         1 RES1    0.0000
     18 H3         1.1283    8.5093   10.6357 H         1 RES1    0.0000
     19 H4        -0.1458    7.8639    9.9744 H         1 RES1    0.0000
     20 H5         3.3536    8.2601    9.1624 H         1 RES1    0.0000
     21 H6         3.1073    7.4972    7.7983 H         1 RES1    0.0000
     22 C4         8.2602    3.9917    0.6973 C.3       2 RES2    0.0000
     23 C5         6.9346    5.1753   -0.9662 C.3       2 RES2    0.0000
     24 C6         8.3344    6.4964    0.5705 C.3       2 RES2    0.0000
     25 N7         8.5065    5.2644    1.3433 N.pl3     2 RES2    0.0000
     26 N8         7.0188    4.0504   -0.0459 N.3       2 RES2    0.0000
     27 N9         7.1947    6.4197   -0.2568 N.3       2 RES2    0.0000
     28 N10        8.9387    5.3251    2.6067 N.pl3     2 RES2    0.0000
     29 N11        5.8452    3.8400    0.6995 N.pl3     2 RES2    0.0000
     30 N12        6.1883    7.2688   -0.0896 N.pl3     2 RES2    0.0000
     31 O7         9.3320    6.4016    3.0330 O.2       2 RES2    0.0000
     32 O8         8.9061    4.2845    3.2581 O.2       2 RES2    0.0000
     33 O9         4.8124    3.9812    0.0940 O.2       2 RES2    0.0000
     34 O10        5.9571    3.4268    1.8285 O.2       2 RES2    0.0000
     35 O11        5.1730    7.1257   -0.7990 O.2       2 RES2    0.0000
     36 O12        6.3101    8.2155    0.6886 O.2       2 RES2    0.0000
     37 H7         8.9915    3.7889    0.0918 H         2 RES2    0.0000
     38 H8         8.1999    3.3018    1.3706 H         2 RES2    0.0000
     39 H9         7.5943    5.0626   -1.6679 H         2 RES2    0.0000
     40 H10        6.0387    5.1943   -1.3345 H         2 RES2    0.0000
     41 H11        9.1209    6.6206    0.0120 H         2 RES2    0.0000
     42 H12        8.2326    7.2612    1.1738 H         2 RES2    0.0000
@<TRIPOS>BOND
     1    1    4 1
     2    2    5 1
     3    3    4 1
     4    4    7 1
     5    5    1 1
     6    6    2 1
     7    7   10 2
     8    8    5 1
     9    9    6 1
    10   11    7 2
    11   12    8 2
    12   13    8 2
    13   14    9 2
    14   15    9 2
    15   16    1 1
    16   17    1 1
    17   18    2 1
    18   19    2 1
    19   20    3 1
    20   21    3 1
    21   22   25 1
    22   23   26 1
    23   24   25 1
    24   25   28 1
    25   26   22 1
    26   27   23 1
    27   28   31 2
    28   29   26 1
    29   30   27 1
    30   32   28 2
    31   33   29 2
    32   34   29 2
    33   35   30 2
    34   36   30 2
    35   37   22 1
    36   38   22 1
    37   39   23 1
    38   40   23 1
    39   41   24 1
    40   42   24 1
    41    3    6 1
    42   24   27 1
@<TRIPOS>SUBSTRUCTURE
     1 RES1 1
     2 RES2 22

@<TRIPOS>CRYSIN
  12.5650    9.4769   10.9297  90.0000  90.0000  90.0000  29 1

