# MOL2 file generated by ConQuest
# Please check atom types

@<TRIPOS>MOLECULE
CTMTNA11
    21    21     1
SMALL
NO_CHARGES
****
Generated from CSD

@<TRIPOS>ATOM
      1 O1         6.4969    4.6101    3.5146 O.2       1 RES1    0.0000
      2 O2         6.7876    2.5048    3.0118 O.2       1 RES1    0.0000
      3 O3         5.3203    1.4219   -0.3548 O.2       1 RES1    0.0000
      4 O4         4.0144    2.6971   -1.5344 O.2       1 RES1    0.0000
      5 O5         3.6408    5.6458   -0.9520 O.2       1 RES1    0.0000
      6 O6         4.9505    6.4072    0.6103 O.2       1 RES1    0.0000
      7 N1         4.9776    3.5608    2.2988 N.3       1 RES1    0.0000
      8 N2         3.6442    2.4951    0.6686 N.3       1 RES1    0.0000
      9 N3         3.3969    4.8759    1.1369 N.3       1 RES1    0.0000
     10 N4         6.1434    3.5564    2.9910 N.pl3     1 RES1    0.0000
     11 N5         4.3980    2.2096   -0.4818 N.pl3     1 RES1    0.0000
     12 N6         4.0615    5.6747    0.1940 N.pl3     1 RES1    0.0000
     13 C1         4.0742    4.7076    2.4150 C.3       1 RES1    0.0000
     14 C2         4.3287    2.2966    1.9375 C.3       1 RES1    0.0000
     15 C3         2.7536    3.6594    0.6223 C.3       1 RES1    0.0000
     16 H1         4.6216    5.5791    2.6864 H         1 RES1    0.0000
     17 H2         3.3160    4.4819    3.1377 H         1 RES1    0.0000
     18 H3         5.0164    1.5141    1.8839 H         1 RES1    0.0000
     19 H4         3.5586    2.0797    2.6746 H         1 RES1    0.0000
     20 H5         2.3949    3.8209   -0.3828 H         1 RES1    0.0000
     21 H6         1.9223    3.4538    1.2972 H         1 RES1    0.0000
@<TRIPOS>BOND
     1    1   10 2
     2    2   10 2
     3    3   11 2
     4    4   11 2
     5    5   12 2
     6    6   12 2
     7    7   10 1
     8    8   11 1
     9    9   12 1
    10   13    7 1
    11   14    7 1
    12   15    8 1
    13   16   13 1
    14   17   13 1
    15   18   14 1
    16   19   14 1
    17   20   15 1
    18   21   15 1
    19    8   14 1
    20    9   13 1
    21    9   15 1
@<TRIPOS>SUBSTRUCTURE
     1 RES1 1

@<TRIPOS>CRYSIN
  11.4425   10.6106   13.1558  90.0000  90.0000  90.0000  61 1

