# MOL2 file generated by ConQuest
# Please check atom types

@<TRIPOS>MOLECULE
CUBHEO
    32    34     1
SMALL
NO_CHARGES
****
Generated from CSD

@<TRIPOS>ATOM
      1 C1         1.9963   21.3146    4.8756 C.2       1 RES1    0.0000
      2 C2         1.9719   22.7232    5.3426 C.ar      1 RES1    0.0000
      3 C3         2.3616   23.2238    6.5668 C.ar      1 RES1    0.0000
      4 H1         2.7087   22.6688    7.2288 H         1 RES1    0.0000
      5 C4         2.2162   24.5789    6.7697 C.ar      1 RES1    0.0000
      6 H2         2.4494   24.9436    7.5926 H         1 RES1    0.0000
      7 C5         1.7276   25.4105    5.7705 C.ar      1 RES1    0.0000
      8 H3         1.6396   26.3225    5.9247 H         1 RES1    0.0000
      9 C6         1.3718   24.8752    4.5417 C.ar      1 RES1    0.0000
     10 C7         1.4728   23.5167    4.3255 C.ar      1 RES1    0.0000
     11 C8         1.0528   22.6193    3.2058 C.2       1 RES1    0.0000
     12 C9         1.2845   20.1681    2.7505 C.ar      1 RES1    0.0000
     13 C10        0.6906   19.0338    3.2671 C.ar      1 RES1    0.0000
     14 H4         0.4031   19.0174    4.1513 H         1 RES1    0.0000
     15 C11        0.5275   17.9274    2.4620 C.ar      1 RES1    0.0000
     16 H5         0.1381   17.1556    2.8074 H         1 RES1    0.0000
     17 C12        0.9394   17.9586    1.1454 C.ar      1 RES1    0.0000
     18 C13        1.5402   19.0942    0.6317 C.ar      1 RES1    0.0000
     19 H6         1.8227   19.1154   -0.2546 H         1 RES1    0.0000
     20 C14        1.7174   20.1975    1.4450 C.ar      1 RES1    0.0000
     21 H7         2.1295   20.9609    1.1100 H         1 RES1    0.0000
     22 C15        1.0724   16.8208   -0.9483 C.3       1 RES1    0.0000
     23 H8         0.6355   17.5475   -1.4000 H         1 RES1    0.0000
     24 H9         0.8116   15.9890   -1.3513 H         1 RES1    0.0000
     25 H10        2.0241   16.9269   -1.0192 H         1 RES1    0.0000
     26 N1         1.4541   21.3319    3.5798 N.am      1 RES1    0.0000
     27 N2         0.9427   25.7903    3.4797 N.pl3     1 RES1    0.0000
     28 O1         2.4031   20.3454    5.4594 O.2       1 RES1    0.0000
     29 O2         0.4307   22.8846    2.2130 O.2       1 RES1    0.0000
     30 O3         0.6966   16.8210    0.4212 O.3       1 RES1    0.0000
     31 O4         1.3291   25.5703    2.3489 O.2       1 RES1    0.0000
     32 O5         0.2354   26.7308    3.8007 O.2       1 RES1    0.0000
@<TRIPOS>BOND
     1    1    2 1
     2    2    3 ar
     3    3    4 1
     4    5    3 ar
     5    6    5 1
     6    7    5 ar
     7    8    7 1
     8    9    7 ar
     9   10    2 ar
    10   11   10 1
    11   12   13 ar
    12   13   14 1
    13   15   13 ar
    14   16   15 1
    15   17   15 ar
    16   18   17 ar
    17   19   18 1
    18   20   12 ar
    19   21   20 1
    20   22   23 1
    21   24   22 1
    22   25   22 1
    23   26    1 1
    24   27    9 1
    25   28    1 2
    26   29   11 2
    27   30   17 1
    28   31   27 2
    29   32   27 2
    30    9   10 ar
    31   11   26 1
    32   12   26 1
    33   18   20 ar
    34   22   30 1
@<TRIPOS>SUBSTRUCTURE
     1 RES1 1

@<TRIPOS>CRYSIN
   3.8289   23.3314    7.4554  90.0000  98.1530  90.0000   4 1

