# MOL2 file generated by ConQuest
# Please check atom types

@<TRIPOS>MOLECULE
CUBNES01
    24    26     1
SMALL
NO_CHARGES
****
Generated from CSD

@<TRIPOS>ATOM
      1 C1         3.2563   -1.4026    4.8035 C.ar      1 RES1    0.0000
      2 H1         3.6474   -2.1598    4.4307 H         1 RES1    0.0000
      3 C2         2.8765   -1.3494    6.1479 C.ar      1 RES1    0.0000
      4 N1         3.1173   -2.5376    6.9807 N.pl3     1 RES1    0.0000
      5 O1         3.7518   -3.4598    6.5010 O.2       1 RES1    0.0000
      6 O2         2.6732   -2.5415    8.1159 O.2       1 RES1    0.0000
      7 C3         2.2976   -0.2336    6.7244 C.ar      1 RES1    0.0000
      8 H2         2.0571   -0.2460    7.6222 H         1 RES1    0.0000
      9 C4         2.0756    0.9076    5.9599 C.ar      1 RES1    0.0000
     10 H3         1.6975    1.6686    6.3389 H         1 RES1    0.0000
     11 C5         2.4320    0.8829    4.6192 C.ar      1 RES1    0.0000
     12 C6         2.3235    1.9053    3.5539 C.ar      1 RES1    0.0000
     13 C7         1.8202    3.1954    3.5813 C.ar      1 RES1    0.0000
     14 H4         1.4692    3.5539    4.3645 H         1 RES1    0.0000
     15 C8         1.8534    3.9425    2.4014 C.ar      1 RES1    0.0000
     16 H5         1.5141    4.8085    2.4004 H         1 RES1    0.0000
     17 C9         2.3800    3.4205    1.2377 C.ar      1 RES1    0.0000
     18 H6         2.3964    3.9410    0.4668 H         1 RES1    0.0000
     19 C10        2.8875    2.1220    1.2028 C.ar      1 RES1    0.0000
     20 H7         3.2411    1.7681    0.4193 H         1 RES1    0.0000
     21 C11        2.8514    1.3779    2.3607 C.ar      1 RES1    0.0000
     22 C12        3.3261   -0.0085    2.6148 C.2       1 RES1    0.0000
     23 C13        3.0160   -0.2699    4.0671 C.ar      1 RES1    0.0000
     24 O3         3.8708   -0.7703    1.8468 O.2       1 RES1    0.0000
@<TRIPOS>BOND
     1    1    2 1
     2    3    1 ar
     3    4    3 1
     4    5    4 2
     5    6    4 2
     6    7    3 ar
     7    8    7 1
     8    9    7 ar
     9   10    9 1
    10   11    9 ar
    11   12   11 1
    12   13   12 ar
    13   14   13 1
    14   15   13 ar
    15   16   15 1
    16   17   15 ar
    17   18   17 1
    18   19   17 ar
    19   20   19 1
    20   21   12 ar
    21   22   21 1
    22   23    1 ar
    23   24   22 2
    24   11   23 ar
    25   19   21 ar
    26   22   23 1
@<TRIPOS>SUBSTRUCTURE
     1 RES1 1

@<TRIPOS>CRYSIN
   3.8042    7.7108   16.9910  90.0000  92.4050  90.0000   4 1

