# MOL2 file generated by ConQuest
# Please check atom types

@<TRIPOS>MOLECULE
CUCBOS
    42    46     1
SMALL
NO_CHARGES
****
Generated from CSD

@<TRIPOS>ATOM
      1 C1        10.9829    6.2037    2.3100 C.3       1 RES1    0.0000
      2 H1        11.1655    5.2726    2.5670 H         1 RES1    0.0000
      3 N1         9.5199    6.4320    2.2702 N.3       1 RES1    0.0000
      4 C2        11.6369    7.1669    3.2967 C.3       1 RES1    0.0000
      5 H2        11.2980    7.0033    4.2184 H         1 RES1    0.0000
      6 H3        11.3651    8.0859    3.0279 H         1 RES1    0.0000
      7 O1         8.9744    6.4458    3.6165 O.3       1 RES1    0.0000
      8 C3         8.8459    5.0688    4.0386 C.3       1 RES1    0.0000
      9 H4         8.2050    5.0545    4.8021 H         1 RES1    0.0000
     10 H5         9.7426    4.7326    4.3631 H         1 RES1    0.0000
     11 C4        13.1602    7.0363    3.2665 C.3       1 RES1    0.0000
     12 H6        13.5683    7.6853    3.9460 H         1 RES1    0.0000
     13 H7        13.4439    6.1126    3.5496 H         1 RES1    0.0000
     14 C5         8.3758    4.3204    2.7985 C.3       1 RES1    0.0000
     15 H8         8.8257    3.4700    2.7178 H         1 RES1    0.0000
     16 C6         6.8430    4.1167    2.7029 C.3       1 RES1    0.0000
     17 H9         6.5805    3.2063    2.3968 H         1 RES1    0.0000
     18 H10        6.4024    4.3286    3.5800 H         1 RES1    0.0000
     19 C7        13.7111    7.2969    1.8698 C.3       1 RES1    0.0000
     20 H11       13.5090    8.2541    1.5699 H         1 RES1    0.0000
     21 H12       14.7099    7.2197    1.8435 H         1 RES1    0.0000
     22 C8        13.0615    6.3585    0.8572 C.3       1 RES1    0.0000
     23 H13       13.3655    5.4053    1.0348 H         1 RES1    0.0000
     24 H14       13.3409    6.5859   -0.0815 H         1 RES1    0.0000
     25 C9         5.2846    5.5139    1.0804 C.ar      1 RES1    0.0000
     26 N2         6.4462    5.0947    1.6944 N.pl3     1 RES1    0.0000
     27 C10        3.9477    5.1561    1.2421 C.ar      1 RES1    0.0000
     28 H15        3.6910    4.4647    1.8569 H         1 RES1    0.0000
     29 C11       11.5365    6.4448    0.9025 C.3       1 RES1    0.0000
     30 H16       11.2382    7.3558    0.6007 H         1 RES1    0.0000
     31 H17       11.1285    5.8075    0.2614 H         1 RES1    0.0000
     32 C12        3.0440    5.7624    0.3867 C.ar      1 RES1    0.0000
     33 H18        2.0734    5.4965    0.4195 H         1 RES1    0.0000
     34 C13        3.4499    6.7146   -0.5619 C.ar      1 RES1    0.0000
     35 H19        2.7836    7.1276   -1.1346 H         1 RES1    0.0000
     36 C14        4.7761    7.0902   -0.6978 C.ar      1 RES1    0.0000
     37 H20        5.0370    7.7673   -1.3571 H         1 RES1    0.0000
     38 C15        5.7179    6.4624    0.1210 C.ar      1 RES1    0.0000
     39 C16        7.4727    5.7522    1.0875 C.2       1 RES1    0.0000
     40 C17        8.7860    5.3119    1.6511 C.3       1 RES1    0.0000
     41 H21        9.3239    4.8974    0.9436 H         1 RES1    0.0000
     42 N3         7.1103    6.5881    0.1437 N.2       1 RES1    0.0000
@<TRIPOS>BOND
     1    1    2 1
     2    3    1 1
     3    4    1 1
     4    5    4 1
     5    6    4 1
     6    7    3 1
     7    8    7 1
     8    9    8 1
     9   10    8 1
    10   11    4 1
    11   12   11 1
    12   13   11 1
    13   14    8 1
    14   15   14 1
    15   16   14 1
    16   17   16 1
    17   18   16 1
    18   19   11 1
    19   20   19 1
    20   21   19 1
    21   22   19 1
    22   23   22 1
    23   24   22 1
    24   25   26 1
    25   26   16 1
    26   27   25 ar
    27   28   27 1
    28   29    1 1
    29   30   29 1
    30   31   29 1
    31   32   27 ar
    32   33   32 1
    33   34   32 ar
    34   35   34 1
    35   36   34 ar
    36   37   36 1
    37   38   25 ar
    38   39   26 1
    39   40    3 1
    40   41   40 1
    41   42   38 1
    42   14   40 1
    43   22   29 1
    44   36   38 ar
    45   39   40 1
    46   39   42 2
@<TRIPOS>SUBSTRUCTURE
     1 RES1 1

@<TRIPOS>CRYSIN
  13.6720    8.4510   12.2932  90.0000  98.4320  90.0000  14 1

