# MOL2 file generated by ConQuest
# Please check atom types

@<TRIPOS>MOLECULE
CUCBIM
    54    58     1
SMALL
NO_CHARGES
****
Generated from CSD

@<TRIPOS>ATOM
      1 O1         3.0828    7.5177    3.3361 O.3       1 RES1    0.0000
      2 C1         1.2866    6.1515    3.9175 C.3       1 RES1    0.0000
      3 H1         0.3749    6.4227    4.2583 H         1 RES1    0.0000
      4 C2         1.3285    4.7531    3.4002 C.2       1 RES1    0.0000
      5 N1         1.7660    7.1164    2.8748 N.3       1 RES1    0.0000
      6 N2         0.6653    4.0892    2.4868 N.2       1 RES1    0.0000
      7 C3         1.3140    2.8528    2.4627 C.ar      1 RES1    0.0000
      8 C4         1.0742    1.7431    1.6466 C.ar      1 RES1    0.0000
      9 H2         0.3385    1.7320    1.0162 H         1 RES1    0.0000
     10 C5         1.8972    0.6413    1.7928 C.ar      1 RES1    0.0000
     11 H3         1.7158   -0.1164    1.2205 H         1 RES1    0.0000
     12 C6         2.9274    0.6178    2.7318 C.ar      1 RES1    0.0000
     13 H4         3.4613   -0.1932    2.8208 H         1 RES1    0.0000
     14 C7         3.1856    1.6987    3.5588 C.ar      1 RES1    0.0000
     15 H5         3.8746    1.6807    4.2312 H         1 RES1    0.0000
     16 C8         2.3713    2.8161    3.3976 C.ar      1 RES1    0.0000
     17 N3         2.3396    4.0636    3.9856 N.pl3     1 RES1    0.0000
     18 C9         3.1313    4.8332    4.9374 C.3       1 RES1    0.0000
     19 H6         4.0843    4.9282    4.5838 H         1 RES1    0.0000
     20 H7         3.1890    4.3229    5.7953 H         1 RES1    0.0000
     21 C10        2.3447    6.1617    5.0633 C.3       1 RES1    0.0000
     22 H8         1.8824    6.1736    5.9219 H         1 RES1    0.0000
     23 C11        3.0643    7.4784    4.7793 C.3       1 RES1    0.0000
     24 H9         2.4167    8.2105    5.1046 H         1 RES1    0.0000
     25 C12        0.8689    8.2931    2.7653 C.3       1 RES1    0.0000
     26 H10        0.5743    8.5760    3.6824 H         1 RES1    0.0000
     27 C13       -0.3223    7.8462    1.9209 C.3       1 RES1    0.0000
     28 H11       -0.8226    7.0652    2.3778 H         1 RES1    0.0000
     29 H12        0.0293    7.5145    1.0668 H         1 RES1    0.0000
     30 C14       -1.2897    9.0059    1.6744 C.3       1 RES1    0.0000
     31 H13       -1.6668    9.2953    2.5496 H         1 RES1    0.0000
     32 H14       -2.0765    8.7063    1.1030 H         1 RES1    0.0000
     33 C15       -0.5790   10.1901    1.0298 C.3       1 RES1    0.0000
     34 H15       -0.2333    9.9215    0.1175 H         1 RES1    0.0000
     35 H16       -1.2129   10.9574    0.8589 H         1 RES1    0.0000
     36 C16        0.6048   10.6231    1.8766 C.3       1 RES1    0.0000
     37 H17        0.2849   10.9923    2.7937 H         1 RES1    0.0000
     38 H18        1.0617   11.4370    1.5008 H         1 RES1    0.0000
     39 C17        1.5784    9.4690    2.1141 C.3       1 RES1    0.0000
     40 H19        1.9415    9.1859    1.2296 H         1 RES1    0.0000
     41 H20        2.3234    9.7562    2.6490 H         1 RES1    0.0000
     42 C18        4.4684    7.8318    5.2997 C.3       1 RES1    0.0000
     43 C19        4.6443    9.3465    5.1082 C.3       1 RES1    0.0000
     44 H21        4.5852    9.5816    4.1227 H         1 RES1    0.0000
     45 H22        5.5272    9.6189    5.5141 H         1 RES1    0.0000
     46 H23        3.9201    9.8330    5.5874 H         1 RES1    0.0000
     47 C20        5.6169    7.1322    4.5618 C.3       1 RES1    0.0000
     48 H24        5.6544    6.1736    4.7465 H         1 RES1    0.0000
     49 H25        6.4514    7.5028    4.9138 H         1 RES1    0.0000
     50 H26        5.5353    7.2793    3.5893 H         1 RES1    0.0000
     51 C21        4.5423    7.4940    6.7881 C.3       1 RES1    0.0000
     52 H27        3.8458    7.9381    7.2690 H         1 RES1    0.0000
     53 H28        5.4312    7.7589    7.1786 H         1 RES1    0.0000
     54 H29        4.4394    6.4948    6.9526 H         1 RES1    0.0000
@<TRIPOS>BOND
     1    1    5 1
     2    2    3 1
     3    4    2 1
     4    5    2 1
     5    6    4 2
     6    7    6 1
     7    8    7 ar
     8    9    8 1
     9   10    8 ar
    10   11   10 1
    11   12   10 ar
    12   13   12 1
    13   14   12 ar
    14   15   14 1
    15   16    7 ar
    16   17    4 1
    17   18   17 1
    18   19   18 1
    19   20   18 1
    20   21    2 1
    21   22   21 1
    22   23    1 1
    23   24   23 1
    24   25    5 1
    25   26   25 1
    26   27   25 1
    27   28   27 1
    28   29   27 1
    29   30   27 1
    30   31   30 1
    31   32   30 1
    32   33   30 1
    33   34   33 1
    34   35   33 1
    35   36   33 1
    36   37   36 1
    37   38   36 1
    38   39   25 1
    39   40   39 1
    40   41   39 1
    41   42   23 1
    42   43   42 1
    43   44   43 1
    44   45   43 1
    45   46   43 1
    46   47   42 1
    47   48   47 1
    48   49   47 1
    49   50   47 1
    50   51   42 1
    51   52   51 1
    52   53   51 1
    53   54   51 1
    54   14   16 ar
    55   16   17 1
    56   18   21 1
    57   21   23 1
    58   36   39 1
@<TRIPOS>SUBSTRUCTURE
     1 RES1 1

@<TRIPOS>CRYSIN
   8.7705   23.2790    9.3612  90.0000 105.0280  90.0000  14 1

