# MOL2 file generated by ConQuest
# Please check atom types

@<TRIPOS>MOLECULE
CUCBUY
    42    46     1
SMALL
NO_CHARGES
****
Generated from CSD

@<TRIPOS>ATOM
      1 N1         3.4332   17.9861    0.4703 N.3       1 RES1    0.0000
      2 O1         2.0299   18.2097    0.0360 O.3       1 RES1    0.0000
      3 C1         3.6268   16.5159    0.4060 C.3       1 RES1    0.0000
      4 H1         3.2744   16.1757   -0.4684 H         1 RES1    0.0000
      5 C2         2.8170   15.8927    1.5413 C.3       1 RES1    0.0000
      6 H2         3.1503   16.3032    2.3882 H         1 RES1    0.0000
      7 H3         1.8704   16.1548    1.4605 H         1 RES1    0.0000
      8 C3         2.9510   14.3780    1.5679 C.3       1 RES1    0.0000
      9 H4         2.5537   13.9839    0.7348 H         1 RES1    0.0000
     10 H5         2.4252   14.0021    2.3514 H         1 RES1    0.0000
     11 C4         4.4145   13.9544    1.6873 C.3       1 RES1    0.0000
     12 H6         4.7662   14.2207    2.5719 H         1 RES1    0.0000
     13 H7         4.4974   12.9452    1.6625 H         1 RES1    0.0000
     14 C5         5.2484   14.5992    0.5833 C.3       1 RES1    0.0000
     15 H8         4.9697   14.2181   -0.2664 H         1 RES1    0.0000
     16 H9         6.2138   14.3587    0.7348 H         1 RES1    0.0000
     17 C6         5.1007   16.1218    0.5520 C.3       1 RES1    0.0000
     18 H10        5.3993   16.5375    1.4329 H         1 RES1    0.0000
     19 H11        5.5889   16.5167   -0.1653 H         1 RES1    0.0000
     20 C7         2.0343   18.7512   -1.3227 C.3       1 RES1    0.0000
     21 H12        1.3382   18.2842   -1.8187 H         1 RES1    0.0000
     22 C8         1.7514   20.2347   -1.2382 C.3       1 RES1    0.0000
     23 H13        1.6812   20.6270   -2.2045 H         1 RES1    0.0000
     24 H14        0.9475   20.4161   -0.7899 H         1 RES1    0.0000
     25 N2         2.8630   20.8672   -0.5245 N.pl3     1 RES1    0.0000
     26 C9         2.9470   22.1503   -0.0285 C.ar      1 RES1    0.0000
     27 C10        2.0438   23.2118   -0.0285 C.ar      1 RES1    0.0000
     28 H15        1.1773   23.1416   -0.3858 H         1 RES1    0.0000
     29 C11        2.4403   24.3715    0.6117 C.ar      1 RES1    0.0000
     30 H16        1.8853   25.1798    0.5970 H         1 RES1    0.0000
     31 C12        3.7015   24.4764    1.2253 C.ar      1 RES1    0.0000
     32 H17        3.9615   25.3308    1.6625 H         1 RES1    0.0000
     33 C13        4.5990   23.4089    1.2336 C.ar      1 RES1    0.0000
     34 H18        5.4630   23.4722    1.6901 H         1 RES1    0.0000
     35 N3         4.8679   21.0023    0.4841 N.2       1 RES1    0.0000
     36 C14        4.2127   22.2274    0.6016 C.ar      1 RES1    0.0000
     37 C15        4.0297   20.2313   -0.1782 C.2       1 RES1    0.0000
     38 C16        4.1852   18.7816   -0.5263 C.3       1 RES1    0.0000
     39 H19        5.1287   18.4950   -0.4776 H         1 RES1    0.0000
     40 C17        3.4503   18.5200   -1.8416 C.3       1 RES1    0.0000
     41 H20        3.5762   17.5891   -2.1126 H         1 RES1    0.0000
     42 H21        3.7146   19.1588   -2.5443 H         1 RES1    0.0000
@<TRIPOS>BOND
     1    1    2 1
     2    2   20 1
     3    3    1 1
     4    4    3 1
     5    5    3 1
     6    6    5 1
     7    7    5 1
     8    8    5 1
     9    9    8 1
    10   10    8 1
    11   11    8 1
    12   12   11 1
    13   13   11 1
    14   14   11 1
    15   15   14 1
    16   16   14 1
    17   17    3 1
    18   18   17 1
    19   19   17 1
    20   20   21 1
    21   22   20 1
    22   23   22 1
    23   24   22 1
    24   25   22 1
    25   26   25 1
    26   27   26 ar
    27   28   27 1
    28   29   27 ar
    29   30   29 1
    30   31   29 ar
    31   32   31 1
    32   33   31 ar
    33   34   33 1
    34   35   36 1
    35   36   26 ar
    36   37   25 1
    37   38    1 1
    38   39   38 1
    39   40   20 1
    40   41   40 1
    41   42   40 1
    42   14   17 1
    43   33   36 ar
    44   35   37 2
    45   37   38 1
    46   38   40 1
@<TRIPOS>SUBSTRUCTURE
     1 RES1 1

@<TRIPOS>CRYSIN
   6.0901   26.0310    9.6458  90.0000 107.7760  90.0000  14 1

