# MOL2 file generated by ConQuest
# Please check atom types

@<TRIPOS>MOLECULE
CUCDOV
    51    53     1
SMALL
NO_CHARGES
****
Generated from CSD

@<TRIPOS>ATOM
      1 N1         0.6480   14.6151    2.5520 N.am      1 RES1    0.0000
      2 C1        -0.5723   14.2784    1.8255 C.3       1 RES1    0.0000
      3 O1        -0.2546   14.2787    0.4245 O.3       1 RES1    0.0000
      4 C2         0.9601   13.5878    0.0623 C.3       1 RES1    0.0000
      5 C3         2.1983   14.2205    0.6841 C.3       1 RES1    0.0000
      6 C4         2.0029   14.1528    2.1788 C.3       1 RES1    0.0000
      7 C5         2.5503   15.1990    3.1758 C.3       1 RES1    0.0000
      8 C6         1.0692   15.5731    3.4216 C.2       1 RES1    0.0000
      9 C7        -1.6134   15.3498    2.0337 C.3       1 RES1    0.0000
     10 C8        -1.0686   12.9074    2.2535 C.3       1 RES1    0.0000
     11 C9         2.3620   15.6971    0.1404 C.3       1 RES1    0.0000
     12 C10        3.3698   14.7135    4.3584 C.3       1 RES1    0.0000
     13 C11        3.5783   15.7587    5.3999 C.3       1 RES1    0.0000
     14 O2         2.6431   13.5993    4.9952 O.3       1 RES1    0.0000
     15 C12        3.1927   12.4008    4.8623 C.2       1 RES1    0.0000
     16 O3         4.1717   12.1052    4.2454 O.2       1 RES1    0.0000
     17 O4         2.4065   11.5354    5.5354 O.3       1 RES1    0.0000
     18 C13        2.8397   10.1622    5.4930 C.3       1 RES1    0.0000
     19 C14        1.6338    9.2783    5.2917 C.ar      1 RES1    0.0000
     20 C15        0.3556    9.8263    5.2643 C.ar      1 RES1    0.0000
     21 C16       -0.7620    9.0311    5.0993 C.ar      1 RES1    0.0000
     22 C17       -0.6562    7.6788    4.9425 C.ar      1 RES1    0.0000
     23 C18        0.5819    7.0968    4.9390 C.ar      1 RES1    0.0000
     24 C19        1.7052    7.9001    5.1191 C.ar      1 RES1    0.0000
     25 N2         2.9954    7.2032    5.1047 N.pl3     1 RES1    0.0000
     26 O5         3.0287    6.0427    4.7637 O.2       1 RES1    0.0000
     27 O6         3.9927    7.7973    5.4362 O.2       1 RES1    0.0000
     28 O7         0.4902   16.3917    4.0989 O.2       1 RES1    0.0000
     29 H1         0.9228   12.5293    0.3150 H         1 RES1    0.0000
     30 H2         0.9249   13.6223   -0.9449 H         1 RES1    0.0000
     31 H3         2.1687   13.1799    2.4651 H         1 RES1    0.0000
     32 H4         2.9848   15.9709    2.7390 H         1 RES1    0.0000
     33 H5        -1.2660   16.2817    1.7255 H         1 RES1    0.0000
     34 H6        -2.2989   15.1597    1.5681 H         1 RES1    0.0000
     35 H7        -1.8597   15.4919    2.9992 H         1 RES1    0.0000
     36 H8        -0.3681   12.1690    2.1912 H         1 RES1    0.0000
     37 H9        -1.2840   12.8726    3.1635 H         1 RES1    0.0000
     38 H10       -1.8629   12.6508    1.7187 H         1 RES1    0.0000
     39 H11        3.1536   16.1884    0.5615 H         1 RES1    0.0000
     40 H12        2.3524   15.7161   -0.8902 H         1 RES1    0.0000
     41 H13        1.6073   16.3455    0.3903 H         1 RES1    0.0000
     42 H14        4.2498   14.3063    3.9783 H         1 RES1    0.0000
     43 H15        3.9771   16.5711    5.0671 H         1 RES1    0.0000
     44 H16        2.7256   16.0865    5.7518 H         1 RES1    0.0000
     45 H17        4.1659   15.4599    6.0326 H         1 RES1    0.0000
     46 H18        3.2805    9.9801    6.4023 H         1 RES1    0.0000
     47 H19        3.4472   10.0772    4.7863 H         1 RES1    0.0000
     48 H20        0.2822   10.7981    5.3684 H         1 RES1    0.0000
     49 H21       -1.5697    9.4685    5.0671 H         1 RES1    0.0000
     50 H22       -1.4089    7.0551    4.7932 H         1 RES1    0.0000
     51 H23        0.6830    6.1380    4.7932 H         1 RES1    0.0000
@<TRIPOS>BOND
     1    1    2 1
     2    2    3 1
     3    3    4 1
     4    4    5 1
     5    5    6 1
     6    6    1 1
     7    7    6 1
     8    8    1 1
     9    9    2 1
    10   10    2 1
    11   11    5 1
    12   12    7 1
    13   13   12 1
    14   14   12 1
    15   15   14 1
    16   16   15 2
    17   17   15 1
    18   18   17 1
    19   19   18 1
    20   20   19 ar
    21   21   20 ar
    22   22   21 ar
    23   23   22 ar
    24   24   19 ar
    25   25   24 1
    26   26   25 2
    27   27   25 2
    28   28    8 2
    29   29    4 1
    30   30    4 1
    31   31    6 1
    32   32    7 1
    33   33    9 1
    34   34    9 1
    35   35    9 1
    36   36   10 1
    37   37   10 1
    38   38   10 1
    39   39   11 1
    40   40   11 1
    41   41   11 1
    42   42   12 1
    43   43   13 1
    44   44   13 1
    45   45   13 1
    46   46   18 1
    47   47   18 1
    48   48   20 1
    49   49   21 1
    50   50   22 1
    51   51   23 1
    52    7    8 1
    53   23   24 ar
@<TRIPOS>SUBSTRUCTURE
     1 RES1 1

@<TRIPOS>CRYSIN
   7.9420   17.9850    7.4810  99.1700 111.5000  91.1900   2 1

