# MOL2 file generated by ConQuest
# Please check atom types

@<TRIPOS>MOLECULE
CUCNET
    23    24     1
SMALL
NO_CHARGES
****
Generated from CSD

@<TRIPOS>ATOM
      1 C1         4.7657    1.0488    8.4575 C.3       1 RES1    0.0000
      2 C2         5.8819    0.8680    7.5308 C.3       1 RES1    0.0000
      3 H1         6.1446    1.7801    7.0244 H         1 RES1    0.0000
      4 H2         6.7889    0.5945    8.1603 H         1 RES1    0.0000
      5 C3         5.5339   -0.2712    6.5881 C.3       1 RES1    0.0000
      6 H3         6.4184   -0.8750    6.3036 H         1 RES1    0.0000
      7 H4         5.0895    0.0997    5.6730 H         1 RES1    0.0000
      8 C4         4.5484   -1.1207    7.3991 C.3       1 RES1    0.0000
      9 H5         5.0411   -1.9168    7.9565 H         1 RES1    0.0000
     10 H6         3.7962   -1.6039    6.7473 H         1 RES1    0.0000
     11 C5         3.8403   -0.1402    8.3567 C.3       1 RES1    0.0000
     12 H7         3.3429   -0.8495    9.0159 H         1 RES1    0.0000
     13 C6         3.3784    1.1948    7.8269 C.3       1 RES1    0.0000
     14 H8         2.9538    1.5935    6.8917 H         1 RES1    0.0000
     15 C7         2.0842    1.8809    8.2505 C.3       1 RES1    0.0000
     16 C8         1.0380    2.0918    7.0340 C.3       1 RES1    0.0000
     17 C9         1.2146    1.2134    9.4023 C.3       1 RES1    0.0000
     18 N1         4.9777    1.6653    9.7802 N.pl3     1 RES1    0.0000
     19 N2         2.4463    3.3214    8.6645 N.pl3     1 RES1    0.0000
     20 O1         6.1187    2.0281   10.0053 O.2       1 RES1    0.0000
     21 O2         4.0455    1.7569   10.5690 O.2       1 RES1    0.0000
     22 O3         3.3719    3.8684    8.0945 O.2       1 RES1    0.0000
     23 O4         1.7767    3.8672    9.5339 O.2       1 RES1    0.0000
@<TRIPOS>BOND
     1    1    2 1
     2    2    3 1
     3    4    2 1
     4    5    2 1
     5    6    5 1
     6    7    5 1
     7    8    5 1
     8    9    8 1
     9   10    8 1
    10   11    1 1
    11   12   11 1
    12   13    1 1
    13   14   13 1
    14   15   13 1
    15   16   15 1
    16   17   15 1
    17   18    1 1
    18   19   15 1
    19   20   18 2
    20   21   18 2
    21   22   19 2
    22   23   19 2
    23    8   11 1
    24   11   13 1
@<TRIPOS>SUBSTRUCTURE
     1 RES1 1

@<TRIPOS>CRYSIN
   8.6000   11.5890   11.2430  90.0000 109.2300  90.0000  14 1

