# MOL2 file generated by ConQuest
# Please check atom types

@<TRIPOS>MOLECULE
CUDBEJ
    25    25     1
SMALL
NO_CHARGES
****
Generated from CSD

@<TRIPOS>ATOM
      1 O1         5.3242    2.2580    2.2821 O.2       1 RES1    0.0000
      2 O2         3.0859    1.0186   -1.5568 O.3       1 RES1    0.0000
      3 H1         3.1435    1.2904   -2.3928 H         1 RES1    0.0000
      4 N1         8.9634    6.4961   -0.5323 N.ar      1 RES1    0.0000
      5 N2         6.9752    3.8699    0.7878 N.2       1 RES1    0.0000
      6 N3         5.9956    3.0694    0.2499 N.am      1 RES1    0.0000
      7 H2         5.8980    3.0162   -0.6219 H         1 RES1    0.0000
      8 N4         4.0672    1.7600   -0.9152 N.2       1 RES1    0.0000
      9 C1         9.9258    7.3675   -0.1901 C.ar      1 RES1    0.0000
     10 H3        10.1344    8.0330   -0.8639 H         1 RES1    0.0000
     11 C2        10.6176    7.3189    1.0093 C.ar      1 RES1    0.0000
     12 H4        11.3236    7.9563    1.2084 H         1 RES1    0.0000
     13 C3        10.2905    6.3150    1.9165 C.ar      1 RES1    0.0000
     14 H5        10.7601    6.2325    2.7488 H         1 RES1    0.0000
     15 C4         9.2730    5.4248    1.5994 C.ar      1 RES1    0.0000
     16 H6         9.0301    4.7011    2.2168 H         1 RES1    0.0000
     17 C5         8.6251    5.5483    0.3683 C.ar      1 RES1    0.0000
     18 C6         7.5433    4.6504   -0.0576 C.2       1 RES1    0.0000
     19 H7         7.2865    4.6885   -0.9874 H         1 RES1    0.0000
     20 C7         5.2113    2.3050    1.0634 C.2       1 RES1    0.0000
     21 C8         4.1574    1.5105    0.3418 C.2       1 RES1    0.0000
     22 C9         3.3357    0.5503    1.1427 C.3       1 RES1    0.0000
     23 H8         2.6446    0.1759    0.6458 H         1 RES1    0.0000
     24 H9         2.8986    0.9843    1.8819 H         1 RES1    0.0000
     25 H10        3.8993   -0.1448    1.5557 H         1 RES1    0.0000
@<TRIPOS>BOND
     1    1   20 2
     2    2    3 1
     3    4    9 ar
     4    5    6 1
     5    6    7 1
     6    8    2 1
     7    9   10 1
     8   11    9 ar
     9   12   11 1
    10   13   11 ar
    11   14   13 1
    12   15   13 ar
    13   16   15 1
    14   17    4 ar
    15   18    5 2
    16   19   18 1
    17   20    6 1
    18   21    8 2
    19   22   21 1
    20   23   22 1
    21   24   22 1
    22   25   22 1
    23   15   17 ar
    24   17   18 1
    25   20   21 1
@<TRIPOS>SUBSTRUCTURE
     1 RES1 1

@<TRIPOS>CRYSIN
  10.2740    9.7170   10.1360  90.0000 109.2800  90.0000  14 1

