# MOL2 file generated by ConQuest
# Please check atom types

@<TRIPOS>MOLECULE
CUDJAM
    23    23     1
SMALL
NO_CHARGES
****
Generated from CSD

@<TRIPOS>ATOM
      1 O1         6.1990    1.8280    1.4696 O.2       1 RES1    0.0000
      2 O2         1.6087   -0.1571   -0.2616 O.3       1 RES1    0.0000
      3 O3         1.9677    3.7080    4.0447 O.3       1 RES1    0.0000
      4 N1         3.3721    1.3267    1.0463 N.3       1 RES1    0.0000
      5 N2         2.4579    2.8532    3.0601 N.2       1 RES1    0.0000
      6 N3         1.0858    0.7296    0.7098 N.2       1 RES1    0.0000
      7 N4         5.5938    3.9427    1.9297 N.am      1 RES1    0.0000
      8 C1         1.5309    2.3288    2.3582 C.2       1 RES1    0.0000
      9 C2         1.9983    1.4426    1.2843 C.2       1 RES1    0.0000
     10 C3         3.9077    1.5138   -0.3076 C.3       1 RES1    0.0000
     11 C4         4.0937    2.5782    0.6967 C.3       1 RES1    0.0000
     12 C5         0.0715    2.5719    2.5711 C.3       1 RES1    0.0000
     13 C6         5.3900    2.7589    1.3986 C.2       1 RES1    0.0000
     14 H2         0.8354   -0.4910   -0.5389 H         1 RES1    0.0000
     15 H3         2.6688    3.9280    4.3904 H         1 RES1    0.0000
     16 H14        6.3715    4.0753    2.3135 H         1 RES1    0.0000
     17 H24        5.1059    4.5368    1.7746 H         1 RES1    0.0000
     18 H13        3.2721    1.6940   -0.9333 H         1 RES1    0.0000
     19 H23        4.6330    0.9182   -0.5389 H         1 RES1    0.0000
     20 H4         3.5369    3.4075    0.6047 H         1 RES1    0.0000
     21 H15       -0.4057    2.5287    1.8534 H         1 RES1    0.0000
     22 H25       -0.1750    2.4108    3.3782 H         1 RES1    0.0000
     23 H35       -0.2008    3.3830    2.8393 H         1 RES1    0.0000
@<TRIPOS>BOND
     1    1   13 2
     2    2    6 1
     3    3    5 1
     4    4    9 1
     5    5    8 2
     6    6    9 2
     7    7   13 1
     8    8    9 1
     9   10    4 1
    10   11    4 1
    11   12    8 1
    12   13   11 1
    13   14    2 1
    14   15    3 1
    15   16    7 1
    16   17    7 1
    17   18   10 1
    18   19   10 1
    19   20   11 1
    20   21   12 1
    21   22   12 1
    22   23   12 1
    23   10   11 1
@<TRIPOS>SUBSTRUCTURE
     1 RES1 1

@<TRIPOS>CRYSIN
  13.0500    4.9100   14.0990  90.0000 111.2000  90.0000  14 1

