# MOL2 file generated by ConQuest
# Please check atom types

@<TRIPOS>MOLECULE
CUDPEW
    17    17     1
SMALL
NO_CHARGES
****
Generated from CSD

@<TRIPOS>ATOM
      1 C1         1.1720    0.2373    3.9232 C.ar      1 RES1    0.0000
      2 C2         1.5936    0.4973    2.6466 C.ar      1 RES1    0.0000
      3 C3         1.3313   -0.4534    1.5794 C.ar      1 RES1    0.0000
      4 C4         0.6772   -1.6580    1.9895 C.ar      1 RES1    0.0000
      5 C5         0.3224   -1.8590    3.2757 C.ar      1 RES1    0.0000
      6 C6         2.2896    1.7442    2.2657 C.3       1 RES1    0.0000
      7 N1         0.5523   -0.9099    4.2279 N.ar      1 RES1    0.0000
      8 N2         1.6246    2.3805    1.0233 N.pl3     1 RES1    0.0000
      9 N3         3.7859    1.5719    1.9159 N.pl3     1 RES1    0.0000
     10 N4         2.2885    2.8248    3.3715 N.pl3     1 RES1    0.0000
     11 O1         0.4197    2.4545    1.0747 O.2       1 RES1    0.0000
     12 O2         2.3349    2.7659    0.1162 O.2       1 RES1    0.0000
     13 O3         4.1608    0.4519    1.6772 O.2       1 RES1    0.0000
     14 O4         4.4518    2.5845    1.9051 O.2       1 RES1    0.0000
     15 O5         2.9486    2.5240    4.3479 O.2       1 RES1    0.0000
     16 O6         1.6582    3.8087    3.2001 O.2       1 RES1    0.0000
     17 O7         1.6646   -0.2010    0.3987 O.3       1 RES1    0.0000
@<TRIPOS>BOND
     1    1    2 ar
     2    2    3 ar
     3    3    4 ar
     4    4    5 ar
     5    5    7 ar
     6    6    2 1
     7    7    1 ar
     8    8    6 1
     9    9    6 1
    10   10    6 1
    11   11    8 2
    12   12    8 2
    13   13    9 2
    14   14    9 2
    15   15   10 2
    16   16   10 2
    17   17    3 1
@<TRIPOS>SUBSTRUCTURE
     1 RES1 1

@<TRIPOS>CRYSIN
   9.8960   15.1140    6.5600  90.0000 104.6000  90.0000 231 1

