# MOL2 file generated by ConQuest
# Please check atom types

@<TRIPOS>MOLECULE
CUDSAX
    38    40     1
SMALL
NO_CHARGES
****
Generated from CSD

@<TRIPOS>ATOM
      1 C1        -0.6847   14.2582   -0.1443 C.ar      1 RES1    0.0000
      2 C2        -0.2953   15.4160   -0.8332 C.ar      1 RES1    0.0000
      3 H1         0.1896   16.0964   -0.3825 H         1 RES1    0.0000
      4 C3        -0.6188   15.5648   -2.1675 C.ar      1 RES1    0.0000
      5 H2        -0.3428   16.3346   -2.6519 H         1 RES1    0.0000
      6 C4        -1.3540   14.5658   -2.7847 C.ar      1 RES1    0.0000
      7 C5        -1.7582   13.4177   -2.1295 C.ar      1 RES1    0.0000
      8 H3        -2.2692   12.7535   -2.5775 H         1 RES1    0.0000
      9 C6        -1.3980   13.2614   -0.8031 C.ar      1 RES1    0.0000
     10 H4        -1.6386   12.4680   -0.3391 H         1 RES1    0.0000
     11 C7         0.4294   14.7146    3.1876 C.ar      1 RES1    0.0000
     12 C8         1.2655   15.6180    3.8304 C.ar      1 RES1    0.0000
     13 H5         1.6239   16.3498    3.3416 H         1 RES1    0.0000
     14 C9         1.5869   15.4770    5.1665 C.ar      1 RES1    0.0000
     15 H6         2.1582   16.1082    5.5888 H         1 RES1    0.0000
     16 C10        1.0646   14.3949    5.8987 C.ar      1 RES1    0.0000
     17 C11        0.1788   13.4989    5.2497 C.ar      1 RES1    0.0000
     18 H7        -0.2065   12.7822    5.7385 H         1 RES1    0.0000
     19 C12       -0.1255   13.6575    3.9269 C.ar      1 RES1    0.0000
     20 H8        -0.7186   13.0474    3.5045 H         1 RES1    0.0000
     21 C13        2.3324   14.7675    8.0424 C.ar      1 RES1    0.0000
     22 C14        3.5830   15.1156    7.5483 C.ar      1 RES1    0.0000
     23 H9         3.7763   15.0119    6.6239 H         1 RES1    0.0000
     24 C15        4.5495   15.6155    8.4098 C.ar      1 RES1    0.0000
     25 H10        5.3986   15.8683    8.0654 H         1 RES1    0.0000
     26 C16        4.2941   15.7511    9.7619 C.ar      1 RES1    0.0000
     27 H11        4.9632   16.0896   10.3454 H         1 RES1    0.0000
     28 C17        3.0486   15.3866   10.2577 C.ar      1 RES1    0.0000
     29 H12        2.8704   15.4579   11.1874 H         1 RES1    0.0000
     30 C18        2.0681   14.9200    9.4015 C.ar      1 RES1    0.0000
     31 H13        1.2089   14.7028    9.7424 H         1 RES1    0.0000
     32 N1        -0.4230   14.0026    1.2263 N.2       1 RES1    0.0000
     33 N2         0.1855   14.9457    1.8143 N.2       1 RES1    0.0000
     34 N3         1.3269   14.1884    7.2354 N.pl3     1 RES1    0.0000
     35 H14        0.7922   13.5727    7.6236 H         1 RES1    0.0000
     36 N4        -1.6861   14.7036   -4.2085 N.pl3     1 RES1    0.0000
     37 O1        -1.2545   15.6781   -4.8143 O.2       1 RES1    0.0000
     38 O2        -2.3840   13.8271   -4.7314 O.2       1 RES1    0.0000
@<TRIPOS>BOND
     1    1    2 ar
     2    2    3 1
     3    4    2 ar
     4    5    4 1
     5    6    4 ar
     6    7    6 ar
     7    8    7 1
     8    9    1 ar
     9   10    9 1
    10   11   12 ar
    11   12   13 1
    12   14   12 ar
    13   15   14 1
    14   16   14 ar
    15   17   16 ar
    16   18   17 1
    17   19   11 ar
    18   20   19 1
    19   21   22 ar
    20   22   23 1
    21   24   22 ar
    22   25   24 1
    23   26   24 ar
    24   27   26 1
    25   28   26 ar
    26   29   28 1
    27   30   21 ar
    28   31   30 1
    29   32    1 1
    30   33   11 1
    31   34   16 1
    32   35   34 1
    33   36    6 1
    34   37   36 2
    35   38   36 2
    36    7    9 ar
    37   17   19 ar
    38   21   34 1
    39   28   30 ar
    40   32   33 2
@<TRIPOS>SUBSTRUCTURE
     1 RES1 1

@<TRIPOS>CRYSIN
  10.1999   16.8920    8.9859  90.0000  99.8170  90.0000   9 1

