# MOL2 file generated by ConQuest
# Please check atom types

@<TRIPOS>MOLECULE
CUDSEB
    80    82     2
SMALL
NO_CHARGES
****
Generated from CSD

@<TRIPOS>ATOM
      1 N1         7.2406    5.7691    1.3015 N.2       1 RES1    0.0000
      2 N2         7.7146    4.7653    1.9028 N.2       1 RES1    0.0000
      3 O1         7.2373    6.6534   -4.9137 O.2       1 RES1    0.0000
      4 C1         7.6601    4.8207    6.1181 C.ar      1 RES1    0.0000
      5 C2         7.6372    4.8398    3.3060 C.ar      1 RES1    0.0000
      6 C3         6.9685    5.8175    5.3966 C.ar      1 RES1    0.0000
      7 H1         6.4873    6.4863    5.8683 H         1 RES1    0.0000
      8 C4         7.4159    5.6271   -2.8472 C.ar      1 RES1    0.0000
      9 C5         6.9789    5.8348    4.0312 C.ar      1 RES1    0.0000
     10 H2         6.5331    6.5348    3.5687 H         1 RES1    0.0000
     11 N3         7.6839    4.8208    7.4862 N.3       1 RES1    0.0000
     12 N4         7.4468    5.6081   -4.3065 N.pl3     1 RES1    0.0000
     13 C6         7.9153    4.5729   -0.7789 C.ar      1 RES1    0.0000
     14 H3         8.2704    3.8443   -0.2831 H         1 RES1    0.0000
     15 C7         8.3197    3.8162    5.3836 C.ar      1 RES1    0.0000
     16 H4         8.7871    3.1259    5.8387 H         1 RES1    0.0000
     17 C8         8.2896    3.8349    4.0109 C.ar      1 RES1    0.0000
     18 H5         8.7259    3.1418    3.5299 H         1 RES1    0.0000
     19 O2         7.6836    4.5352   -4.8645 O.2       1 RES1    0.0000
     20 C9         7.3466    5.6628   -0.1203 C.ar      1 RES1    0.0000
     21 C10        7.9561    4.5660   -2.1535 C.ar      1 RES1    0.0000
     22 H6         8.3524    3.8388   -2.6197 H         1 RES1    0.0000
     23 C11        6.8527    6.7215   -2.2219 C.ar      1 RES1    0.0000
     24 H7         6.5029    7.4478   -2.7233 H         1 RES1    0.0000
     25 C12        6.8144    6.7271   -0.8399 C.ar      1 RES1    0.0000
     26 H8         6.4233    7.4602   -0.3793 H         1 RES1    0.0000
     27 C13        8.4073    3.8022    8.2345 C.3       1 RES1    0.0000
     28 H9         8.2580    2.9227    7.8053 H         1 RES1    0.0000
     29 H10        8.0394    3.7565    9.1522 H         1 RES1    0.0000
     30 C14        6.9703    5.8343    8.2623 C.3       1 RES1    0.0000
     31 H11        7.0639    6.7109    7.8109 H         1 RES1    0.0000
     32 H12        7.3864    5.9079    9.1577 H         1 RES1    0.0000
     33 C15        5.4919    5.5144    8.4251 C.3       1 RES1    0.0000
     34 H13        5.0810    5.4079    7.5408 H         1 RES1    0.0000
     35 H14        5.0507    6.2457    8.9043 H         1 RES1    0.0000
     36 H15        5.3918    4.6830    8.9339 H         1 RES1    0.0000
     37 C16        9.9099    4.0638    8.3159 C.3       1 RES1    0.0000
     38 H16       10.2731    4.1660    7.4113 H         1 RES1    0.0000
     39 H17       10.3496    3.3090    8.7600 H         1 RES1    0.0000
     40 H18       10.0714    4.8834    8.8266 H         1 RES1    0.0000
     41 N5         9.4785   11.0070   -0.4932 N.2       2 RES2    0.0000
     42 C17        9.4884   10.0177    4.3532 C.ar      2 RES2    0.0000
     43 N6         9.1631    9.9518    0.1293 N.2       2 RES2    0.0000
     44 C18        9.3056   10.0468    1.5392 C.ar      2 RES2    0.0000
     45 C19        9.2021   10.8685   -4.6492 C.ar      2 RES2    0.0000
     46 O3         9.3444   11.9173   -6.7096 O.2       2 RES2    0.0000
     47 C20        9.9307   11.1321    3.5854 C.ar      2 RES2    0.0000
     48 H19       10.2874   11.8916    4.0294 H         2 RES2    0.0000
     49 C21        8.8767    8.9440    2.2682 C.ar      2 RES2    0.0000
     50 H20        8.5144    8.1945    1.8093 H         2 RES2    0.0000
     51 C22        9.3341   10.8801   -1.9092 C.ar      2 RES2    0.0000
     52 C23        9.7998   11.9686   -2.6326 C.ar      2 RES2    0.0000
     53 H21       10.1605   12.7181   -2.1738 H         2 RES2    0.0000
     54 N7         9.1473   10.8543   -6.1105 N.pl3     2 RES2    0.0000
     55 C24        8.7096    9.7768   -3.9480 C.ar      2 RES2    0.0000
     56 H22        8.3337    9.0363   -4.4087 H         2 RES2    0.0000
     57 C25        8.7758    9.7856   -2.5697 C.ar      2 RES2    0.0000
     58 H23        8.4427    9.0490   -2.0720 H         2 RES2    0.0000
     59 N8         9.5836   10.0176    5.7163 N.3       2 RES2    0.0000
     60 C26        8.9672    8.9154    3.6390 C.ar      2 RES2    0.0000
     61 H24        8.6756    8.1448    4.1126 H         2 RES2    0.0000
     62 O4         8.9148    9.7889   -6.6807 O.2       2 RES2    0.0000
     63 C27        9.7438   11.9740   -4.0257 C.ar      2 RES2    0.0000
     64 H25       10.0669   12.7124   -4.5289 H         2 RES2    0.0000
     65 C28        9.8530   11.1322    2.2182 C.ar      2 RES2    0.0000
     66 H26       10.1752   11.8790    1.7279 H         2 RES2    0.0000
     67 C29       10.1728   11.1299    6.4548 C.3       2 RES2    0.0000
     68 H27       10.8943   11.5303    5.9090 H         2 RES2    0.0000
     69 H28       10.5817   10.7805    7.2855 H         2 RES2    0.0000
     70 C30        8.9415    9.0112    6.5584 C.3       2 RES2    0.0000
     71 H29        8.2531    8.5375    6.0274 H         2 RES2    0.0000
     72 H30        8.4858    9.4640    7.3114 H         2 RES2    0.0000
     73 C31        9.1696   12.2144    6.8174 C.3       2 RES2    0.0000
     74 H31        8.7762   12.5826    5.9997 H         2 RES2    0.0000
     75 H32        9.6249   12.9283    7.3114 H         2 RES2    0.0000
     76 H33        8.4618   11.8318    7.3761 H         2 RES2    0.0000
     77 C32        9.9251    7.9952    7.1134 C.3       2 RES2    0.0000
     78 H34       10.3268    7.4920    6.3734 H         2 RES2    0.0000
     79 H35        9.4538    7.3780    7.7110 H         2 RES2    0.0000
     80 H36       10.6281    8.4602    7.6129 H         2 RES2    0.0000
@<TRIPOS>BOND
     1    1    2 2
     2    2    5 1
     3    3   12 2
     4    4    6 ar
     5    5    9 ar
     6    6    7 1
     7    8   12 1
     8    9    6 ar
     9   10    9 1
    10   11    4 1
    11   12   19 2
    12   13   14 1
    13   15    4 ar
    14   16   15 1
    15   17    5 ar
    16   18   17 1
    17   20    1 1
    18   21    8 ar
    19   22   21 1
    20   23    8 ar
    21   24   23 1
    22   25   20 ar
    23   26   25 1
    24   27   11 1
    25   28   27 1
    26   29   27 1
    27   30   11 1
    28   31   30 1
    29   32   30 1
    30   33   30 1
    31   34   33 1
    32   35   33 1
    33   36   33 1
    34   37   27 1
    35   38   37 1
    36   39   37 1
    37   40   37 1
    38   41   43 2
    39   42   47 ar
    40   43   44 1
    41   44   49 ar
    42   45   54 1
    43   46   54 2
    44   47   48 1
    45   49   50 1
    46   51   41 1
    47   52   51 ar
    48   53   52 1
    49   54   62 2
    50   55   45 ar
    51   56   55 1
    52   57   51 ar
    53   58   57 1
    54   59   42 1
    55   60   42 ar
    56   61   60 1
    57   63   45 ar
    58   64   63 1
    59   65   44 ar
    60   66   65 1
    61   67   59 1
    62   68   67 1
    63   69   67 1
    64   70   59 1
    65   71   70 1
    66   72   70 1
    67   73   67 1
    68   74   73 1
    69   75   73 1
    70   76   73 1
    71   77   70 1
    72   78   77 1
    73   79   77 1
    74   80   77 1
    75   13   20 ar
    76   13   21 ar
    77   15   17 ar
    78   23   25 ar
    79   47   65 ar
    80   49   60 ar
    81   52   63 ar
    82   55   57 ar
@<TRIPOS>SUBSTRUCTURE
     1 RES1 1
     2 RES2 41

@<TRIPOS>CRYSIN
   7.5988   11.0890   19.0880  75.7490  85.5730  70.8050   2 1

