# MOL2 file generated by ConQuest
# Please check atom types

@<TRIPOS>MOLECULE
CUFHAO
    50    53     1
SMALL
NO_CHARGES
****
Generated from CSD

@<TRIPOS>ATOM
      1 O1         5.1696    6.6415    2.1146 O.2       1 RES1    0.0000
      2 O2         4.7403    8.3884    3.4741 O.3       1 RES1    0.0000
      3 O3         1.8899    7.6901    6.3370 O.3       1 RES1    0.0000
      4 C1         5.0738    7.0974    7.8201 C.2       1 RES1    0.0000
      5 H1         5.9088    7.4223    7.5036 H         1 RES1    0.0000
      6 N1         5.1701   11.7181   -1.8902 N.pl3     1 RES1    0.0000
      7 C2         4.9985    8.8443    1.1846 C.ar      1 RES1    0.0000
      8 C3         5.0245    6.6856    9.2223 C.ar      1 RES1    0.0000
      9 O4         4.9582   12.8758   -1.5980 O.2       1 RES1    0.0000
     10 C4         4.9876    7.8111    2.2664 C.2       1 RES1    0.0000
     11 C5         4.0626    7.0651    6.9246 C.2       1 RES1    0.0000
     12 C6         5.1625    9.3651   -1.1548 C.ar      1 RES1    0.0000
     13 H2         5.2379    9.0947   -2.0632 H         1 RES1    0.0000
     14 C7         4.0865    7.5015    5.5180 C.2       1 RES1    0.0000
     15 C8         4.9991   11.1435    0.4785 C.ar      1 RES1    0.0000
     16 H3         4.9590   12.0715    0.6786 H         1 RES1    0.0000
     17 C9         6.5591    7.4492    4.7743 C.ar      1 RES1    0.0000
     18 C10        5.1075    7.6912    4.6614 C.2       1 RES1    0.0000
     19 C11        4.9533   10.1956    1.4815 C.ar      1 RES1    0.0000
     20 H4         4.8903   10.4752    2.3887 H         1 RES1    0.0000
     21 C12        5.1044   10.6964   -0.8217 C.ar      1 RES1    0.0000
     22 C13        5.1084    8.4302   -0.1412 C.ar      1 RES1    0.0000
     23 H5         5.1463    7.5038   -0.3491 H         1 RES1    0.0000
     24 C14        7.4612    8.3258    4.1766 C.ar      1 RES1    0.0000
     25 H6         7.1361    9.0817    3.6988 H         1 RES1    0.0000
     26 C15        2.6370    7.7150    5.1211 C.3       1 RES1    0.0000
     27 H7         2.5273    8.5862    4.6637 H         1 RES1    0.0000
     28 H8         2.3334    6.9952    4.5108 H         1 RES1    0.0000
     29 C16        9.3162    7.0367    4.9709 C.ar      1 RES1    0.0000
     30 H9        10.2535    6.9077    5.0599 H         1 RES1    0.0000
     31 C17        2.6010    6.8239    7.2286 C.3       1 RES1    0.0000
     32 H10        2.3603    5.8775    7.0642 H         1 RES1    0.0000
     33 H11        2.3967    7.0467    8.1704 H         1 RES1    0.0000
     34 C18        8.8248    8.1084    4.2672 C.ar      1 RES1    0.0000
     35 H12        9.4264    8.7068    3.8400 H         1 RES1    0.0000
     36 C19        5.9152    7.2626   10.1327 C.ar      1 RES1    0.0000
     37 H13        6.5285    7.9248    9.8374 H         1 RES1    0.0000
     38 C20        7.0600    6.3315    5.4447 C.ar      1 RES1    0.0000
     39 H14        6.4625    5.6993    5.8287 H         1 RES1    0.0000
     40 C21        8.4301    6.1448    5.5518 C.ar      1 RES1    0.0000
     41 H15        8.7649    5.3958    6.0287 H         1 RES1    0.0000
     42 C22        5.9126    6.8785   11.4656 C.ar      1 RES1    0.0000
     43 H16        6.5043    7.2941   12.0810 H         1 RES1    0.0000
     44 C23        4.1715    5.3029   11.0168 C.ar      1 RES1    0.0000
     45 H17        3.5836    4.6207   11.3200 H         1 RES1    0.0000
     46 C24        5.0497    5.8906   11.8959 C.ar      1 RES1    0.0000
     47 H18        5.0628    5.6155   12.8066 H         1 RES1    0.0000
     48 C25        4.1448    5.7023    9.6958 C.ar      1 RES1    0.0000
     49 H19        3.5216    5.3060    9.1000 H         1 RES1    0.0000
     50 O5         5.4360   11.3455   -3.0175 O.2       1 RES1    0.0000
@<TRIPOS>BOND
     1    1   10 2
     2    2   10 1
     3    3   26 1
     4    4    5 1
     5    6    9 2
     6    7   10 1
     7    8    4 1
     8   11    4 2
     9   12   13 1
    10   14   11 1
    11   15   16 1
    12   17   18 1
    13   18    2 1
    14   19    7 ar
    15   20   19 1
    16   21    6 1
    17   22    7 ar
    18   23   22 1
    19   24   17 ar
    20   25   24 1
    21   26   14 1
    22   27   26 1
    23   28   26 1
    24   29   30 1
    25   31    3 1
    26   32   31 1
    27   33   31 1
    28   34   24 ar
    29   35   34 1
    30   36    8 ar
    31   37   36 1
    32   38   17 ar
    33   39   38 1
    34   40   29 ar
    35   41   40 1
    36   42   36 ar
    37   43   42 1
    38   44   45 1
    39   46   42 ar
    40   47   46 1
    41   48    8 ar
    42   49   48 1
    43   50    6 2
    44   11   31 1
    45   12   21 ar
    46   12   22 ar
    47   14   18 2
    48   15   19 ar
    49   15   21 ar
    50   29   34 ar
    51   38   40 ar
    52   44   46 ar
    53   44   48 ar
@<TRIPOS>SUBSTRUCTURE
     1 RES1 1

@<TRIPOS>CRYSIN
  13.4720    7.6820   39.2240  90.0000  90.0000  90.0000  61 1

