# MOL2 file generated by ConQuest
# Please check atom types

@<TRIPOS>MOLECULE
CUGCOW
    30    34     1
SMALL
NO_CHARGES
****
Generated from CSD

@<TRIPOS>ATOM
      1 C1         7.7552    2.5632    6.4411 C.3       1 RES1    0.0000
      2 N1         6.6045    3.0299    5.6415 N.pl3     1 RES1    0.0000
      3 O1         6.8562    3.8824    4.8317 O.2       1 RES1    0.0000
      4 O2         5.5331    2.5183    5.8522 O.2       1 RES1    0.0000
      5 C2         7.7002    1.7361    7.7764 C.3       1 RES1    0.0000
      6 N2         6.4681    1.2963    8.4818 N.pl3     1 RES1    0.0000
      7 O3         6.1840    1.8750    9.4864 O.2       1 RES1    0.0000
      8 O4         5.8464    0.4062    7.9424 O.2       1 RES1    0.0000
      9 C3         8.8134    2.6662    8.3557 C.3       1 RES1    0.0000
     10 N3         8.8440    3.2155    9.7283 N.pl3     1 RES1    0.0000
     11 O5         8.9453    2.4046   10.6121 O.2       1 RES1    0.0000
     12 O6         8.7740    4.4202    9.8285 O.2       1 RES1    0.0000
     13 C4         9.8982    1.6829    7.8141 C.3       1 RES1    0.0000
     14 N4        11.0584    1.1803    8.5956 N.pl3     1 RES1    0.0000
     15 O7        11.6239    1.9853    9.2649 O.2       1 RES1    0.0000
     16 O8        11.3238    0.0204    8.4444 O.2       1 RES1    0.0000
     17 C5         8.7888    0.7838    7.1937 C.3       1 RES1    0.0000
     18 N5         8.7860   -0.6939    7.2686 N.pl3     1 RES1    0.0000
     19 O9         9.2211   -1.2881    6.3099 O.2       1 RES1    0.0000
     20 O10        8.3592   -1.1631    8.2915 O.2       1 RES1    0.0000
     21 C6         8.8549    1.6151    5.8703 C.3       1 RES1    0.0000
     22 N6         8.8410    1.0094    4.5169 N.pl3     1 RES1    0.0000
     23 O11        9.9070    0.8174    3.9928 O.2       1 RES1    0.0000
     24 O12        7.7415    0.7340    4.0948 O.2       1 RES1    0.0000
     25 C7         9.9579    2.5166    6.4929 C.3       1 RES1    0.0000
     26 N7        11.1686    2.9931    5.8071 N.pl3     1 RES1    0.0000
     27 O13       10.9923    3.5260    4.7588 O.2       1 RES1    0.0000
     28 O14       12.2159    2.8714    6.3821 O.2       1 RES1    0.0000
     29 C8         8.8577    3.4884    7.0398 C.3       1 RES1    0.0000
     30 H1         8.8785    4.4660    6.9780 H         1 RES1    0.0000
@<TRIPOS>BOND
     1    1    2 1
     2    2    3 2
     3    4    2 2
     4    5    1 1
     5    6    5 1
     6    7    6 2
     7    8    6 2
     8    9    5 1
     9   10    9 1
    10   11   10 2
    11   12   10 2
    12   13    9 1
    13   14   13 1
    14   15   14 2
    15   16   14 2
    16   17    5 1
    17   18   17 1
    18   19   18 2
    19   20   18 2
    20   21    1 1
    21   22   21 1
    22   23   22 2
    23   24   22 2
    24   25   13 1
    25   26   25 1
    26   27   26 2
    27   28   26 2
    28   29    1 1
    29   30   29 1
    30    9   29 1
    31   13   17 1
    32   17   21 1
    33   21   25 1
    34   25   29 1
@<TRIPOS>SUBSTRUCTURE
     1 RES1 1

@<TRIPOS>CRYSIN
  23.5942    8.1735   14.2642  90.0000  90.0000  90.0000  60 1

