# MOL2 file generated by ConQuest
# Please check atom types

@<TRIPOS>MOLECULE
CUGDAJ
    34    36     1
SMALL
NO_CHARGES
****
Generated from CSD

@<TRIPOS>ATOM
      1 O1         4.7929    4.3247    1.3371 O.3       1 RES1    0.0000
      2 O2         2.8689    2.5022    2.0723 O.3       1 RES1    0.0000
      3 O3        -1.0801    2.5464    1.2295 O.2       1 RES1    0.0000
      4 O4        -1.0965    4.5554    2.2341 O.3       1 RES1    0.0000
      5 N1         4.1166    2.5722    2.7516 N.2       1 RES1    0.0000
      6 N2         0.7062    3.9448    1.0837 N.am      1 RES1    0.0000
      7 C1         2.8917    2.9717    0.7103 C.3       1 RES1    0.0000
      8 C2         1.4624    2.9933    0.2712 C.3       1 RES1    0.0000
      9 C3         1.3438    5.1392    1.4393 C.2       1 RES1    0.0000
     10 C4         2.6048    5.3555    1.2153 C.2       1 RES1    0.0000
     11 C5         3.5231    4.3330    0.6410 C.3       1 RES1    0.0000
     12 C6         4.9283    3.4526    2.3613 C.2       1 RES1    0.0000
     13 C7         6.2385    3.5916    3.0361 C.ar      1 RES1    0.0000
     14 C8         7.1054    4.6161    2.7418 C.ar      1 RES1    0.0000
     15 C9         8.3286    4.7109    3.3819 C.ar      1 RES1    0.0000
     16 C10        8.6859    3.8181    4.3314 C.ar      1 RES1    0.0000
     17 C11        7.8257    2.7936    4.6612 C.ar      1 RES1    0.0000
     18 C12        6.6006    2.6690    4.0033 C.ar      1 RES1    0.0000
     19 C13       -0.5400    3.5854    1.5060 C.2       1 RES1    0.0000
     20 C14       -2.4346    4.2660    2.7249 C.3       1 RES1    0.0000
     21 H1         3.4170    2.4198    0.1414 H         1 RES1    0.0000
     22 H2         8.0650    2.1706    5.3404 H         1 RES1    0.0000
     23 H3         1.0953    2.1232    0.3689 H         1 RES1    0.0000
     24 H4         6.0102    1.9482    4.2220 H         1 RES1    0.0000
     25 H5         1.4207    3.2539   -0.6428 H         1 RES1    0.0000
     26 H6        -2.7299    5.0033    3.2219 H         1 RES1    0.0000
     27 H7         0.8412    5.8250    1.8625 H         1 RES1    0.0000
     28 H8        -2.9889    4.1188    1.9737 H         1 RES1    0.0000
     29 H9         2.9661    6.2112    1.4251 H         1 RES1    0.0000
     30 H10       -2.3874    3.4907    3.2592 H         1 RES1    0.0000
     31 H11        3.6797    4.5492   -0.2703 H         1 RES1    0.0000
     32 H12        6.8588    5.2659    2.0901 H         1 RES1    0.0000
     33 H13        8.9262    5.4152    3.1498 H         1 RES1    0.0000
     34 H14        9.5298    3.8954    4.7590 H         1 RES1    0.0000
@<TRIPOS>BOND
     1    1   11 1
     2    2    5 1
     3    3   19 2
     4    4   19 1
     5    5   12 2
     6    6    8 1
     7    7    2 1
     8    8    7 1
     9    9    6 1
    10   10    9 2
    11   11    7 1
    12   12    1 1
    13   13   12 1
    14   14   13 ar
    15   15   14 ar
    16   16   15 ar
    17   17   16 ar
    18   18   13 ar
    19   19    6 1
    20   20    4 1
    21   21    7 1
    22   22   17 1
    23   23    8 1
    24   24   18 1
    25   25    8 1
    26   26   20 1
    27   27    9 1
    28   28   20 1
    29   29   10 1
    30   30   20 1
    31   31   11 1
    32   32   14 1
    33   33   15 1
    34   34   16 1
    35   10   11 1
    36   17   18 ar
@<TRIPOS>SUBSTRUCTURE
     1 RES1 1

@<TRIPOS>CRYSIN
  14.3040   10.2970    9.0920  90.0000 102.0900  90.0000  14 1

