# MOL2 file generated by ConQuest
# Please check atom types

@<TRIPOS>MOLECULE
CUGHAO
    60    56     2
SMALL
NO_CHARGES
****
Generated from CSD

@<TRIPOS>ATOM
      1 O1         2.7177    4.2504    4.2523 O.3       1 RES1    0.0000
      2 O2         4.5951    3.6962    3.1902 O.2       1 RES1    0.0000
      3 O3         1.8061    5.0350    1.8745 O.2       1 RES1    0.0000
      4 O4         1.4600    0.9012   -3.5478 O.2       1 RES1    0.0000
      5 O5         1.3751   -0.7972   -2.2662 O.2       1 RES1    0.0000
      6 N1         1.0193    0.8356    6.7134 N.2       1 RES1    0.0000
      7 N2         0.8994    1.1532    5.4677 N.2       1 RES1    0.0000
      8 N3         0.7585    2.4990    5.3793 N.3       1 RES1    0.0000
      9 N4         1.4666    0.3986   -2.4465 N.pl3     1 RES1    0.0000
     10 C1         0.9580    1.9741    7.4499 C.ar      1 RES1    0.0000
     11 C2         1.0060    2.1695    8.8416 C.ar      1 RES1    0.0000
     12 H1         1.1138    1.4589    9.4316 H         1 RES1    0.0000
     13 C3         0.8870    3.4505    9.2781 C.ar      1 RES1    0.0000
     14 H2         0.9075    3.6159   10.1931 H         1 RES1    0.0000
     15 C4         0.7371    4.5199    8.4099 C.ar      1 RES1    0.0000
     16 H3         0.6663    5.3771    8.7640 H         1 RES1    0.0000
     17 C5         0.6870    4.3649    7.0674 C.ar      1 RES1    0.0000
     18 H4         0.5857    5.0853    6.4877 H         1 RES1    0.0000
     19 C6         0.7972    3.0540    6.6120 C.ar      1 RES1    0.0000
     20 C7         0.6678    3.1091    4.0776 C.3       1 RES1    0.0000
     21 H5         0.2353    3.9733    4.1581 H         1 RES1    0.0000
     22 H6         0.1212    2.5535    3.5001 H         1 RES1    0.0000
     23 C8         2.0362    3.2899    3.4484 C.3       1 RES1    0.0000
     24 H7         2.5251    2.4411    3.4354 H         1 RES1    0.0000
     25 C9         4.0248    4.4117    3.9657 C.2       1 RES1    0.0000
     26 C10        4.6148    5.5446    4.6715 C.ar      1 RES1    0.0000
     27 C11        3.8446    6.5777    5.1394 C.ar      1 RES1    0.0000
     28 H8         2.9171    6.5268    5.0828 H         1 RES1    0.0000
     29 C12        4.4340    7.6841    5.6907 C.ar      1 RES1    0.0000
     30 H9         3.9024    8.3906    5.9768 H         1 RES1    0.0000
     31 C13        5.8015    7.7679    5.8265 C.ar      1 RES1    0.0000
     32 C14        6.5601    6.7201    5.3787 C.ar      1 RES1    0.0000
     33 H10        7.4840    6.7508    5.4837 H         1 RES1    0.0000
     34 C15        5.9930    5.6277    4.7811 C.ar      1 RES1    0.0000
     35 H11        6.5291    4.9450    4.4507 H         1 RES1    0.0000
     36 C16        6.4236    9.0314    6.4327 C.3       1 RES1    0.0000
     37 H12        7.2997    9.1912    6.0480 H         1 RES1    0.0000
     38 H13        5.8620    9.8013    6.2500 H         1 RES1    0.0000
     39 C17        6.5377    8.8227    7.8667 C.3       1 RES1    0.0000
     40 H14        6.9302    9.5982    8.2725 H         1 RES1    0.0000
     41 H15        7.0916    8.0569    8.0348 H         1 RES1    0.0000
     42 H16        5.6644    8.6747    8.2385 H         1 RES1    0.0000
     43 C18        6.4236    9.0314    6.4327 Du        2 SUP2    0.0000
     44 H17        7.3330    8.7982    6.6752 Du        2 SUP2    0.0000
     45 H18        6.4886    9.6764    5.7117 Du        2 SUP2    0.0000
     46 C19        5.8551    9.7727    7.6129 Du        2 SUP2    0.0000
     47 H19        6.3405   10.5852    7.7519 Du        2 SUP2    0.0000
     48 H20        5.9076    9.2226    8.3970 Du        2 SUP2    0.0000
     49 H21        4.9258    9.9828    7.4399 Du        2 SUP2    0.0000
     50 C20        1.8734    3.8379    2.0313 C.2       1 RES1    0.0000
     51 C21        1.7802    2.9081    0.8977 C.ar      1 RES1    0.0000
     52 C22        1.8344    3.4323   -0.3896 C.ar      1 RES1    0.0000
     53 H22        1.9292    4.3502   -0.5060 H         1 RES1    0.0000
     54 C23        1.7517    2.6240   -1.4852 C.ar      1 RES1    0.0000
     55 H23        1.8072    2.9751   -2.3442 H         1 RES1    0.0000
     56 C24        1.5840    1.2760   -1.2807 C.ar      1 RES1    0.0000
     57 C25        1.5400    0.7120   -0.0403 C.ar      1 RES1    0.0000
     58 H24        1.4391   -0.2066    0.0614 H         1 RES1    0.0000
     59 C26        1.6486    1.5336    1.0534 C.ar      1 RES1    0.0000
     60 H25        1.6344    1.1664    1.9077 H         1 RES1    0.0000
@<TRIPOS>BOND
     1    1   23 1
     2    2   25 2
     3    3   50 2
     4    4    9 2
     5    5    9 2
     6    6    7 2
     7    7    8 1
     8    8   19 1
     9    9   56 1
    10   10    6 1
    11   11   10 ar
    12   12   11 1
    13   13   11 ar
    14   14   13 1
    15   15   13 ar
    16   16   15 1
    17   17   15 ar
    18   18   17 1
    19   19   10 ar
    20   20    8 1
    21   21   20 1
    22   22   20 1
    23   23   20 1
    24   24   23 1
    25   25    1 1
    26   26   25 1
    27   27   26 ar
    28   28   27 1
    29   29   27 ar
    30   30   29 1
    31   31   29 ar
    32   32   31 ar
    33   33   32 1
    34   34   26 ar
    35   35   34 1
    36   36   31 1
    37   37   36 1
    38   38   36 1
    39   39   36 1
    40   40   39 1
    41   41   39 1
    42   42   39 1
    43   50   23 1
    44   51   50 1
    45   52   51 ar
    46   53   52 1
    47   54   52 ar
    48   55   54 1
    49   56   54 ar
    50   57   56 ar
    51   58   57 1
    52   59   51 ar
    53   60   59 1
    54   17   19 ar
    55   32   34 ar
    56   57   59 ar
@<TRIPOS>SUBSTRUCTURE
     1 RES1 1
     2 SUP2 43

@<TRIPOS>CRYSIN
  18.8950    6.9805   18.1050  90.0000 116.7550  90.0000  14 1

