# MOL2 file generated by ConQuest
# Please check atom types

@<TRIPOS>MOLECULE
CUGLOF
    28    32     1
SMALL
NO_CHARGES
****
Generated from CSD

@<TRIPOS>ATOM
      1 C1         0.6949    1.9827    4.5157 C.3       1 RES1    0.0000
      2 C2         2.3937    1.2130    5.8294 C.3       1 RES1    0.0000
      3 C3         2.3776    2.7228    6.1812 C.3       1 RES1    0.0000
      4 C4         1.0321    3.1232    5.5204 C.3       1 RES1    0.0000
      5 C5        -0.0289    2.6052    6.5188 C.3       1 RES1    0.0000
      6 C6        -0.0607    1.3048    5.6542 C.3       1 RES1    0.0000
      7 C7         1.0760    0.8045    6.5777 C.3       1 RES1    0.0000
      8 C8         0.8190    1.9457    7.6127 C.3       1 RES1    0.0000
      9 C9         1.9914    1.2330    4.3756 C.3       1 RES1    0.0000
     10 C10        2.1140    2.7280    7.6828 C.3       1 RES1    0.0000
     11 N1         1.8195   -0.1110    3.7021 N.pl3     1 RES1    0.0000
     12 N2         3.0168    1.9479    3.5014 N.pl3     1 RES1    0.0000
     13 N3         1.0323   -0.5839    7.1111 N.pl3     1 RES1    0.0000
     14 O1         1.2805   -0.9718    4.3565 O.2       1 RES1    0.0000
     15 O2         2.1618   -0.2450    2.5556 O.2       1 RES1    0.0000
     16 O3         4.1594    1.5668    3.5986 O.2       1 RES1    0.0000
     17 O4         2.6284    2.8531    2.8104 O.2       1 RES1    0.0000
     18 O5        -0.0072   -1.1679    7.0873 O.2       1 RES1    0.0000
     19 O6         2.0637   -1.0354    7.5920 O.2       1 RES1    0.0000
     20 H1         0.1649    2.1907    3.6623 H         1 RES1    0.0000
     21 H2         3.0874    0.7623    6.0984 H         1 RES1    0.0000
     22 H3         3.1063    3.1380    5.8914 H         1 RES1    0.0000
     23 H4         0.9817    3.9225    5.2864 H         1 RES1    0.0000
     24 H5        -0.7445    3.0862    6.7672 H         1 RES1    0.0000
     25 H6        -0.9134    0.5847    5.6048 H         1 RES1    0.0000
     26 H7         0.3989    1.7022    8.3276 H         1 RES1    0.0000
     27 H8         2.8075    2.2351    8.1525 H         1 RES1    0.0000
     28 H9         1.9501    3.7153    7.9933 H         1 RES1    0.0000
@<TRIPOS>BOND
     1    1    4 1
     2    2    3 1
     3    3    4 1
     4    4    5 1
     5    5    6 1
     6    6    1 1
     7    7    2 1
     8    8    5 1
     9    9    1 1
    10   10    3 1
    11   11    9 1
    12   12    9 1
    13   13    7 1
    14   14   11 2
    15   15   11 2
    16   16   12 2
    17   17   12 2
    18   18   13 2
    19   19   13 2
    20   20    1 1
    21   21    2 1
    22   22    3 1
    23   23    4 1
    24   24    5 1
    25   25    6 1
    26   26    8 1
    27   27   10 1
    28   28   10 1
    29    2    9 1
    30    6    7 1
    31    7    8 1
    32    8   10 1
@<TRIPOS>SUBSTRUCTURE
     1 RES1 1

@<TRIPOS>CRYSIN
   9.3520    7.4010   16.0700  90.0000  97.7600  90.0000  14 1

