# MOL2 file generated by ConQuest
# Please check atom types

@<TRIPOS>MOLECULE
CUGSOM
    42    45     1
SMALL
NO_CHARGES
****
Generated from CSD

@<TRIPOS>ATOM
      1 O1        -4.7033    0.9621   13.7714 O.2       1 RES1    0.0000
      2 O2        -3.9138    2.6328   14.8163 O.2       1 RES1    0.0000
      3 N1         0.4362    0.5794    6.3481 N.3       1 RES1    0.0000
      4 N2        -0.3901    2.1589    8.3920 N.3       1 RES1    0.0000
      5 N3        -3.9973    1.9515   13.8294 N.pl3     1 RES1    0.0000
      6 C1        -1.5596    1.1363    5.0674 C.ar      1 RES1    0.0000
      7 C2        -2.7478    1.8378    4.9513 C.ar      1 RES1    0.0000
      8 C3        -3.1856    2.6198    5.9865 C.ar      1 RES1    0.0000
      9 C4        -2.4301    2.7193    7.1451 C.ar      1 RES1    0.0000
     10 C5         0.9736    0.8626    9.9618 C.ar      1 RES1    0.0000
     11 C6         1.8610   -0.1813   10.1916 C.ar      1 RES1    0.0000
     12 C7         2.2320   -0.9989    9.1672 C.ar      1 RES1    0.0000
     13 C8         1.7422   -0.7891    7.8949 C.ar      1 RES1    0.0000
     14 C9         0.8839    0.2690    7.6349 C.ar      1 RES1    0.0000
     15 C10        0.4754    1.0972    8.6907 C.ar      1 RES1    0.0000
     16 C11       -1.2303    2.0522    7.2636 C.ar      1 RES1    0.0000
     17 C12       -0.7891    1.2406    6.2054 C.ar      1 RES1    0.0000
     18 C13        1.0065   -0.1209    5.2113 C.3       1 RES1    0.0000
     19 C14       -0.6250    3.1957    9.3740 C.3       1 RES1    0.0000
     20 C15       -1.5478    2.8473   10.5205 C.ar      1 RES1    0.0000
     21 C16       -2.3654    1.7406   10.5060 C.ar      1 RES1    0.0000
     22 C17       -3.1850    1.4515   11.5787 C.ar      1 RES1    0.0000
     23 C18       -3.1730    2.2857   12.6624 C.ar      1 RES1    0.0000
     24 C19       -2.3857    3.4078   12.7071 C.ar      1 RES1    0.0000
     25 C20       -1.5721    3.6744   11.6295 C.ar      1 RES1    0.0000
     26 H1        -1.2726    0.5770    4.3562 H         1 RES1    0.0000
     27 H2        -3.2597    1.7762    4.1531 H         1 RES1    0.0000
     28 H3        -4.0063    3.0926    5.9115 H         1 RES1    0.0000
     29 H4        -2.7420    3.2549    7.8647 H         1 RES1    0.0000
     30 H5         0.7055    1.4195   10.6826 H         1 RES1    0.0000
     31 H6         2.2095   -0.3235   11.0635 H         1 RES1    0.0000
     32 H7         2.8313   -1.7169    9.3305 H         1 RES1    0.0000
     33 H8         1.9944   -1.3745    7.1911 H         1 RES1    0.0000
     34 H9         0.8407   -1.0522    5.2996 H         1 RES1    0.0000
     35 H10        0.6069    0.1979    4.4107 H         1 RES1    0.0000
     36 H11        1.9426    0.0344    5.1823 H         1 RES1    0.0000
     37 H12        0.2161    3.4374    9.7453 H         1 RES1    0.0000
     38 H13       -0.9977    3.9433    8.9217 H         1 RES1    0.0000
     39 H14       -2.3668    1.1695    9.7489 H         1 RES1    0.0000
     40 H15       -3.7464    0.6861   11.5654 H         1 RES1    0.0000
     41 H16       -2.3993    3.9836   13.4618 H         1 RES1    0.0000
     42 H17       -1.0144    4.4434   11.6465 H         1 RES1    0.0000
@<TRIPOS>BOND
     1    1    5 2
     2    2    5 2
     3    3   14 1
     4    4   15 1
     5    5   23 1
     6    6    7 ar
     7    7    8 ar
     8    8    9 ar
     9    9   16 ar
    10   10   11 ar
    11   11   12 ar
    12   12   13 ar
    13   13   14 ar
    14   14   15 ar
    15   15   10 ar
    16   16    4 1
    17   17    3 1
    18   18    3 1
    19   19    4 1
    20   20   19 1
    21   21   20 ar
    22   22   21 ar
    23   23   22 ar
    24   24   23 ar
    25   25   20 ar
    26   26    6 1
    27   27    7 1
    28   28    8 1
    29   29    9 1
    30   30   10 1
    31   31   11 1
    32   32   12 1
    33   33   13 1
    34   34   18 1
    35   35   18 1
    36   36   18 1
    37   37   19 1
    38   38   19 1
    39   39   21 1
    40   40   22 1
    41   41   24 1
    42   42   25 1
    43    6   17 ar
    44   16   17 ar
    45   24   25 ar
@<TRIPOS>SUBSTRUCTURE
     1 RES1 1

@<TRIPOS>CRYSIN
  11.3570   11.8490   13.0200  90.0000 111.7400  90.0000  14 2

