# MOL2 file generated by ConQuest
# Please check atom types

@<TRIPOS>MOLECULE
CUHGES
    29    25     2
SMALL
NO_CHARGES
****
Generated from CSD

@<TRIPOS>ATOM
      1 O1         7.0538    3.7744    0.6891 O.2       1 RES1    0.0000
      2 O2         6.3357    2.4027   -0.9409 O.3       1 RES1    0.0000
      3 O3         4.1613    0.3056    1.6436 O.3       1 RES1    0.0000
      4 H1         3.7835   -0.3067    1.2506 H         1 RES1    0.0000
      5 N1         4.9127    1.0491    0.7323 N.2       1 RES1    0.0000
      6 C1         7.0556    2.5615    4.6809 C.ar      1 RES1    0.0000
      7 H2         6.6268    3.3463    4.9352 H         1 RES1    0.0000
      8 C2         8.0860    2.0620    5.4600 C.ar      1 RES1    0.0000
      9 H3         8.3411    2.5088    6.2340 H         1 RES1    0.0000
     10 C3         8.7349    0.8991    5.0877 C.ar      1 RES1    0.0000
     11 H4         9.4305    0.5672    5.6087 H         1 RES1    0.0000
     12 C4         8.3492    0.2308    3.9408 C.ar      1 RES1    0.0000
     13 H5         8.7860   -0.5507    3.6888 H         1 RES1    0.0000
     14 C5         7.3094    0.7232    3.1628 C.ar      1 RES1    0.0000
     15 H6         7.0491    0.2627    2.3983 H         1 RES1    0.0000
     16 C6         6.6529    1.8999    3.5163 C.ar      1 RES1    0.0000
     17 C7         5.4930    2.4555    2.7013 C.3       1 RES1    0.0000
     18 H7         4.6595    2.1527    3.0950 H         1 RES1    0.0000
     19 H8         5.5086    3.4238    2.7530 H         1 RES1    0.0000
     20 C8         5.5259    2.0460    1.2621 C.2       1 RES1    0.0000
     21 C9         6.3811    2.8308    0.3078 C.2       1 RES1    0.0000
     22 C10        7.1875    3.1595   -1.8375 C.3       1 RES1    0.0000
     23 H9         7.1118    2.8045   -2.7257 H         1 RES1    0.0000
     24 H10        8.0991    3.0946   -1.5443 H         1 RES1    0.0000
     25 H11        6.9151    4.0800   -1.8360 H         1 RES1    0.0000
     26 C11        7.7498    4.4213   -0.4637 Du        2 SUP2    0.0000
     27 H12        8.2738    5.1605   -0.1469 Du        2 SUP2    0.0000
     28 H13        7.0980    4.7378   -1.0932 Du        2 SUP2    0.0000
     29 H14        8.3242    3.7816   -0.8897 Du        2 SUP2    0.0000
@<TRIPOS>BOND
     1    1   21 2
     2    2   21 1
     3    3    4 1
     4    5    3 1
     5    6    7 1
     6    8    6 ar
     7    9    8 1
     8   10    8 ar
     9   11   10 1
    10   12   10 ar
    11   13   12 1
    12   14   12 ar
    13   15   14 1
    14   16    6 ar
    15   17   16 1
    16   18   17 1
    17   19   17 1
    18   20    5 2
    19   21   20 1
    20   22    2 1
    21   23   22 1
    22   24   22 1
    23   25   22 1
    24   14   16 ar
    25   17   20 1
@<TRIPOS>SUBSTRUCTURE
     1 RES1 1
     2 SUP2 26

@<TRIPOS>CRYSIN
   8.6435    5.4957   21.1460  90.0000  97.1200  90.0000 231 1

