# MOL2 file generated by ConQuest
# Please check atom types

@<TRIPOS>MOLECULE
CUKCAM15
    19    19     1
SMALL
NO_CHARGES
****
Generated from CSD

@<TRIPOS>ATOM
      1 H1         0.5099    0.6634    1.7972 H         1 RES1    0.0000
      2 H2         2.1276    2.6878    4.9324 H         1 RES1    0.0000
      3 H3         1.7071    4.5249    1.3426 H         1 RES1    0.0000
      4 H4         3.2873    6.6517    3.3438 H         1 RES1    0.0000
      5 O1         1.5021    0.4216    5.5023 O.2       1 RES1    0.0000
      6 O2         2.8542    5.1035    5.0080 O.2       1 RES1    0.0000
      7 O3         0.9632    3.4782   -0.7351 O.2       1 RES1    0.0000
      8 O4         2.8931    5.9493    2.9212 O.3       1 RES1    0.0000
      9 N1         0.5346    2.6121    0.0148 N.pl3     1 RES1    0.0000
     10 O5        -0.2914    1.7605   -0.2978 O.2       1 RES1    0.0000
     11 O6         0.7451   -0.6851    3.7963 O.2       1 RES1    0.0000
     12 N2         1.1745    0.3337    4.3233 N.pl3     1 RES1    0.0000
     13 C1         0.8751    1.4603    2.1627 C.ar      1 RES1    0.0000
     14 C2         2.6330    5.0197    3.8032 C.2       1 RES1    0.0000
     15 C3         2.0296    3.7886    3.2178 C.ar      1 RES1    0.0000
     16 C4         1.3169    1.5294    3.4757 C.ar      1 RES1    0.0000
     17 C5         1.0303    2.6084    1.4045 C.ar      1 RES1    0.0000
     18 C6         1.6116    3.7664    1.8887 C.ar      1 RES1    0.0000
     19 C7         1.8711    2.6707    4.0302 C.ar      1 RES1    0.0000
@<TRIPOS>BOND
     1    1   13 1
     2    2   19 1
     3    3   18 1
     4    4    8 1
     5    5   12 2
     6    6   14 2
     7    7    9 2
     8    8   14 1
     9    9   10 2
    10   11   12 2
    11   12   16 1
    12   13   16 ar
    13   14   15 1
    14   15   18 ar
    15   16   19 ar
    16   17    9 1
    17   18   17 ar
    18   19   15 ar
    19   13   17 ar
@<TRIPOS>SUBSTRUCTURE
     1 RES1 1

@<TRIPOS>CRYSIN
  20.3727    8.7522    9.6991  90.0000 110.0930  90.0000  15 1

