# MOL2 file generated by ConQuest
# Please check atom types

@<TRIPOS>MOLECULE
CUKCER
    28    29     1
SMALL
NO_CHARGES
****
Generated from CSD

@<TRIPOS>ATOM
      1 N1         0.0402   10.8659    4.2930 N.ar      1 RES1    0.0000
      2 C1         1.0079   11.7896    4.1095 C.ar      1 RES1    0.0000
      3 N2         2.1770   11.8939    4.7668 N.ar      1 RES1    0.0000
      4 C2         2.4018   11.0372    5.7428 C.ar      1 RES1    0.0000
      5 C3         1.4610   10.0084    6.0607 C.ar      1 RES1    0.0000
      6 C4         0.2615    9.9809    5.2651 C.ar      1 RES1    0.0000
      7 N3         3.5142   11.1823    6.4364 N.3       1 RES1    0.0000
      8 H1         4.0730   11.8331    6.2402 H         1 RES1    0.0000
      9 H2         3.6972   10.6282    7.0952 H         1 RES1    0.0000
     10 N4         1.7884    9.1648    7.0438 N.2       1 RES1    0.0000
     11 O1         0.9872    8.2162    7.3491 O.2       1 RES1    0.0000
     12 N5        -0.6377    9.0609    5.4992 N.3       1 RES1    0.0000
     13 H3        -1.3741    9.0326    5.0191 H         1 RES1    0.0000
     14 H4        -0.5062    8.4706    6.1382 H         1 RES1    0.0000
     15 N6         0.7802   12.7365    3.1866 N.3       1 RES1    0.0000
     16 C5         1.8292   13.6257    2.7255 C.3       1 RES1    0.0000
     17 H5         2.1359   13.3382    1.8286 H         1 RES1    0.0000
     18 H6         2.6005   13.5768    3.3439 H         1 RES1    0.0000
     19 C6         1.3381   15.0292    2.6551 C.3       1 RES1    0.0000
     20 H7         1.1288   15.3495    3.5678 H         1 RES1    0.0000
     21 H8         2.0501   15.6074    2.2833 H         1 RES1    0.0000
     22 O2         0.1710   15.1281    1.8373 O.3       1 RES1    0.0000
     23 C7        -0.8574   14.3171    2.3751 C.3       1 RES1    0.0000
     24 H9        -1.6654   14.4025    1.8088 H         1 RES1    0.0000
     25 H10       -1.0862   14.6450    3.2807 H         1 RES1    0.0000
     26 C8        -0.4720   12.8653    2.4605 C.3       1 RES1    0.0000
     27 H11       -1.1826   12.3566    2.9263 H         1 RES1    0.0000
     28 H12       -0.3703   12.4913    1.5494 H         1 RES1    0.0000
@<TRIPOS>BOND
     1    1    2 ar
     2    2    3 ar
     3    3    4 ar
     4    4    5 ar
     5    5    6 ar
     6    6    1 ar
     7    7    4 1
     8    8    7 1
     9    9    7 1
    10   10    5 1
    11   11   10 2
    12   12    6 1
    13   13   12 1
    14   14   12 1
    15   15    2 1
    16   16   15 1
    17   17   16 1
    18   18   16 1
    19   19   16 1
    20   20   19 1
    21   21   19 1
    22   22   19 1
    23   23   22 1
    24   24   23 1
    25   25   23 1
    26   26   15 1
    27   27   26 1
    28   28   26 1
    29   23   26 1
@<TRIPOS>SUBSTRUCTURE
     1 RES1 1

@<TRIPOS>CRYSIN
   6.3340   19.2470    8.4472  90.0000 110.5620  90.0000  14 1

