# MOL2 file generated by ConQuest
# Please check atom types

@<TRIPOS>MOLECULE
CUKCAM14
    20    19     2
SMALL
NO_CHARGES
****
Generated from CSD

@<TRIPOS>ATOM
      1 H1         0.5077    0.6868    1.8121 H         1 RES1    0.0000
      2 H2         2.1645    2.6764    4.9456 H         1 RES1    0.0000
      3 H3         1.7200    4.5225    1.3607 H         1 RES1    0.0000
      4 H4         3.2797    6.6231    3.3469 H         1 RES1    0.0000
      5 O1         1.4936    0.4154    5.5001 O.2       1 RES1    0.0000
      6 O2         2.8849    5.0862    5.0211 O.2       1 RES1    0.0000
      7 O3         0.9909    3.4901   -0.7265 O.2       1 RES1    0.0000
      8 O4         2.9262    5.9461    2.9464 O.3       1 RES1    0.0000
      9 N1         0.5486    2.6332    0.0254 N.pl3     1 RES1    0.0000
     10 O5        -0.2904    1.7990   -0.2883 O.2       1 RES1    0.0000
     11 O6         0.7056   -0.6644    3.8030 O.2       1 RES1    0.0000
     12 N2         1.1571    0.3417    4.3267 N.pl3     1 RES1    0.0000
     13 C1         0.8737    1.4772    2.1694 C.ar      1 RES1    0.0000
     14 C2         2.6614    5.0147    3.8129 C.2       1 RES1    0.0000
     15 C3         2.0500    3.7880    3.2289 C.ar      1 RES1    0.0000
     16 C4         1.3139    1.5363    3.4817 C.ar      1 RES1    0.0000
     17 C5         1.0411    2.6230    1.4140 C.ar      1 RES1    0.0000
     18 C6         1.6317    3.7705    1.8997 C.ar      1 RES1    0.0000
     19 C7         1.8828    2.6687    4.0373 C.ar      1 RES1    0.0000
     20 H5         3.0646    5.8970    5.5083 Du        2 SUP2    0.0000
@<TRIPOS>BOND
     1    1   13 1
     2    2   19 1
     3    3   18 1
     4    4    8 1
     5    5   12 2
     6    6   14 2
     7    7    9 2
     8    8   14 1
     9    9   10 2
    10   11   12 2
    11   12   16 1
    12   13   16 ar
    13   14   15 1
    14   15   18 ar
    15   16   19 ar
    16   17    9 1
    17   18   17 ar
    18   19   15 ar
    19   13   17 ar
@<TRIPOS>SUBSTRUCTURE
     1 RES1 1
     2 SUP2 20

@<TRIPOS>CRYSIN
  20.6923    8.7492    9.7407  90.0000 110.5700  90.0000  15 1

