# MOL2 file generated by ConQuest
# Please check atom types

@<TRIPOS>MOLECULE
CUKCAM23
    20    19     2
SMALL
NO_CHARGES
****
Generated from CSD

@<TRIPOS>ATOM
      1 H1         0.4133    0.5867    1.7690 H         1 RES1    0.0000
      2 H2         2.1899    2.6705    5.0775 H         1 RES1    0.0000
      3 H3         1.7658    4.6557    1.2928 H         1 RES1    0.0000
      4 H4         3.3711    6.7343    3.3814 H         1 RES1    0.0000
      5 O1         1.4932    0.4086    5.4945 O.2       1 RES1    0.0000
      6 O2         2.9167    5.0564    5.0298 O.2       1 RES1    0.0000
      7 O3         1.0151    3.4868   -0.7089 O.2       1 RES1    0.0000
      8 O4         2.9672    5.9362    2.9781 O.3       1 RES1    0.0000
      9 N1         0.5639    2.6474    0.0354 N.pl3     1 RES1    0.0000
     10 O5        -0.2828    1.8342   -0.2722 O.2       1 RES1    0.0000
     11 O6         0.6671   -0.6382    3.8093 O.2       1 RES1    0.0000
     12 N2         1.1432    0.3457    4.3264 N.pl3     1 RES1    0.0000
     13 C1         0.8701    1.4853    2.1738 C.ar      1 RES1    0.0000
     14 C2         2.6911    5.0002    3.8110 C.2       1 RES1    0.0000
     15 C3         2.0702    3.7809    3.2336 C.ar      1 RES1    0.0000
     16 C4         1.3115    1.5346    3.4859 C.ar      1 RES1    0.0000
     17 C5         1.0525    2.6303    1.4182 C.ar      1 RES1    0.0000
     18 C6         1.6533    3.7728    1.9097 C.ar      1 RES1    0.0000
     19 C7         1.8921    2.6599    4.0434 C.ar      1 RES1    0.0000
     20 H5         3.2790    5.7182    5.4171 Du        2 SUP2    0.0000
@<TRIPOS>BOND
     1    1   13 1
     2    2   19 1
     3    3   18 1
     4    4    8 1
     5    5   12 2
     6    6   14 2
     7    7    9 2
     8    8   14 1
     9    9   10 2
    10   11   12 2
    11   12   16 1
    12   13   16 ar
    13   14   15 1
    14   15   18 ar
    15   16   19 ar
    16   17    9 1
    17   18   17 ar
    18   19   15 ar
    19   13   17 ar
@<TRIPOS>SUBSTRUCTURE
     1 RES1 1
     2 SUP2 20

@<TRIPOS>CRYSIN
  21.0400    8.7300    9.7600  90.0000 111.1200  90.0000  15 1

