# MOL2 file generated by ConQuest
# Please check atom types

@<TRIPOS>MOLECULE
CUKCAM25
    38    38     2
SMALL
NO_CHARGES
****
Generated from CSD

@<TRIPOS>ATOM
      1 N1         4.2176    2.6267   -0.3627 N.pl3     1 RES1    0.0000
      2 N2         4.8485    0.3149    3.9537 N.pl3     1 RES1    0.0000
      3 O1         5.1798    0.4251    5.1201 O.2       1 RES1    0.0000
      4 O2         4.4003   -0.6595    3.4353 O.2       1 RES1    0.0000
      5 O3         4.6506    3.4847   -1.1053 O.2       1 RES1    0.0000
      6 O4         3.3945    1.7887   -0.6634 O.2       1 RES1    0.0000
      7 O5         6.5895    5.9312    2.5669 O.3       1 RES1    0.0000
      8 H1         6.8635    6.6091    2.9387 H         1 RES1    0.0000
      9 O6         6.5612    5.0810    4.6180 O.2       1 RES1    0.0000
     10 C1         4.7192    2.6389    1.0288 C.ar      1 RES1    0.0000
     11 C2         4.5660    1.4660    1.7687 C.ar      1 RES1    0.0000
     12 H2         4.2069    0.6892    1.4042 H         1 RES1    0.0000
     13 C3         4.9804    1.5456    3.0717 C.ar      1 RES1    0.0000
     14 C4         5.5698    2.6730    3.6594 C.ar      1 RES1    0.0000
     15 H3         5.8411    2.6765    4.5488 H         1 RES1    0.0000
     16 C5         5.7257    3.7795    2.8457 C.ar      1 RES1    0.0000
     17 C6         5.3184    3.7664    1.5181 C.ar      1 RES1    0.0000
     18 H4         5.4486    4.5090    0.9732 H         1 RES1    0.0000
     19 C7         6.3573    5.0338    3.4416 C.2       1 RES1    0.0000
     20 N3        -2.5648    0.3665    8.9809 N.pl3     2 RES2    0.0000
     21 N4        -1.9457    2.6258   13.2554 N.pl3     2 RES2    0.0000
     22 O7        -2.9047    0.4076    7.7936 O.2       2 RES2    0.0000
     23 O8        -2.1162   -0.6796    9.5039 O.2       2 RES2    0.0000
     24 O9        -1.1015    1.7870   13.5843 O.2       2 RES2    0.0000
     25 O10       -2.3889    3.4900   14.0162 O.2       2 RES2    0.0000
     26 O11       -4.3257    5.9557   10.3605 O.3       2 RES2    0.0000
     27 H5        -4.6691    6.5855    9.9650 H         2 RES2    0.0000
     28 O12       -4.2843    5.0950    8.2574 O.2       2 RES2    0.0000
     29 C8        -2.7303    1.5254    9.7928 C.ar      2 RES2    0.0000
     30 C9        -2.2689    1.4791   11.0967 C.ar      2 RES2    0.0000
     31 H6        -1.8584    0.7155   11.4339 H         2 RES2    0.0000
     32 C10       -2.4363    2.5952   11.8749 C.ar      2 RES2    0.0000
     33 C11       -3.0180    3.7664   11.3828 C.ar      2 RES2    0.0000
     34 H7        -3.1177    4.5125   11.9287 H         2 RES2    0.0000
     35 C12       -3.4461    3.7909   10.0671 C.ar      2 RES2    0.0000
     36 C13       -3.2716    2.6608    9.2643 C.ar      2 RES2    0.0000
     37 H8        -3.5244    2.6818    8.3695 H         2 RES2    0.0000
     38 C14       -4.0365    4.9900    9.4930 C.2       2 RES2    0.0000
@<TRIPOS>BOND
     1    1    5 2
     2    2    3 2
     3    4    2 2
     4    6    1 2
     5    7    8 1
     6    9   19 2
     7   10    1 1
     8   11   10 ar
     9   12   11 1
    10   13    2 1
    11   14   13 ar
    12   15   14 1
    13   16   14 ar
    14   17   10 ar
    15   18   17 1
    16   19    7 1
    17   20   22 2
    18   21   24 2
    19   23   20 2
    20   25   21 2
    21   26   27 1
    22   28   38 2
    23   29   20 1
    24   30   29 ar
    25   31   30 1
    26   32   21 1
    27   33   32 ar
    28   34   33 1
    29   35   33 ar
    30   36   29 ar
    31   37   36 1
    32   38   26 1
    33   11   13 ar
    34   16   17 ar
    35   16   19 1
    36   30   32 ar
    37   35   36 ar
    38   35   38 1
@<TRIPOS>SUBSTRUCTURE
     1 RES1 1
     2 RES2 20

@<TRIPOS>CRYSIN
  20.6030    8.7468    9.7202  90.0000 110.3740  90.0000   9 1

