# MOL2 file generated by ConQuest
# Please check atom types

@<TRIPOS>MOLECULE
CUKCAM13
    19    19     1
SMALL
NO_CHARGES
****
Generated from CSD

@<TRIPOS>ATOM
      1 H1         0.2748   -0.5813    5.6580 H         1 RES1    0.0000
      2 H2         2.3956   -2.4416    2.6604 H         1 RES1    0.0000
      3 H3         3.3421    1.4131    3.7095 H         1 RES1    0.0000
      4 H4         0.0337   -4.6596    3.7189 H         1 RES1    0.0000
      5 O1         0.6384    1.7306    6.4183 O.2       1 RES1    0.0000
      6 O2        -0.3922   -2.9621    5.3242 O.2       1 RES1    0.0000
      7 O3         5.0329    0.2352    2.2529 O.2       1 RES1    0.0000
      8 O4         0.6084   -3.8529    3.5175 O.3       1 RES1    0.0000
      9 N1         4.0872   -0.5268    2.0655 N.pl3     1 RES1    0.0000
     10 O5         4.0045   -1.3245    1.1353 O.2       1 RES1    0.0000
     11 N2         1.5502    1.7610    5.5952 N.pl3     1 RES1    0.0000
     12 C1         1.2047   -1.6617    4.1470 C.ar      1 RES1    0.0000
     13 C2         2.2149   -1.6519    3.1803 C.ar      1 RES1    0.0000
     14 O6         2.2915    2.7260    5.4360 O.2       1 RES1    0.0000
     15 C3         0.3963   -2.8914    4.3765 C.2       1 RES1    0.0000
     16 C4         2.8061    0.6260    3.8257 C.ar      1 RES1    0.0000
     17 C5         0.9746   -0.5393    4.9423 C.ar      1 RES1    0.0000
     18 C6         1.7759    0.5813    4.7446 C.ar      1 RES1    0.0000
     19 C7         2.9910   -0.5125    3.0463 C.ar      1 RES1    0.0000
@<TRIPOS>BOND
     1    1   17 1
     2    2   13 1
     3    3   16 1
     4    4    8 1
     5    5   11 2
     6    6   15 2
     7    7    9 2
     8    8   15 1
     9    9   10 2
    10   11   14 2
    11   12   13 ar
    12   13   19 ar
    13   15   12 1
    14   16   18 ar
    15   17   12 ar
    16   18   11 1
    17   19    9 1
    18   16   19 ar
    19   17   18 ar
@<TRIPOS>SUBSTRUCTURE
     1 RES1 1

@<TRIPOS>CRYSIN
   9.7845    8.9435    9.4500  90.0000  97.5770  90.0000  14 1

