# MOL2 file generated by ConQuest
# Please check atom types

@<TRIPOS>MOLECULE
CUKCAM03
    20    19     2
SMALL
NO_CHARGES
****
Generated from CSD

@<TRIPOS>ATOM
      1 O1         0.4019    5.7815    3.5578 O.2       1 RES1    0.0000
      2 O2        -0.6617    4.2625    2.4602 O.2       1 RES1    0.0000
      3 O3         1.9619    1.7621   -0.7892 O.2       1 RES1    0.0000
      4 O4         3.6435    2.6867   -1.7325 O.2       1 RES1    0.0000
      5 O5         4.7552    7.3272   -0.6851 O.2       1 RES1    0.0000
      6 O6         3.8165    8.2615    1.1241 O.3       1 RES1    0.0000
      7 N1         0.2889    5.0025    2.6277 N.pl3     1 RES1    0.0000
      8 N2         2.7359    2.6867   -0.9311 N.pl3     1 RES1    0.0000
      9 C1         2.1545    6.0912    1.4875 C.ar      1 RES1    0.0000
     10 C2         1.3678    4.9741    1.6266 C.ar      1 RES1    0.0000
     11 C3         1.5241    3.8410    0.8516 C.ar      1 RES1    0.0000
     12 C4         2.5369    3.8703   -0.0795 C.ar      1 RES1    0.0000
     13 C5         3.3520    4.9670   -0.2829 C.ar      1 RES1    0.0000
     14 C6         3.1455    6.0859    0.5138 C.ar      1 RES1    0.0000
     15 C7         3.9728    7.3103    0.2886 C.2       1 RES1    0.0000
     16 H1         4.2562    8.9615    0.9462 H         1 RES1    0.0000
     17 H2         2.0171    6.8897    2.0732 H         1 RES1    0.0000
     18 H3         0.9337    3.0425    0.9623 H         1 RES1    0.0000
     19 H4         4.0679    4.9555   -0.9803 H         1 RES1    0.0000
     20 H5         5.2131    7.9855   -0.8138 Du        2 SUP2    0.0000
@<TRIPOS>BOND
     1    1    7 2
     2    2    7 2
     3    3    8 2
     4    4    8 2
     5    5   15 2
     6    6   15 1
     7    7   10 1
     8    8   12 1
     9    9   10 ar
    10   10   11 ar
    11   11   12 ar
    12   12   13 ar
    13   13   14 ar
    14   14    9 ar
    15   15   14 1
    16   16    6 1
    17   17    9 1
    18   18   11 1
    19   19   13 1
@<TRIPOS>SUBSTRUCTURE
     1 RES1 1
     2 SUP2 20

@<TRIPOS>CRYSIN
  10.0237    8.8728    9.5090  90.0000  95.6800  90.0000  14 1

