# MOL2 file generated by ConQuest
# Please check atom types

@<TRIPOS>MOLECULE
CUKCAM02
    19    19     1
SMALL
NO_CHARGES
****
Generated from CSD

@<TRIPOS>ATOM
      1 O1         2.9196    0.6908    5.0337 O.2       1 RES1    0.0000
      2 O2         2.9653    1.5676    2.9758 O.3       1 RES1    0.0000
      3 O3         0.6725   -5.0102    3.8079 O.2       1 RES1    0.0000
      4 O4         1.4918   -3.9578    5.4958 O.2       1 RES1    0.0000
      5 O5        -0.2855   -2.5317   -0.2771 O.2       1 RES1    0.0000
      6 O6         1.0133   -0.8785   -0.7155 O.2       1 RES1    0.0000
      7 N1         1.1482   -4.0251    4.3219 N.pl3     1 RES1    0.0000
      8 N2         0.5618   -1.7161    0.0319 N.pl3     1 RES1    0.0000
      9 C1         2.0698   -0.5904    3.2364 C.ar      1 RES1    0.0000
     10 C2         1.8979   -1.7030    4.0394 C.ar      1 RES1    0.0000
     11 C3         1.3113   -2.8313    3.4916 C.ar      1 RES1    0.0000
     12 C4         0.8738   -2.8802    2.1737 C.ar      1 RES1    0.0000
     13 C5         1.0515   -1.7379    1.4245 C.ar      1 RES1    0.0000
     14 C6         1.6553   -0.5939    1.9049 C.ar      1 RES1    0.0000
     15 C7         2.6929    0.6375    3.8124 C.2       1 RES1    0.0000
     16 H1         3.5810    2.4453    3.2993 H         1 RES1    0.0000
     17 H2         2.2323   -1.7379    4.9945 H         1 RES1    0.0000
     18 H3         0.4491   -3.6766    1.7955 H         1 RES1    0.0000
     19 H4         1.8053    0.1921    1.3489 H         1 RES1    0.0000
@<TRIPOS>BOND
     1    1   15 2
     2    2   15 1
     3    3    7 2
     4    4    7 2
     5    5    8 2
     6    6    8 2
     7    7   11 1
     8    8   13 1
     9    9   10 ar
    10   10   11 ar
    11   11   12 ar
    12   12   13 ar
    13   13   14 ar
    14   14    9 ar
    15   15    9 1
    16   16    2 1
    17   17   10 1
    18   18   12 1
    19   19   14 1
@<TRIPOS>SUBSTRUCTURE
     1 RES1 1

@<TRIPOS>CRYSIN
  21.0360    8.7331    9.7659  90.0000 111.0510  90.0000  15 1

