# MOL2 file generated by ConQuest
# Please check atom types

@<TRIPOS>MOLECULE
CUKCAM01
    19    19     1
SMALL
NO_CHARGES
****
Generated from CSD

@<TRIPOS>ATOM
      1 O1         4.7543    7.3293   -0.6864 O.2       1 RES1    0.0000
      2 O2         3.8221    8.2573    1.1267 O.3       1 RES1    0.0000
      3 O3         1.9668    1.7645   -0.7934 O.2       1 RES1    0.0000
      4 O4         3.6473    2.6844   -1.7345 O.2       1 RES1    0.0000
      5 O5        -0.6630    4.2679    2.4598 O.2       1 RES1    0.0000
      6 O6         0.4043    5.7804    3.5637 O.2       1 RES1    0.0000
      7 N1         2.7337    2.6817   -0.9326 N.pl3     1 RES1    0.0000
      8 N2         0.2936    5.0015    2.6321 N.pl3     1 RES1    0.0000
      9 C1         3.1513    6.0882    0.5160 C.ar      1 RES1    0.0000
     10 C2         3.3533    4.9669   -0.2803 C.ar      1 RES1    0.0000
     11 C3         2.5364    3.8687   -0.0824 C.ar      1 RES1    0.0000
     12 C4         1.5215    3.8403    0.8521 C.ar      1 RES1    0.0000
     13 C5         1.3717    4.9723    1.6275 C.ar      1 RES1    0.0000
     14 C6         2.1605    6.0953    1.4903 C.ar      1 RES1    0.0000
     15 C7         3.9767    7.3062    0.2926 C.2       1 RES1    0.0000
     16 H1         4.5488    9.1372    1.0604 H         1 RES1    0.0000
     17 H2         4.0249    4.9412   -0.9468 H         1 RES1    0.0000
     18 H3         0.9267    3.0783    0.9752 H         1 RES1    0.0000
     19 H4         2.0264    6.8574    2.0261 H         1 RES1    0.0000
@<TRIPOS>BOND
     1    1   15 2
     2    2   15 1
     3    3    7 2
     4    4    7 2
     5    5    8 2
     6    6    8 2
     7    7   11 1
     8    8   13 1
     9    9   10 ar
    10   10   11 ar
    11   11   12 ar
    12   12   13 ar
    13   13   14 ar
    14   14    9 ar
    15   15    9 1
    16   16    2 1
    17   17   10 1
    18   18   12 1
    19   19   14 1
@<TRIPOS>SUBSTRUCTURE
     1 RES1 1

@<TRIPOS>CRYSIN
  10.0290    8.8711    9.5140  90.0000  95.6390  90.0000  14 1

