# MOL2 file generated by ConQuest
# Please check atom types

@<TRIPOS>MOLECULE
CUKCAM22
    19    19     1
SMALL
NO_CHARGES
****
Generated from CSD

@<TRIPOS>ATOM
      1 H1         0.4512    0.5342    1.7366 H         1 RES1    0.0000
      2 H2         2.1504    2.6787    5.0435 H         1 RES1    0.0000
      3 H3         1.6943    4.6110    1.2478 H         1 RES1    0.0000
      4 H4         3.2647    6.7208    3.3449 H         1 RES1    0.0000
      5 O1         1.5077    0.4214    5.4666 O.2       1 RES1    0.0000
      6 O2         2.8308    5.0758    4.9681 O.2       1 RES1    0.0000
      7 O3         0.9379    3.4475   -0.7348 O.2       1 RES1    0.0000
      8 O4         2.8625    5.9153    2.8952 O.3       1 RES1    0.0000
      9 N1         0.5256    2.5834    0.0114 N.pl3     1 RES1    0.0000
     10 O5        -0.2875    1.7323   -0.3010 O.2       1 RES1    0.0000
     11 O6         0.7689   -0.6885    3.7716 O.2       1 RES1    0.0000
     12 N2         1.1867    0.3282    4.2947 N.pl3     1 RES1    0.0000
     13 C1         0.8746    1.4415    2.1440 C.ar      1 RES1    0.0000
     14 C2         2.6071    4.9900    3.7708 C.2       1 RES1    0.0000
     15 C3         2.0113    3.7649    3.1932 C.ar      1 RES1    0.0000
     16 C4         1.3174    1.5111    3.4527 C.ar      1 RES1    0.0000
     17 C5         1.0161    2.5837    1.3864 C.ar      1 RES1    0.0000
     18 C6         1.5952    3.7401    1.8694 C.ar      1 RES1    0.0000
     19 C7         1.8604    2.6525    4.0044 C.ar      1 RES1    0.0000
@<TRIPOS>BOND
     1    1   13 1
     2    2   19 1
     3    3   18 1
     4    4    8 1
     5    5   12 2
     6    6   14 2
     7    7    9 2
     8    8   14 1
     9    9   10 2
    10   11   12 2
    11   12   16 1
    12   13   16 ar
    13   14   15 1
    14   15   18 ar
    15   16   19 ar
    16   17    9 1
    17   18   17 ar
    18   19   15 ar
    19   13   17 ar
@<TRIPOS>SUBSTRUCTURE
     1 RES1 1

@<TRIPOS>CRYSIN
  20.0800    8.7000    9.6000  90.0000 109.7500  90.0000  15 1

