# MOL2 file generated by ConQuest
# Please check atom types

@<TRIPOS>MOLECULE
CUKDOC
    33    34     1
SMALL
NO_CHARGES
****
Generated from CSD

@<TRIPOS>ATOM
      1 O1         2.8327    1.8770    0.7231 O.2       1 RES1    0.0000
      2 O2         1.2438    3.1075    0.0896 O.2       1 RES1    0.0000
      3 N1         1.8167    2.4959    0.9459 N.pl3     1 RES1    0.0000
      4 N2        -1.7028    3.6074    4.1229 N.3       1 RES1    0.0000
      5 H1        -2.0124    3.4911    4.9176 H         1 RES1    0.0000
      6 C1         1.2744    2.4704    2.3087 C.ar      1 RES1    0.0000
      7 C2         2.0245    1.8730    3.2899 C.ar      1 RES1    0.0000
      8 H2         2.8475    1.4833    3.1044 H         1 RES1    0.0000
      9 C3         1.4968    1.8782    4.5720 C.ar      1 RES1    0.0000
     10 H3         1.9754    1.4898    5.2683 H         1 RES1    0.0000
     11 C4         0.2808    2.4481    4.8250 C.ar      1 RES1    0.0000
     12 H4        -0.0507    2.4368    5.6944 H         1 RES1    0.0000
     13 C5        -0.4793    3.0472    3.8152 C.ar      1 RES1    0.0000
     14 C6         0.0393    3.0525    2.5241 C.ar      1 RES1    0.0000
     15 H5        -0.4342    3.4385    1.8222 H         1 RES1    0.0000
     16 C7        -2.4926    4.3725    3.1991 C.3       1 RES1    0.0000
     17 H6        -1.8982    4.9465    2.6911 H         1 RES1    0.0000
     18 O1A       -7.8178    1.8770    5.6751 O.2       1 RES1    0.0000
     19 O2A       -6.2290    3.1075    6.3086 O.2       1 RES1    0.0000
     20 N1A       -6.8018    2.4959    5.4523 N.pl3     1 RES1    0.0000
     21 N2A       -3.2823    3.6074    2.2753 N.pl3     1 RES1    0.0000
     22 H1A       -2.9727    3.4911    1.4805 H         1 RES1    0.0000
     23 C1A       -6.2595    2.4704    4.0895 C.ar      1 RES1    0.0000
     24 C2A       -7.0097    1.8730    3.1082 C.ar      1 RES1    0.0000
     25 H2A       -7.8326    1.4833    3.2938 H         1 RES1    0.0000
     26 C3A       -6.4819    1.8782    1.8262 C.ar      1 RES1    0.0000
     27 H3A       -6.9606    1.4898    1.1299 H         1 RES1    0.0000
     28 C4A       -5.2659    2.4481    1.5732 C.ar      1 RES1    0.0000
     29 H4A       -4.9345    2.4368    0.7038 H         1 RES1    0.0000
     30 C5A       -4.5059    3.0472    2.5829 C.ar      1 RES1    0.0000
     31 C6A       -5.0245    3.0525    3.8741 C.ar      1 RES1    0.0000
     32 H5A       -4.5510    3.4385    4.5760 H         1 RES1    0.0000
     33 H6A       -3.0870    4.9465    3.7071 H         1 RES1    0.0000
@<TRIPOS>BOND
     1    1    3 2
     2    2    3 2
     3    3    6 1
     4    4    5 1
     5    6    7 ar
     6    7    8 1
     7    9    7 ar
     8   10    9 1
     9   11    9 ar
    10   12   11 1
    11   13    4 1
    12   14    6 ar
    13   15   14 1
    14   16    4 1
    15   17   16 1
    16   18   20 2
    17   19   20 2
    18   20   23 1
    19   21   16 1
    20   22   21 1
    21   23   24 ar
    22   24   25 1
    23   26   24 ar
    24   27   26 1
    25   28   26 ar
    26   29   28 1
    27   30   21 1
    28   31   23 ar
    29   32   31 1
    30   33   16 1
    31   11   13 ar
    32   13   14 ar
    33   28   30 ar
    34   30   31 ar
@<TRIPOS>SUBSTRUCTURE
     1 RES1 1

@<TRIPOS>CRYSIN
  24.5170    4.0505   16.2220  90.0000 127.9240  90.0000  15 1

