# MOL2 file generated by ConQuest
# Please check atom types

@<TRIPOS>MOLECULE
CUKSAD
    48    50     1
SMALL
NO_CHARGES
****
Generated from CSD

@<TRIPOS>ATOM
      1 C1         2.2036    3.8294   16.3548 C.2       1 RES1    0.0000
      2 N1         1.7161    3.0282   17.2815 N.pl3     1 RES1    0.0000
      3 O1         0.4575    2.8842   17.5333 O.2       1 RES1    0.0000
      4 C2         3.6471    3.8118   15.9877 C.ar      1 RES1    0.0000
      5 C3         4.3995    4.9759   16.1091 C.ar      1 RES1    0.0000
      6 H1         3.9957    5.7632   16.4540 H         1 RES1    0.0000
      7 C4         5.7338    4.9973   15.7313 C.ar      1 RES1    0.0000
      8 H2         6.2431    5.7927   15.8339 H         1 RES1    0.0000
      9 C5         6.3233    3.8681   15.2063 C.ar      1 RES1    0.0000
     10 H3         7.2413    3.8801   14.9615 H         1 RES1    0.0000
     11 C6         5.5748    2.7171   15.0353 C.ar      1 RES1    0.0000
     12 H4         5.9746    1.9451   14.6524 H         1 RES1    0.0000
     13 C7         4.2430    2.6852   15.4216 C.ar      1 RES1    0.0000
     14 H5         3.7340    1.8923   15.2991 H         1 RES1    0.0000
     15 C8         1.3186    4.7596   15.6220 C.ar      1 RES1    0.0000
     16 C9         0.2890    5.4560   16.2613 C.ar      1 RES1    0.0000
     17 H6         0.0944    5.2843   17.1747 H         1 RES1    0.0000
     18 C10       -0.4477    6.3970   15.5595 C.ar      1 RES1    0.0000
     19 H7        -1.1286    6.8888   16.0027 H         1 RES1    0.0000
     20 C11       -0.1991    6.6256   14.2175 C.ar      1 RES1    0.0000
     21 H8        -0.7190    7.2610   13.7401 H         1 RES1    0.0000
     22 C12        0.8027    5.9321   13.5727 C.ar      1 RES1    0.0000
     23 H9         0.9632    6.0794   12.6478 H         1 RES1    0.0000
     24 C13        1.5751    5.0199   14.2736 C.ar      1 RES1    0.0000
     25 H10        2.2853    4.5675   13.8331 H         1 RES1    0.0000
     26 C14        2.5824    2.2927   18.2432 C.3       1 RES1    0.0000
     27 H11        3.5423    2.4739   18.0300 H         1 RES1    0.0000
     28 C15        2.2758    2.7772   19.6654 C.3       1 RES1    0.0000
     29 H12        1.3932    2.4251   19.9436 H         1 RES1    0.0000
     30 H13        2.9566    2.4129   20.2850 H         1 RES1    0.0000
     31 C16        2.2635    4.2810   19.7744 C.ar      1 RES1    0.0000
     32 C17        1.1223    4.9392   20.2237 C.ar      1 RES1    0.0000
     33 H14        0.3600    4.4332   20.4803 H         1 RES1    0.0000
     34 C18        1.0838    6.3210   20.3020 C.ar      1 RES1    0.0000
     35 H15        0.2967    6.7536   20.6131 H         1 RES1    0.0000
     36 C19        2.1657    7.0671   19.9352 C.ar      1 RES1    0.0000
     37 H16        2.1297    8.0154   19.9758 H         1 RES1    0.0000
     38 C20        3.3108    6.4326   19.5063 C.ar      1 RES1    0.0000
     39 H17        4.0667    6.9498   19.2533 H         1 RES1    0.0000
     40 C21        3.3739    5.0455   19.4382 C.ar      1 RES1    0.0000
     41 H18        4.1767    4.6203   19.1622 H         1 RES1    0.0000
     42 C22        2.3112    0.8023   18.1235 C.2       1 RES1    0.0000
     43 O2         2.2230    0.0756   19.0596 O.2       1 RES1    0.0000
     44 O3         2.2223    0.4069   16.8614 O.3       1 RES1    0.0000
     45 C23        1.9069   -0.9915   16.6397 C.3       1 RES1    0.0000
     46 H19        1.1013   -1.2283   17.1444 H         1 RES1    0.0000
     47 H20        2.6560   -1.5476   16.9395 H         1 RES1    0.0000
     48 H21        1.7502   -1.1439   15.6841 H         1 RES1    0.0000
@<TRIPOS>BOND
     1    1    2 2
     2    2    3 1
     3    4    1 1
     4    5    4 ar
     5    6    5 1
     6    7    5 ar
     7    8    7 1
     8    9    7 ar
     9   10    9 1
    10   11    9 ar
    11   12   11 1
    12   13    4 ar
    13   14   13 1
    14   15    1 1
    15   16   15 ar
    16   17   16 1
    17   18   16 ar
    18   19   18 1
    19   20   18 ar
    20   21   20 1
    21   22   20 ar
    22   23   22 1
    23   24   15 ar
    24   25   24 1
    25   26    2 1
    26   27   26 1
    27   28   26 1
    28   29   28 1
    29   30   28 1
    30   31   28 1
    31   32   31 ar
    32   33   32 1
    33   34   32 ar
    34   35   34 1
    35   36   34 ar
    36   37   36 1
    37   38   36 ar
    38   39   38 1
    39   40   31 ar
    40   41   40 1
    41   42   26 1
    42   43   42 2
    43   44   42 1
    44   45   44 1
    45   46   45 1
    46   47   45 1
    47   48   45 1
    48   11   13 ar
    49   22   24 ar
    50   38   40 ar
@<TRIPOS>SUBSTRUCTURE
     1 RES1 1

@<TRIPOS>CRYSIN
   9.7290   10.1680   18.9650  90.0000  90.0000  90.0000  19 1

