# MOL2 file generated by ConQuest
# Please check atom types

@<TRIPOS>MOLECULE
CUKSEH
    50    52     1
SMALL
NO_CHARGES
****
Generated from CSD

@<TRIPOS>ATOM
      1 C1         0.9228    9.8722    7.7412 C.2       1 RES1    0.0000
      2 N1         0.2209   10.0741    6.6421 N.pl3     1 RES1    0.0000
      3 O1         0.1936    9.2844    5.6199 O.2       1 RES1    0.0000
      4 C2         0.7992   10.8377    8.8648 C.ar      1 RES1    0.0000
      5 C3         1.7216   11.8622    9.0093 C.ar      1 RES1    0.0000
      6 H1         2.4259   11.9598    8.3800 H         1 RES1    0.0000
      7 C4         1.6139   12.7429   10.0724 C.ar      1 RES1    0.0000
      8 H2         2.2344   13.4582   10.1534 H         1 RES1    0.0000
      9 C5         0.6175   12.5955   11.0156 C.ar      1 RES1    0.0000
     10 H3         0.5566   13.1997   11.7460 H         1 RES1    0.0000
     11 C6        -0.2915   11.5628   10.8895 C.ar      1 RES1    0.0000
     12 H4        -0.9744   11.4511   11.5399 H         1 RES1    0.0000
     13 C7        -0.2087   10.6900    9.8160 C.ar      1 RES1    0.0000
     14 H5        -0.8420    9.9877    9.7281 H         1 RES1    0.0000
     15 C8         1.8013    8.7000    7.9097 C.ar      1 RES1    0.0000
     16 C9         2.3097    7.9398    6.8548 C.ar      1 RES1    0.0000
     17 H6         2.0946    8.1727    5.9592 H         1 RES1    0.0000
     18 C10        3.1280    6.8461    7.1049 C.ar      1 RES1    0.0000
     19 H7         3.4815    6.3484    6.3770 H         1 RES1    0.0000
     20 C11        3.4334    6.4737    8.3955 C.ar      1 RES1    0.0000
     21 H8         3.9758    5.7116    8.5580 H         1 RES1    0.0000
     22 C12        2.9447    7.2171    9.4514 C.ar      1 RES1    0.0000
     23 H9         3.1547    6.9642   10.3426 H         1 RES1    0.0000
     24 C13        2.1509    8.3287    9.2218 C.ar      1 RES1    0.0000
     25 H10        1.8399    8.8444    9.9557 H         1 RES1    0.0000
     26 C14       -0.6463   11.2816    6.4497 C.3       1 RES1    0.0000
     27 H11       -0.6507   11.8318    7.2848 H         1 RES1    0.0000
     28 C15       -0.1243   12.1168    5.2829 C.3       1 RES1    0.0000
     29 H12       -0.0363   11.5361    4.4856 H         1 RES1    0.0000
     30 H13       -0.7860   12.8225    5.0711 H         1 RES1    0.0000
     31 C16        1.2036   12.7613    5.5657 C.ar      1 RES1    0.0000
     32 C17        2.3874   12.1397    5.1989 C.ar      1 RES1    0.0000
     33 H14        2.3549   11.2927    4.7703 H         1 RES1    0.0000
     34 C18        3.6164   12.7296    5.4453 C.ar      1 RES1    0.0000
     35 H15        4.4246   12.2974    5.1938 H         1 RES1    0.0000
     36 C19        3.6350   13.9682    6.0700 C.ar      1 RES1    0.0000
     37 N2         4.9308   14.6269    6.2862 N.pl3     1 RES1    0.0000
     38 O2         5.9561   14.0067    6.0216 O.2       1 RES1    0.0000
     39 O3         4.9400   15.7591    6.7332 O.2       1 RES1    0.0000
     40 C20        2.4784   14.6154    6.4499 C.ar      1 RES1    0.0000
     41 H16        2.5155   15.4629    6.8773 H         1 RES1    0.0000
     42 C21        1.2624   14.0046    6.1951 C.ar      1 RES1    0.0000
     43 H17        0.4568   14.4384    6.4520 H         1 RES1    0.0000
     44 C22       -2.0515   10.7697    6.1611 C.2       1 RES1    0.0000
     45 O4        -2.6455   10.9438    5.1380 O.2       1 RES1    0.0000
     46 O5        -2.5482   10.1431    7.2290 O.3       1 RES1    0.0000
     47 C23       -3.8903    9.6230    7.0637 C.3       1 RES1    0.0000
     48 H18       -4.4739   10.3299    6.7180 H         1 RES1    0.0000
     49 H19       -4.2292    9.3124    7.9284 H         1 RES1    0.0000
     50 H20       -3.8751    8.8747    6.4314 H         1 RES1    0.0000
@<TRIPOS>BOND
     1    1    2 2
     2    2    3 1
     3    4    1 1
     4    5    4 ar
     5    6    5 1
     6    7    5 ar
     7    8    7 1
     8    9    7 ar
     9   10    9 1
    10   11    9 ar
    11   12   11 1
    12   13    4 ar
    13   14   13 1
    14   15    1 1
    15   16   15 ar
    16   17   16 1
    17   18   16 ar
    18   19   18 1
    19   20   18 ar
    20   21   20 1
    21   22   20 ar
    22   23   22 1
    23   24   15 ar
    24   25   24 1
    25   26    2 1
    26   27   26 1
    27   28   26 1
    28   29   28 1
    29   30   28 1
    30   31   28 1
    31   32   31 ar
    32   33   32 1
    33   34   32 ar
    34   35   34 1
    35   36   34 ar
    36   37   36 1
    37   38   37 2
    38   39   37 2
    39   40   36 ar
    40   41   40 1
    41   42   31 ar
    42   43   42 1
    43   44   26 1
    44   45   44 2
    45   46   44 1
    46   47   46 1
    47   48   47 1
    48   49   47 1
    49   50   47 1
    50   11   13 ar
    51   22   24 ar
    52   40   42 ar
@<TRIPOS>SUBSTRUCTURE
     1 RES1 1

@<TRIPOS>CRYSIN
   9.0940   11.6420    9.3710  90.0000  91.3700  90.0000   4 1

