# MOL2 file generated by ConQuest
# Please check atom types

@<TRIPOS>MOLECULE
CUKSIK
    72    78     2
SMALL
NO_CHARGES
****
Generated from CSD

@<TRIPOS>ATOM
      1 N1         1.7543   -1.4948    5.0457 N.3       1 RES1    0.0000
      2 N2         1.5105   -1.1454    3.7438 N.2       1 RES1    0.0000
      3 C1         0.1885   -1.1297    3.6659 C.2       1 RES1    0.0000
      4 C2        -0.3930   -1.4551    4.8647 C.2       1 RES1    0.0000
      5 C3         0.6246   -1.6955    5.7398 C.2       1 RES1    0.0000
      6 C4         3.1673   -1.6133    5.5168 C.3       1 RES1    0.0000
      7 C5         3.8786   -2.6930    4.6920 C.3       1 RES1    0.0000
      8 C6         5.3277   -2.7800    5.1775 C.3       1 RES1    0.0000
      9 C7         5.3551   -3.1568    6.6448 C.3       1 RES1    0.0000
     10 C8         4.6387   -2.0689    7.4564 C.3       1 RES1    0.0000
     11 C9         3.1815   -1.9798    6.9925 C.3       1 RES1    0.0000
     12 C10        3.8538   -0.2555    5.3118 C.3       1 RES1    0.0000
     13 C11        5.3202   -0.3597    5.7769 C.3       1 RES1    0.0000
     14 C12        5.3378   -0.7364    7.2490 C.3       1 RES1    0.0000
     15 C13        6.0283   -1.4455    4.9534 C.3       1 RES1    0.0000
     16 N3        -1.7876   -1.5654    5.1632 N.pl3     1 RES1    0.0000
     17 O1        -2.5903   -1.2694    4.2856 O.2       1 RES1    0.0000
     18 O2        -2.1097   -1.9236    6.2768 O.2       1 RES1    0.0000
     19 O3         5.9857   -3.8041    4.3947 O.3       1 RES1    0.0000
     20 N4         1.8043    1.6400    0.4807 N.3       2 RES2    0.0000
     21 N5         0.9756    1.5366   -0.6030 N.2       2 RES2    0.0000
     22 C14       -0.2424    1.7339   -0.1127 C.2       2 RES2    0.0000
     23 C15       -0.1844    1.9490    1.2503 C.2       2 RES2    0.0000
     24 C16        1.1234    1.8620    1.6052 C.2       2 RES2    0.0000
     25 C17        3.2621    1.3907    0.3165 C.3       2 RES2    0.0000
     26 C18        4.0336    2.4662    1.0849 C.3       2 RES2    0.0000
     27 C19        5.5284    2.2203    0.9255 C.3       2 RES2    0.0000
     28 C20        5.9030    2.2902   -0.5478 C.3       2 RES2    0.0000
     29 C21        5.1313    1.2139   -1.3151 C.3       2 RES2    0.0000
     30 C22        3.6192    1.4462   -1.1712 C.3       2 RES2    0.0000
     31 C23        3.5998    0.0130    0.8811 C.3       2 RES2    0.0000
     32 C24        5.1135   -0.2295    0.7193 C.3       2 RES2    0.0000
     33 C25        5.4883   -0.1589   -0.7576 C.3       2 RES2    0.0000
     34 C26        5.8781    0.8502    1.4961 C.3       2 RES2    0.0000
     35 N6        -1.2936    2.2169    2.1063 N.pl3     2 RES2    0.0000
     36 O4        -2.4196    2.1566    1.6639 O.2       2 RES2    0.0000
     37 O5        -1.0382    2.5292    3.2715 O.2       2 RES2    0.0000
     38 O6         6.2465    3.2451    1.6279 O.3       2 RES2    0.0000
     39 H1        -0.2805   -0.8563    2.9250 H         1 RES1    0.0000
     40 H2         0.6515   -1.8017    6.5933 H         1 RES1    0.0000
     41 H3         3.8529   -2.5005    3.7162 H         1 RES1    0.0000
     42 H4         3.4166   -3.5349    4.8191 H         1 RES1    0.0000
     43 H5         6.3464   -3.2198    6.9529 H         1 RES1    0.0000
     44 H6         4.8920   -4.0145    6.8570 H         1 RES1    0.0000
     45 H7         4.6699   -2.3566    8.3675 H         1 RES1    0.0000
     46 H8         2.6893   -2.8156    7.1447 H         1 RES1    0.0000
     47 H9         2.6928   -1.3290    7.4684 H         1 RES1    0.0000
     48 H10        3.3399    0.3699    5.7182 H         1 RES1    0.0000
     49 H11        3.8961   -0.0343    4.3036 H         1 RES1    0.0000
     50 H12        5.7462    0.5001    5.5983 H         1 RES1    0.0000
     51 H13        4.8674   -0.0822    7.8760 H         1 RES1    0.0000
     52 H14        6.3223   -0.7878    7.6003 H         1 RES1    0.0000
     53 H15        6.0066   -1.1646    4.0039 H         1 RES1    0.0000
     54 H16        7.0516   -1.5893    5.2507 H         1 RES1    0.0000
     55 H17        6.9283   -3.7884    4.5074 H         1 RES1    0.0000
     56 H18       -0.9987    1.8291   -0.6953 H         2 RES2    0.0000
     57 H19        1.5662    2.0415    2.4335 H         2 RES2    0.0000
     58 H20        3.8445    2.4731    1.9900 H         2 RES2    0.0000
     59 H21        3.7350    3.3499    0.7193 H         2 RES2    0.0000
     60 H22        6.9020    2.1305   -0.6593 H         2 RES2    0.0000
     61 H23        5.7109    3.2198   -0.9231 H         2 RES2    0.0000
     62 H24        5.3918    1.3153   -2.2897 H         2 RES2    0.0000
     63 H25        3.4231    2.2881   -1.4625 H         2 RES2    0.0000
     64 H26        3.1594    0.7262   -1.6543 H         2 RES2    0.0000
     65 H27        3.1423   -0.6919    0.3716 H         2 RES2    0.0000
     66 H28        3.3257   -0.0617    1.8701 H         2 RES2    0.0000
     67 H29        5.3867   -1.0687    1.0549 H         2 RES2    0.0000
     68 H30        5.6655    0.7947    2.5294 H         2 RES2    0.0000
     69 H31        6.8828    0.6234    1.3906 H         2 RES2    0.0000
     70 H32        6.5521   -0.2672   -0.9350 H         2 RES2    0.0000
     71 H33        5.0519   -0.8974   -1.2228 H         2 RES2    0.0000
     72 H34        6.1415    3.2266    2.4215 H         2 RES2    0.0000
@<TRIPOS>BOND
     1    1    2 1
     2    2    3 2
     3    3    4 1
     4    4    5 2
     5    5    1 1
     6    6    1 1
     7    7    6 1
     8    8    7 1
     9    9    8 1
    10   10    9 1
    11   11    6 1
    12   12    6 1
    13   13   12 1
    14   14   10 1
    15   15    8 1
    16   16    4 1
    17   17   16 2
    18   18   16 2
    19   19    8 1
    20   20   21 1
    21   21   22 2
    22   22   23 1
    23   23   24 2
    24   24   20 1
    25   25   20 1
    26   26   25 1
    27   27   26 1
    28   28   27 1
    29   29   28 1
    30   30   25 1
    31   31   25 1
    32   32   31 1
    33   33   29 1
    34   34   27 1
    35   35   23 1
    36   36   35 2
    37   37   35 2
    38   38   27 1
    39   39    3 1
    40   40    5 1
    41   41    7 1
    42   42    7 1
    43   43    9 1
    44   44    9 1
    45   45   10 1
    46   46   11 1
    47   47   11 1
    48   48   12 1
    49   49   12 1
    50   50   13 1
    51   51   14 1
    52   52   14 1
    53   53   15 1
    54   54   15 1
    55   55   19 1
    56   56   22 1
    57   57   24 1
    58   58   26 1
    59   59   26 1
    60   60   28 1
    61   61   28 1
    62   62   29 1
    63   63   30 1
    64   64   30 1
    65   65   31 1
    66   66   31 1
    67   67   32 1
    68   68   34 1
    69   69   34 1
    70   70   33 1
    71   71   33 1
    72   72   38 1
    73   10   11 1
    74   13   14 1
    75   13   15 1
    76   29   30 1
    77   32   33 1
    78   32   34 1
@<TRIPOS>SUBSTRUCTURE
     1 RES1 1
     2 RES2 20

