# MOL2 file generated by ConQuest
# Please check atom types

@<TRIPOS>MOLECULE
CUMDAR
   106   112     2
SMALL
NO_CHARGES
****
Generated from CSD

@<TRIPOS>ATOM
      1 C1         8.8383    3.3723   17.0748 C.3       1 RES1    0.0000
      2 H1         9.7452    2.9772   16.9325 H         1 RES1    0.0000
      3 C2         7.9173    2.2888   17.5482 C.2       1 RES1    0.0000
      4 H2         7.7070    1.5215   17.0283 H         1 RES1    0.0000
      5 C3         7.4248    2.4984   18.7522 C.2       1 RES1    0.0000
      6 H3         6.8855    1.8765   19.2256 H         1 RES1    0.0000
      7 C4         7.8273    3.8521   19.2830 C.3       1 RES1    0.0000
      8 H4         8.2225    3.7514   20.1970 H         1 RES1    0.0000
      9 C5         8.9117    4.3538   18.3007 C.3       1 RES1    0.0000
     10 H5         8.6493    5.2660   17.9860 H         1 RES1    0.0000
     11 C6        10.3035    4.4351   18.8698 C.ar      1 RES1    0.0000
     12 C7        10.8816    3.3912   19.5621 C.ar      1 RES1    0.0000
     13 H6        10.3706    2.6072   19.7263 H         1 RES1    0.0000
     14 C8        12.1790    3.4524   20.0246 C.ar      1 RES1    0.0000
     15 H7        12.5605    2.7120   20.4815 H         1 RES1    0.0000
     16 C9        12.9198    4.5989   19.8193 C.ar      1 RES1    0.0000
     17 H8        13.8068    4.6573   20.1532 H         1 RES1    0.0000
     18 C10       12.3743    5.6548   19.1298 C.ar      1 RES1    0.0000
     19 H9        12.8915    6.4359   18.9738 H         1 RES1    0.0000
     20 C11       11.0722    5.5844   18.6646 C.ar      1 RES1    0.0000
     21 H10       10.6971    6.3242   18.1994 H         1 RES1    0.0000
     22 C12        6.0730    4.1820   15.3208 C.3       1 RES1    0.0000
     23 H11        5.9485    3.2102   15.4631 H         1 RES1    0.0000
     24 H12        6.2475    4.3435   14.3576 H         1 RES1    0.0000
     25 C13        4.8757    4.9356   15.7696 C.ar      1 RES1    0.0000
     26 C14        4.5266    6.1358   15.1511 C.ar      1 RES1    0.0000
     27 H13        5.0062    6.4336   14.3877 H         1 RES1    0.0000
     28 C15        3.4671    6.9037   15.6574 C.ar      1 RES1    0.0000
     29 H14        3.2224    7.7180   15.2332 H         1 RES1    0.0000
     30 C16        2.7863    6.4685   16.7711 C.ar      1 RES1    0.0000
     31 H15        2.0800    6.9954   17.1240 H         1 RES1    0.0000
     32 C17        3.1215    5.2694   17.3813 C.ar      1 RES1    0.0000
     33 H16        2.6372    4.9682   18.1420 H         1 RES1    0.0000
     34 C18        4.1577    4.5193   16.8778 C.ar      1 RES1    0.0000
     35 H17        4.3864    3.6987   17.2992 H         1 RES1    0.0000
     36 C19        9.3177    4.9384   15.2688 C.3       1 RES1    0.0000
     37 H18       10.2148    4.5273   15.1867 H         1 RES1    0.0000
     38 H19        9.3864    5.7012   15.8954 H         1 RES1    0.0000
     39 C20        8.8583    5.4315   13.9198 C.ar      1 RES1    0.0000
     40 C21        9.0700    4.6246   12.7979 C.ar      1 RES1    0.0000
     41 H20        9.5051    3.7852   12.8909 H         1 RES1    0.0000
     42 C22        8.6480    5.0455   11.5474 C.ar      1 RES1    0.0000
     43 H21        8.8051    4.4981   10.7867 H         1 RES1    0.0000
     44 C23        7.9964    6.2647   11.3969 C.ar      1 RES1    0.0000
     45 H22        7.6947    6.5464   10.5404 H         1 RES1    0.0000
     46 C24        7.7934    7.0544   12.4969 C.ar      1 RES1    0.0000
     47 H23        7.3426    7.8847   12.3984 H         1 RES1    0.0000
     48 C25        8.2318    6.6661   13.7556 C.ar      1 RES1    0.0000
     49 H24        8.1060    7.2399   14.5026 H         1 RES1    0.0000
     50 N1         8.3726    3.9518   15.7969 N.3       1 RES1    0.0000
     51 O1         6.6928    4.7214   19.3427 O.3       1 RES1    0.0000
     52 H25        6.4847    4.9625   18.5661 H         1 RES1    0.0000
     53 O2         7.1571    4.6785   16.1228 O.3       1 RES1    0.0000
     54 C26        0.0827   -0.2531   23.5709 C.3       2 RES2    0.0000
     55 H26        0.2031   -0.6866   22.6761 H         2 RES2    0.0000
     56 C27        0.3428   -1.2867   24.6381 C.2       2 RES2    0.0000
     57 H27       -0.1323   -2.1067   24.6983 H         2 RES2    0.0000
     58 C28        1.2961   -0.9363   25.4726 C.2       2 RES2    0.0000
     59 H28        1.5996   -1.4768   26.1923 H         2 RES2    0.0000
     60 C29        1.8526    0.4421   25.1443 C.3       2 RES2    0.0000
     61 H29        2.8481    0.4043   25.0731 H         2 RES2    0.0000
     62 C30        1.2294    0.7662   23.7734 C.3       2 RES2    0.0000
     63 H30        0.8287    1.6813   23.8199 H         2 RES2    0.0000
     64 C31        2.2341    0.7484   22.6405 C.ar      2 RES2    0.0000
     65 C32        3.0464   -0.3705   22.4243 C.ar      2 RES2    0.0000
     66 H31        2.9764   -1.1241   22.9990 H         2 RES2    0.0000
     67 C33        3.9482   -0.3831   21.3791 C.ar      2 RES2    0.0000
     68 H32        4.5125   -1.1373   21.2532 H         2 RES2    0.0000
     69 C34        4.0387    0.6814   20.5199 C.ar      2 RES2    0.0000
     70 H33        4.6530    0.6574   19.7947 H         2 RES2    0.0000
     71 C35        3.2288    1.7941   20.7059 C.ar      2 RES2    0.0000
     72 H34        3.2841    2.5339   20.1121 H         2 RES2    0.0000
     73 C36        2.3357    1.8124   21.7758 C.ar      2 RES2    0.0000
     74 H35        1.7857    2.5752   21.9072 H         2 RES2    0.0000
     75 C37       -2.3628    0.4306   25.7572 C.3       2 RES2    0.0000
     76 H36       -2.2366   -0.5474   25.8393 H         2 RES2    0.0000
     77 H37       -3.2652    0.6024   25.3851 H         2 RES2    0.0000
     78 C38       -2.2110    1.0897   27.0789 C.ar      2 RES2    0.0000
     79 C39       -2.8815    2.2900   27.3826 C.ar      2 RES2    0.0000
     80 H38       -3.4930    2.6588   26.7560 H         2 RES2    0.0000
     81 C40       -2.6599    2.9302   28.5702 C.ar      2 RES2    0.0000
     82 H39       -3.1101    3.7456   28.7590 H         2 RES2    0.0000
     83 C41       -1.7909    2.4011   29.4951 C.ar      2 RES2    0.0000
     84 H40       -1.6424    2.8483   30.3187 H         2 RES2    0.0000
     85 C42       -1.1338    1.2129   29.2187 C.ar      2 RES2    0.0000
     86 H41       -0.5422    0.8372   29.8590 H         2 RES2    0.0000
     87 C43       -1.3372    0.5858   28.0284 C.ar      2 RES2    0.0000
     88 H42       -0.8675   -0.2193   27.8450 H         2 RES2    0.0000
     89 C44       -1.5845    1.2266   22.6104 C.3       2 RES2    0.0000
     90 H43       -1.3454    0.8492   21.7266 H         2 RES2    0.0000
     91 H44       -1.0360    2.0369   22.7554 H         2 RES2    0.0000
     92 C45       -3.0366    1.5965   22.6186 C.ar      2 RES2    0.0000
     93 C46       -3.4603    2.8197   23.1851 C.ar      2 RES2    0.0000
     94 H45       -2.8235    3.4398   23.5216 H         2 RES2    0.0000
     95 C47       -4.8181    3.1054   23.2453 C.ar      2 RES2    0.0000
     96 H46       -5.1106    3.9060   23.6666 H         2 RES2    0.0000
     97 C48       -5.7354    2.2539   22.7144 C.ar      2 RES2    0.0000
     98 H47       -6.6597    2.4704   22.7527 H         2 RES2    0.0000
     99 C49       -5.3262    1.0680   22.1124 C.ar      2 RES2    0.0000
    100 H48       -5.9611    0.4684   21.7403 H         2 RES2    0.0000
    101 C50       -3.9805    0.7834   22.0714 C.ar      2 RES2    0.0000
    102 H49       -3.6985   -0.0166   21.6445 H         2 RES2    0.0000
    103 N2        -1.2955    0.2371   23.6634 N.3       2 RES2    0.0000
    104 O3         1.4640    1.3698   26.1679 O.3       2 RES2    0.0000
    105 H50        1.5713    2.1548   25.8886 H         2 RES2    0.0000
    106 O4        -1.3476    1.0015   24.9048 O.3       2 RES2    0.0000
@<TRIPOS>BOND
     1    1    2 1
     2    3    1 1
     3    4    3 1
     4    5    3 2
     5    6    5 1
     6    7    5 1
     7    8    7 1
     8    9    1 1
     9   10    9 1
    10   11    9 1
    11   12   11 ar
    12   13   12 1
    13   14   12 ar
    14   15   14 1
    15   16   14 ar
    16   17   16 1
    17   18   16 ar
    18   19   18 1
    19   20   11 ar
    20   21   20 1
    21   22   23 1
    22   24   22 1
    23   25   22 1
    24   26   25 ar
    25   27   26 1
    26   28   26 ar
    27   29   28 1
    28   30   28 ar
    29   31   30 1
    30   32   30 ar
    31   33   32 1
    32   34   25 ar
    33   35   34 1
    34   36   37 1
    35   38   36 1
    36   39   36 1
    37   40   39 ar
    38   41   40 1
    39   42   40 ar
    40   43   42 1
    41   44   42 ar
    42   45   44 1
    43   46   44 ar
    44   47   46 1
    45   48   39 ar
    46   49   48 1
    47   50    1 1
    48   51    7 1
    49   52   51 1
    50   53   22 1
    51   54   55 1
    52   56   54 1
    53   57   56 1
    54   58   56 2
    55   59   58 1
    56   60   58 1
    57   61   60 1
    58   62   54 1
    59   63   62 1
    60   64   62 1
    61   65   64 ar
    62   66   65 1
    63   67   65 ar
    64   68   67 1
    65   69   67 ar
    66   70   69 1
    67   71   69 ar
    68   72   71 1
    69   73   64 ar
    70   74   73 1
    71   75   76 1
    72   77   75 1
    73   78   75 1
    74   79   78 ar
    75   80   79 1
    76   81   79 ar
    77   82   81 1
    78   83   81 ar
    79   84   83 1
    80   85   83 ar
    81   86   85 1
    82   87   78 ar
    83   88   87 1
    84   89   90 1
    85   91   89 1
    86   92   89 1
    87   93   92 ar
    88   94   93 1
    89   95   93 ar
    90   96   95 1
    91   97   95 ar
    92   98   97 1
    93   99   97 ar
    94  100   99 1
    95  101   92 ar
    96  102  101 1
    97  103   54 1
    98  104   60 1
    99  105  104 1
   100  106   75 1
   101    7    9 1
   102   18   20 ar
   103   32   34 ar
   104   36   50 1
   105   46   48 ar
   106   50   53 1
   107   60   62 1
   108   71   73 ar
   109   85   87 ar
   110   89  103 1
   111   99  101 ar
   112  103  106 1
@<TRIPOS>SUBSTRUCTURE
     1 RES1 1
     2 RES2 54

@<TRIPOS>CRYSIN
  12.6814    5.7264   27.7180  90.0000  99.1740  90.0000   4 1

