# MOL2 file generated by ConQuest
# Please check atom types

@<TRIPOS>MOLECULE
CUNGAT
    13    12     1
SMALL
NO_CHARGES
****
Generated from CSD

@<TRIPOS>ATOM
      1 C1         0.3425    2.0968    2.8270 C.2       1 RES1    0.0000
      2 C2         0.8461    1.5636    3.9681 C.2       1 RES1    0.0000
      3 C3        -0.5224    0.0132    1.9099 C.3       1 RES1    0.0000
      4 N1        -0.2607    1.4423    1.8752 N.3       1 RES1    0.0000
      5 N2         1.5091    2.3670    4.8709 N.pl3     1 RES1    0.0000
      6 O1         1.9113    1.8506    5.9353 O.2       1 RES1    0.0000
      7 O2         1.7104    3.5715    4.6368 O.2       1 RES1    0.0000
      8 H1         0.4418    3.0023    2.6686 H         1 RES1    0.0000
      9 H2         0.8139    0.6365    4.2636 H         1 RES1    0.0000
     10 H3        -0.6615    1.9334    1.1042 H         1 RES1    0.0000
     11 H4        -0.9248   -0.2402    1.0736 H         1 RES1    0.0000
     12 H5         0.3849   -0.5284    1.9120 H         1 RES1    0.0000
     13 H6        -1.0018   -0.2762    2.7810 H         1 RES1    0.0000
@<TRIPOS>BOND
     1    1    2 2
     2    2    5 1
     3    3    4 1
     4    4    1 1
     5    5    6 2
     6    7    5 2
     7    8    1 1
     8    9    2 1
     9   10    4 1
    10   11    3 1
    11   12    3 1
    12   13    3 1
@<TRIPOS>SUBSTRUCTURE
     1 RES1 1

@<TRIPOS>CRYSIN
   3.9150   12.0090   10.2710  90.0000  95.4600  90.0000  14 1

