# MOL2 file generated by ConQuest
# Please check atom types

@<TRIPOS>MOLECULE
CUNNEG
    34    36     1
SMALL
NO_CHARGES
****
Generated from CSD

@<TRIPOS>ATOM
      1 C1         1.7947    7.1196   12.2461 C.ar      1 RES1    0.0000
      2 C2         2.1949    7.7214   13.4454 C.ar      1 RES1    0.0000
      3 H1         1.8277    7.4601   14.2578 H         1 RES1    0.0000
      4 C3         3.1543    8.7183   13.3824 C.ar      1 RES1    0.0000
      5 H2         3.4244    9.1282   14.1718 H         1 RES1    0.0000
      6 C4         3.7330    9.1307   12.1745 C.ar      1 RES1    0.0000
      7 H3         4.3669    9.8106   12.1602 H         1 RES1    0.0000
      8 C5         3.3382    8.4979   10.9896 C.ar      1 RES1    0.0000
      9 H4         3.7262    8.7320   10.1772 H         1 RES1    0.0000
     10 C6         2.3802    7.5381   11.0440 C.ar      1 RES1    0.0000
     11 C7         1.7698    6.7369    9.9408 C.2       1 RES1    0.0000
     12 C8         0.7734    6.0285   12.0327 C.3       1 RES1    0.0000
     13 C9        -0.5949    6.3666   12.6402 C.3       1 RES1    0.0000
     14 H5        -0.4649    6.6453   13.5600 H         1 RES1    0.0000
     15 H6        -0.9721    7.1183   12.1559 H         1 RES1    0.0000
     16 C10       -1.5906    5.2273   12.6158 C.3       1 RES1    0.0000
     17 H7        -2.3869    5.4886   13.1044 H         1 RES1    0.0000
     18 H8        -1.8486    5.0477   11.6988 H         1 RES1    0.0000
     19 C11       -1.0240    3.9691   13.2290 C.3       1 RES1    0.0000
     20 H9        -1.6735    3.2520   13.1545 H         1 RES1    0.0000
     21 H10       -0.8482    4.1189   14.1704 H         1 RES1    0.0000
     22 C12        0.2722    3.5567   12.5284 C.3       1 RES1    0.0000
     23 H11        0.6427    2.7740   12.9640 H         1 RES1    0.0000
     24 H12        0.0829    3.3276   11.6042 H         1 RES1    0.0000
     25 C13        1.2888    4.6997   12.5743 C.3       1 RES1    0.0000
     26 H13        2.0710    4.4384   12.0627 H         1 RES1    0.0000
     27 H14        1.5690    4.8273   13.4941 H         1 RES1    0.0000
     28 C14       -0.9856    5.6880    9.0539 C.3       1 RES1    0.0000
     29 H15       -0.6036    6.2329    8.3618 H         1 RES1    0.0000
     30 H16       -1.5172    6.2366    9.6356 H         1 RES1    0.0000
     31 H17       -1.5387    5.0106    8.6598 H         1 RES1    0.0000
     32 N1         0.7593    6.0347   10.5311 N.am      1 RES1    0.0000
     33 O1         2.0824    6.7084    8.7531 O.2       1 RES1    0.0000
     34 O2         0.0761    5.0613    9.8173 O.3       1 RES1    0.0000
@<TRIPOS>BOND
     1    1    2 ar
     2    2    3 1
     3    4    2 ar
     4    5    4 1
     5    6    4 ar
     6    7    6 1
     7    8    6 ar
     8    9    8 1
     9   10    1 ar
    10   11   10 1
    11   12    1 1
    12   13   12 1
    13   14   13 1
    14   15   13 1
    15   16   13 1
    16   17   16 1
    17   18   16 1
    18   19   16 1
    19   20   19 1
    20   21   19 1
    21   22   19 1
    22   23   22 1
    23   24   22 1
    24   25   12 1
    25   26   25 1
    26   27   25 1
    27   28   29 1
    28   30   28 1
    29   31   28 1
    30   32   11 1
    31   33   11 2
    32   34   28 1
    33    8   10 ar
    34   12   32 1
    35   22   25 1
    36   32   34 1
@<TRIPOS>SUBSTRUCTURE
     1 RES1 1

@<TRIPOS>CRYSIN
   6.7370   12.3840   14.3280  90.0000  90.0000  90.0000  19 1

