# MOL2 file generated by ConQuest
# Please check atom types

@<TRIPOS>MOLECULE
CUNQIM
   150   160     2
SMALL
NO_CHARGES
****
Generated from CSD

@<TRIPOS>ATOM
      1 O1         8.1806   10.1769   10.3002 O.3       1 RES1    0.0000
      2 O2        11.2051    7.7429   12.2697 O.3       1 RES1    0.0000
      3 N1         7.6310    9.2190   12.4342 N.3       1 RES1    0.0000
      4 N2        11.5816    8.1272   10.9466 N.2       1 RES1    0.0000
      5 C1         8.5851    9.2658   11.3390 C.3       1 RES1    0.0000
      6 H1         8.6314    8.3688   10.9474 H         1 RES1    0.0000
      7 C2         6.3006    8.6715   11.9313 C.3       1 RES1    0.0000
      8 C3         4.6038    9.0100    9.9825 C.3       1 RES1    0.0000
      9 H2         4.7976    8.1544    9.5670 H         1 RES1    0.0000
     10 H3         3.8787    8.8826   10.6130 H         1 RES1    0.0000
     11 C4         4.1787   10.0126    8.9103 C.3       1 RES1    0.0000
     12 H4         3.4089    9.6610    8.4350 H         1 RES1    0.0000
     13 H5         3.9117   10.8399    9.3377 H         1 RES1    0.0000
     14 C5         5.2761   10.3054    7.9168 C.3       1 RES1    0.0000
     15 H6         5.4617    9.4868    7.4081 H         1 RES1    0.0000
     16 C6         6.5650   10.7299    8.6476 C.3       1 RES1    0.0000
     17 H7         7.2829   10.8323    8.0028 H         1 RES1    0.0000
     18 H8         6.4233   11.5877    9.0798 H         1 RES1    0.0000
     19 C7         6.9585    9.7012    9.6840 C.3       1 RES1    0.0000
     20 H9         7.1326    8.8445    9.2398 H         1 RES1    0.0000
     21 C8         5.8513    9.5162   10.7277 C.3       1 RES1    0.0000
     22 H10        5.6341   10.4077   11.0715 H         1 RES1    0.0000
     23 C9         7.5077   10.5209   13.1361 C.3       1 RES1    0.0000
     24 H11        6.6871   10.9487   12.8483 H         1 RES1    0.0000
     25 H12        8.2443   11.0881   12.8603 H         1 RES1    0.0000
     26 C10        7.5017   10.4469   14.6347 C.ar      1 RES1    0.0000
     27 C11        7.7353    9.2919   15.3631 C.ar      1 RES1    0.0000
     28 H13        7.8762    8.4853   14.9237 H         1 RES1    0.0000
     29 C12        7.7599    9.3388   16.7626 C.ar      1 RES1    0.0000
     30 H14        7.9211    8.5615   17.2497 H         1 RES1    0.0000
     31 C13        7.5494   10.5068   17.4169 C.ar      1 RES1    0.0000
     32 H15        7.5487   10.5220   18.3459 H         1 RES1    0.0000
     33 C14        7.3417   11.6541   16.7267 C.ar      1 RES1    0.0000
     34 H16        7.2177   12.4553   17.1829 H         1 RES1    0.0000
     35 C15        7.3113   11.6367   15.3344 C.ar      1 RES1    0.0000
     36 H17        7.1636   12.4270   14.8663 H         1 RES1    0.0000
     37 C16        6.5236    7.1845   11.5802 C.3       1 RES1    0.0000
     38 H18        7.0340    6.7643   12.2776 H         1 RES1    0.0000
     39 H19        6.9994    7.1203   10.7491 H         1 RES1    0.0000
     40 H20        5.6745    6.7447   11.4966 H         1 RES1    0.0000
     41 C17        5.2499    8.7313   13.0466 C.3       1 RES1    0.0000
     42 H21        5.0814    9.6479   13.2782 H         1 RES1    0.0000
     43 H22        5.5742    8.2611   13.8179 H         1 RES1    0.0000
     44 H23        4.4365    8.3242   12.7409 H         1 RES1    0.0000
     45 C18        4.8542   11.4059    6.9257 C.3       1 RES1    0.0000
     46 H24        4.0642   11.1283    6.4576 H         1 RES1    0.0000
     47 H25        5.5637   11.5594    6.2976 H         1 RES1    0.0000
     48 H26        4.6718   12.2158    7.4081 H         1 RES1    0.0000
     49 C19       10.0170    9.6773   11.7355 C.3       1 RES1    0.0000
     50 H27       10.0897   10.6429   11.8907 H         1 RES1    0.0000
     51 C20       10.9610    9.2070   10.6417 C.2       1 RES1    0.0000
     52 C21       11.1192    9.8014    9.2971 C.ar      1 RES1    0.0000
     53 C22       10.8947   11.1556    9.1085 C.ar      1 RES1    0.0000
     54 H28       10.6309   11.6879    9.8249 H         1 RES1    0.0000
     55 C23       11.0643   11.7151    7.8595 C.ar      1 RES1    0.0000
     56 H29       10.9208   12.6262    7.7353 H         1 RES1    0.0000
     57 C24       11.4419   10.9357    6.7967 C.ar      1 RES1    0.0000
     58 H30       11.5710   11.3167    5.9585 H         1 RES1    0.0000
     59 C25       11.6291    9.5804    6.9806 C.ar      1 RES1    0.0000
     60 H31       11.8614    9.0470    6.2546 H         1 RES1    0.0000
     61 C26       11.4791    9.0133    8.2105 C.ar      1 RES1    0.0000
     62 H32       11.6176    8.1011    8.3228 H         1 RES1    0.0000
     63 C27       10.5477    8.8696   12.9152 C.3       1 RES1    0.0000
     64 H33        9.7876    8.5354   13.4358 H         1 RES1    0.0000
     65 C28       11.5010    9.5630   13.8442 C.ar      1 RES1    0.0000
     66 C29       12.6524    8.9382   14.2836 C.ar      1 RES1    0.0000
     67 H34       12.8719    8.0924   13.9636 H         1 RES1    0.0000
     68 C30       13.4922    9.5739   15.2126 C.ar      1 RES1    0.0000
     69 H35       14.2701    9.1504   15.4968 H         1 RES1    0.0000
     70 C31       13.1820   10.7985   15.6974 C.ar      1 RES1    0.0000
     71 H36       13.7303   11.2035   16.3303 H         1 RES1    0.0000
     72 C32       12.0671   11.4288   15.2556 C.ar      1 RES1    0.0000
     73 H37       11.8610   12.2800   15.5709 H         1 RES1    0.0000
     74 C33       11.2342   10.8170   14.3433 C.ar      1 RES1    0.0000
     75 H38       10.4708   11.2644   14.0568 H         1 RES1    0.0000
     76 O3         2.3872    3.0066    1.5922 O.3       2 RES2    0.0000
     77 O4        -0.8296    0.7076   -0.2331 O.3       2 RES2    0.0000
     78 N3         2.8352    2.0606   -0.5646 N.3       2 RES2    0.0000
     79 N4        -1.1364    1.1452    1.0842 N.2       2 RES2    0.0000
     80 C34        1.9208    2.1358    0.5588 C.3       2 RES2    0.0000
     81 H39        1.8583    1.2366    0.9433 H         2 RES2    0.0000
     82 C35        4.1255    1.4598   -0.1003 C.3       2 RES2    0.0000
     83 C36        5.9207    1.7352    1.7863 C.3       2 RES2    0.0000
     84 H40        5.7299    0.8708    2.1828 H         2 RES2    0.0000
     85 H41        6.6280    1.6187    1.1344 H         2 RES2    0.0000
     86 C37        6.3818    2.6985    2.8682 C.3       2 RES2    0.0000
     87 H42        7.1642    2.3273    3.3052 H         2 RES2    0.0000
     88 H43        6.6450    3.5335    2.4526 H         2 RES2    0.0000
     89 C38        5.3351    2.9848    3.9142 C.3       2 RES2    0.0000
     90 H44        5.1337    2.1466    4.3775 H         2 RES2    0.0000
     91 C39        4.0546    3.4594    3.2193 C.3       2 RES2    0.0000
     92 H45        3.3525    3.5650    3.8784 H         2 RES2    0.0000
     93 H46        4.2140    4.3248    2.8109 H         2 RES2    0.0000
     94 C40        3.6016    2.4787    2.1565 C.3       2 RES2    0.0000
     95 H47        3.4051    1.6176    2.5816 H         2 RES2    0.0000
     96 C41        4.6581    2.2707    1.0866 C.3       2 RES2    0.0000
     97 H48        4.8842    3.1590    0.7403 H         2 RES2    0.0000
     98 C42        2.9683    3.3386   -1.2896 C.3       2 RES2    0.0000
     99 H49        3.8139    3.7457   -1.0436 H         2 RES2    0.0000
    100 H50        2.2609    3.9341   -0.9983 H         2 RES2    0.0000
    101 C43        2.9118    3.2265   -2.7942 C.ar      2 RES2    0.0000
    102 C44        2.6180    2.0966   -3.4796 C.ar      2 RES2    0.0000
    103 H51        2.4497    1.3084   -3.0163 H         2 RES2    0.0000
    104 C45        2.5652    2.1009   -4.8623 C.ar      2 RES2    0.0000
    105 H52        2.3739    1.3106   -5.3137 H         2 RES2    0.0000
    106 C46        2.7854    3.2156   -5.5620 C.ar      2 RES2    0.0000
    107 H53        2.7454    3.2025   -6.4934 H         2 RES2    0.0000
    108 C47        3.0690    4.3825   -4.8957 C.ar      2 RES2    0.0000
    109 H54        3.2245    5.1685   -5.3686 H         2 RES2    0.0000
    110 C48        3.1210    4.3749   -3.5202 C.ar      2 RES2    0.0000
    111 H55        3.3036    5.1674   -3.0712 H         2 RES2    0.0000
    112 C49        3.8811   -0.0327    0.2340 C.3       2 RES2    0.0000
    113 H56        3.3291   -0.0980    1.0174 H         2 RES2    0.0000
    114 H57        4.7213   -0.4659    0.3988 H         2 RES2    0.0000
    115 H58        3.4397   -0.4583   -0.5039 H         2 RES2    0.0000
    116 C50        5.1560    1.4837   -1.2586 C.3       2 RES2    0.0000
    117 H59        5.3394    2.3927   -1.5069 H         2 RES2    0.0000
    118 H60        4.7980    1.0124   -2.0156 H         2 RES2    0.0000
    119 H61        5.9690    1.0592   -0.9720 H         2 RES2    0.0000
    120 C51        5.8245    3.9907    4.9507 C.3       2 RES2    0.0000
    121 H62        5.1339    4.1431    5.5979 H         2 RES2    0.0000
    122 H63        6.0423    4.8180    4.5136 H         2 RES2    0.0000
    123 H64        6.6047    3.6445    5.3877 H         2 RES2    0.0000
    124 C52        0.4688    2.5973    0.2197 C.3       2 RES2    0.0000
    125 H65        0.4290    3.5607    0.0406 H         2 RES2    0.0000
    126 C53       -0.1259    1.7831   -0.9314 C.3       2 RES2    0.0000
    127 H66        0.6047    1.3966   -1.4568 H         2 RES2    0.0000
    128 C54       -1.0712    2.5200   -1.8675 C.ar      2 RES2    0.0000
    129 C55       -0.7636    3.7795   -2.3428 C.ar      2 RES2    0.0000
    130 H67        0.0025    4.2116   -2.0395 H         2 RES2    0.0000
    131 C56       -1.5891    4.4098   -3.2718 C.ar      2 RES2    0.0000
    132 H68       -1.3817    5.2577   -3.5918 H         2 RES2    0.0000
    133 C57       -2.7251    3.7490   -3.7088 C.ar      2 RES2    0.0000
    134 H69       -3.2849    4.1518   -4.3321 H         2 RES2    0.0000
    135 C58       -3.0253    2.5146   -3.2288 C.ar      2 RES2    0.0000
    136 H70       -3.7924    2.0846   -3.5321 H         2 RES2    0.0000
    137 C59       -2.2194    1.8810   -2.3046 C.ar      2 RES2    0.0000
    138 H71       -2.4446    1.0385   -1.9798 H         2 RES2    0.0000
    139 C60       -0.4408    2.2032    1.3589 C.2       2 RES2    0.0000
    140 C61       -0.5625    2.8346    2.6747 C.ar      2 RES2    0.0000
    141 C62       -0.1460    4.1376    2.8562 C.ar      2 RES2    0.0000
    142 H72        0.2385    4.6068    2.1517 H         2 RES2    0.0000
    143 C63       -0.3008    4.7429    4.0933 C.ar      2 RES2    0.0000
    144 H73       -0.0336    5.6257    4.2103 H         2 RES2    0.0000
    145 C64       -0.8394    4.0582    5.1346 C.ar      2 RES2    0.0000
    146 H74       -0.9382    4.4762    5.9609 H         2 RES2    0.0000
    147 C65       -1.2372    2.7639    4.9793 C.ar      2 RES2    0.0000
    148 H75       -1.5981    2.3012    5.7006 H         2 RES2    0.0000
    149 C66       -1.1045    2.1281    3.7423 C.ar      2 RES2    0.0000
    150 H76       -1.3742    1.2442    3.6348 H         2 RES2    0.0000
@<TRIPOS>BOND
     1    1    5 1
     2    2    4 1
     3    3    5 1
     4    4   51 2
     5    5    6 1
     6    7    3 1
     7    8    9 1
     8   10    8 1
     9   11    8 1
    10   12   11 1
    11   13   11 1
    12   14   11 1
    13   15   14 1
    14   16   14 1
    15   17   16 1
    16   18   16 1
    17   19    1 1
    18   20   19 1
    19   21    7 1
    20   22   21 1
    21   23    3 1
    22   24   23 1
    23   25   23 1
    24   26   23 1
    25   27   26 ar
    26   28   27 1
    27   29   27 ar
    28   30   29 1
    29   31   29 ar
    30   32   31 1
    31   33   31 ar
    32   34   33 1
    33   35   26 ar
    34   36   35 1
    35   37    7 1
    36   38   37 1
    37   39   37 1
    38   40   37 1
    39   41    7 1
    40   42   41 1
    41   43   41 1
    42   44   41 1
    43   45   14 1
    44   46   45 1
    45   47   45 1
    46   48   45 1
    47   49    5 1
    48   50   49 1
    49   51   49 1
    50   52   51 1
    51   53   52 ar
    52   54   53 1
    53   55   53 ar
    54   56   55 1
    55   57   55 ar
    56   58   57 1
    57   59   57 ar
    58   60   59 1
    59   61   52 ar
    60   62   61 1
    61   63    2 1
    62   64   63 1
    63   65   63 1
    64   66   65 ar
    65   67   66 1
    66   68   66 ar
    67   69   68 1
    68   70   68 ar
    69   71   70 1
    70   72   70 ar
    71   73   72 1
    72   74   65 ar
    73   75   74 1
    74   76   80 1
    75   77   79 1
    76   78   80 1
    77   79  139 2
    78   80   81 1
    79   82   78 1
    80   83   84 1
    81   85   83 1
    82   86   83 1
    83   87   86 1
    84   88   86 1
    85   89   86 1
    86   90   89 1
    87   91   89 1
    88   92   91 1
    89   93   91 1
    90   94   76 1
    91   95   94 1
    92   96   82 1
    93   97   96 1
    94   98   78 1
    95   99   98 1
    96  100   98 1
    97  101   98 1
    98  102  101 ar
    99  103  102 1
   100  104  102 ar
   101  105  104 1
   102  106  104 ar
   103  107  106 1
   104  108  106 ar
   105  109  108 1
   106  110  101 ar
   107  111  110 1
   108  112   82 1
   109  113  112 1
   110  114  112 1
   111  115  112 1
   112  116   82 1
   113  117  116 1
   114  118  116 1
   115  119  116 1
   116  120   89 1
   117  121  120 1
   118  122  120 1
   119  123  120 1
   120  124   80 1
   121  125  124 1
   122  126   77 1
   123  127  126 1
   124  128  126 1
   125  129  128 ar
   126  130  129 1
   127  131  129 ar
   128  132  131 1
   129  133  131 ar
   130  134  133 1
   131  135  133 ar
   132  136  135 1
   133  137  128 ar
   134  138  137 1
   135  139  124 1
   136  140  139 1
   137  141  140 ar
   138  142  141 1
   139  143  141 ar
   140  144  143 1
   141  145  143 ar
   142  146  145 1
   143  147  145 ar
   144  148  147 1
   145  149  140 ar
   146  150  149 1
   147    8   21 1
   148   16   19 1
   149   19   21 1
   150   33   35 ar
   151   49   63 1
   152   59   61 ar
   153   72   74 ar
   154   83   96 1
   155   91   94 1
   156   94   96 1
   157  108  110 ar
   158  124  126 1
   159  135  137 ar
   160  147  149 ar
@<TRIPOS>SUBSTRUCTURE
     1 RES1 1
     2 RES2 76

@<TRIPOS>CRYSIN
  11.0164   10.8856   23.9030  90.0000  92.4200  90.0000   4 1

