# MOL2 file generated by ConQuest
# Please check atom types

@<TRIPOS>MOLECULE
CUNTOU
    27    27     1
SMALL
NO_CHARGES
****
Generated from CSD

@<TRIPOS>ATOM
      1 C1         5.0475    7.8841   -1.6596 C.ar      1 RES1    0.0000
      2 C2         5.0475    7.9972   -0.3002 C.ar      1 RES1    0.0000
      3 C3         5.0475    6.8554    0.5013 C.ar      1 RES1    0.0000
      4 C4         5.0475    5.5700   -0.0595 C.ar      1 RES1    0.0000
      5 C5         5.0475    5.4897   -1.4585 C.ar      1 RES1    0.0000
      6 C6         5.0475    6.6247   -2.2274 C.ar      1 RES1    0.0000
      7 N1         5.0475    4.4361    0.6967 N.3       1 RES1    0.0000
      8 N2         5.0475    3.2434    0.0991 N.2       1 RES1    0.0000
      9 C7         5.0475    2.1988    0.8369 C.2       1 RES1    0.0000
     10 C8         5.0475    0.9180    0.0949 C.2       1 RES1    0.0000
     11 O1         5.0475   -0.1063    0.7377 O.2       1 RES1    0.0000
     12 C9         5.0475    2.1762    2.3279 C.3       1 RES1    0.0000
     13 C10        5.0475    0.9293   -1.3806 C.3       1 RES1    0.0000
     14 N3         5.0475    7.0588    1.9158 N.pl3     1 RES1    0.0000
     15 O2         5.0475    6.1318    2.6961 O.2       1 RES1    0.0000
     16 O3         5.0475    8.1961    2.3279 O.2       1 RES1    0.0000
     17 H1         5.0475    8.6596   -2.2090 H         1 RES1    0.0000
     18 H2         5.0475    8.8563    0.1048 H         1 RES1    0.0000
     19 H3         5.0475    4.6384   -1.8819 H         1 RES1    0.0000
     20 H4         5.0475    6.5445   -3.1747 H         1 RES1    0.0000
     21 H5         5.0475    4.4983    1.5647 H         1 RES1    0.0000
     22 H6         5.0475    1.3498    2.6890 H         1 RES1    0.0000
     23 H7         5.7077    2.7279    2.6762 H         1 RES1    0.0000
     24 H8         5.0475    0.0757   -1.7502 H         1 RES1    0.0000
     25 H9         5.8901    1.3623   -1.7034 H         1 RES1    0.0000
     26 H7A        4.3873    2.7279    2.6762 H         1 RES1    0.0000
     27 H9A        4.2049    1.3623   -1.7034 H         1 RES1    0.0000
@<TRIPOS>BOND
     1    1    2 ar
     2    2    3 ar
     3    3    4 ar
     4    4    5 ar
     5    5    6 ar
     6    6    1 ar
     7    7    4 1
     8    8    7 1
     9    9    8 2
    10   10    9 1
    11   11   10 2
    12   12    9 1
    13   13   10 1
    14   14    3 1
    15   15   14 2
    16   16   14 2
    17   17    1 1
    18   18    2 1
    19   19    5 1
    20   20    6 1
    21   21    7 1
    22   22   12 1
    23   23   12 1
    24   24   13 1
    25   25   13 1
    26   26   12 1
    27   27   13 1
@<TRIPOS>SUBSTRUCTURE
     1 RES1 1

@<TRIPOS>CRYSIN
   6.7300   11.3050   14.1600  90.0000  90.0000  90.0000  62 5

