# MOL2 file generated by ConQuest
# Please check atom types

@<TRIPOS>MOLECULE
CUNWEN
    34    35     1
SMALL
NO_CHARGES
****
Generated from CSD

@<TRIPOS>ATOM
      1 C1         1.2264   -0.9135   12.7657 C.ar      1 RES1    0.0000
      2 C2         1.6174    0.1279   13.5514 C.ar      1 RES1    0.0000
      3 C3         2.9099    0.6029   13.4145 C.ar      1 RES1    0.0000
      4 C4         3.8357   -0.0350   12.5177 C.ar      1 RES1    0.0000
      5 C5         3.3652   -1.0727   11.7736 C.ar      1 RES1    0.0000
      6 C6         2.0843   -1.5248   11.8748 C.ar      1 RES1    0.0000
      7 N1         5.1369    0.4265   12.3966 N.3       1 RES1    0.0000
      8 N2         5.9627   -0.3085   11.6566 N.2       1 RES1    0.0000
      9 C7         7.2147    0.0877   11.6010 C.2       1 RES1    0.0000
     10 C8         7.8074    1.2257   12.2776 C.2       1 RES1    0.0000
     11 O1         7.1701    2.0739   12.8510 O.2       1 RES1    0.0000
     12 O2         9.1383    1.3499   12.1407 O.3       1 RES1    0.0000
     13 C9         9.9256    0.2036   11.8570 C.3       1 RES1    0.0000
     14 C10       11.2848    0.7089   11.3689 C.3       1 RES1    0.0000
     15 C11       10.0035   -0.6687   13.0633 C.3       1 RES1    0.0000
     16 C12        8.0346   -0.7752   10.7161 C.2       1 RES1    0.0000
     17 O3         7.6126   -1.6323    9.9800 O.2       1 RES1    0.0000
     18 O4         9.3506   -0.5043   10.7379 O.3       1 RES1    0.0000
     19 N3        -0.1386   -1.4094   12.9621 N.pl3     1 RES1    0.0000
     20 O5        -0.8493   -0.9151   13.7895 O.2       1 RES1    0.0000
     21 O6        -0.4676   -2.3767   12.2577 O.2       1 RES1    0.0000
     22 N4         3.2659    1.7357   14.2220 N.pl3     1 RES1    0.0000
     23 O7         4.3715    2.2493   14.1307 O.2       1 RES1    0.0000
     24 O8         2.4046    2.1877   14.9879 O.2       1 RES1    0.0000
     25 H1         1.7831   -2.2420   11.3292 H         1 RES1    0.0000
     26 H2         3.9543   -1.5128   11.1645 H         1 RES1    0.0000
     27 H3         1.0197    0.5032   14.1863 H         1 RES1    0.0000
     28 H4         5.4980    1.2090   12.7954 H         1 RES1    0.0000
     29 H5        12.0060    0.2365   10.9681 H         1 RES1    0.0000
     30 H6        11.6254    1.3201   12.0117 H         1 RES1    0.0000
     31 H7        10.8075    1.1855   10.7002 H         1 RES1    0.0000
     32 H8        10.6144   -1.3864   12.9502 H         1 RES1    0.0000
     33 H9         9.1822   -1.0022   13.4065 H         1 RES1    0.0000
     34 H10       10.3656   -0.0350   13.6704 H         1 RES1    0.0000
@<TRIPOS>BOND
     1    1    2 ar
     2    2    3 ar
     3    3    4 ar
     4    4    5 ar
     5    5    6 ar
     6    6    1 ar
     7    7    4 1
     8    8    7 1
     9    9    8 2
    10   10    9 1
    11   11   10 2
    12   12   10 1
    13   13   12 1
    14   14   13 1
    15   15   13 1
    16   16    9 1
    17   17   16 2
    18   18   13 1
    19   19    1 1
    20   20   19 2
    21   21   19 2
    22   22    3 1
    23   23   22 2
    24   24   22 2
    25   25    6 1
    26   26    5 1
    27   27    2 1
    28   28    7 1
    29   29   14 1
    30   30   14 1
    31   31   14 1
    32   32   15 1
    33   33   15 1
    34   34   15 1
    35   16   18 1
@<TRIPOS>SUBSTRUCTURE
     1 RES1 1

@<TRIPOS>CRYSIN
  14.2360    5.2200   20.1110  90.0000  99.4000  90.0000  14 1

