# MOL2 file generated by ConQuest
# Please check atom types

@<TRIPOS>MOLECULE
CUPLAC
    49    52     1
SMALL
NO_CHARGES
****
Generated from CSD

@<TRIPOS>ATOM
      1 N1         7.0063    0.3133   13.9845 N.3       1 RES1    0.0000
      2 N2        10.5410   -0.0965    9.6347 N.pl3     1 RES1    0.0000
      3 O1         8.7922    3.6992   12.5053 O.2       1 RES1    0.0000
      4 O2        11.1206    0.9176    9.2638 O.2       1 RES1    0.0000
      5 O3        10.7238   -1.2052    9.1414 O.2       1 RES1    0.0000
      6 C1         6.7051    1.5602   14.4962 C.2       1 RES1    0.0000
      7 C2         7.2639    2.6932   13.9978 C.2       1 RES1    0.0000
      8 H1         7.0062    3.5283   14.3704 H         1 RES1    0.0000
      9 C3         8.2172    2.6858   12.9434 C.2       1 RES1    0.0000
     10 C4         8.4819    1.3601   12.3797 C.ar      1 RES1    0.0000
     11 C5         9.3706    1.2445   11.3057 C.ar      1 RES1    0.0000
     12 H2         9.8117    2.0140   10.9643 H         1 RES1    0.0000
     13 C6         9.5993    0.0168   10.7516 C.ar      1 RES1    0.0000
     14 C7         8.9611   -1.1269   11.2175 C.ar      1 RES1    0.0000
     15 H3         9.1238   -1.9657   10.8043 H         1 RES1    0.0000
     16 C8         8.0958   -1.0381   12.2758 C.ar      1 RES1    0.0000
     17 H4         7.6576   -1.8177   12.5972 H         1 RES1    0.0000
     18 C9         7.8538    0.2099   12.8922 C.ar      1 RES1    0.0000
     19 C10        5.7228    1.6689   15.6119 C.ar      1 RES1    0.0000
     20 C11        6.0360    1.2673   16.9061 C.ar      1 RES1    0.0000
     21 H5         6.8801    0.8726   17.0893 H         1 RES1    0.0000
     22 C12        5.1221    1.4412   17.9262 C.ar      1 RES1    0.0000
     23 H6         5.3388    1.1670   18.8083 H         1 RES1    0.0000
     24 C13        3.8940    2.0125   17.6639 C.ar      1 RES1    0.0000
     25 H7         3.2629    2.1227   18.3650 H         1 RES1    0.0000
     26 C14        3.5825    2.4231   16.3899 C.ar      1 RES1    0.0000
     27 H8         2.7387    2.8232   16.2150 H         1 RES1    0.0000
     28 C15        4.4882    2.2574   15.3607 C.ar      1 RES1    0.0000
     29 H9         4.2686    2.5454   14.4812 H         1 RES1    0.0000
     30 C16        6.4275   -0.9155   14.5814 C.3       1 RES1    0.0000
     31 H10        6.2642   -0.7564   15.5451 H         1 RES1    0.0000
     32 H11        7.0875   -1.6486   14.5058 H         1 RES1    0.0000
     33 C17        5.1313   -1.3556   13.9313 C.3       1 RES1    0.0000
     34 H12        5.2909   -1.5565   12.9740 H         1 RES1    0.0000
     35 H13        4.4676   -0.6235   13.9862 H         1 RES1    0.0000
     36 C18        4.5792   -2.6057   14.6356 C.3       1 RES1    0.0000
     37 H14        3.8038   -2.9440   14.1216 H         1 RES1    0.0000
     38 H15        5.2753   -3.3094   14.6265 H         1 RES1    0.0000
     39 C19        4.1485   -2.3655   16.0621 C.ar      1 RES1    0.0000
     40 C20        4.8232   -2.9059   17.1373 C.ar      1 RES1    0.0000
     41 H16        5.5983   -3.4347   16.9859 H         1 RES1    0.0000
     42 C21        4.3872   -2.6893   18.4350 C.ar      1 RES1    0.0000
     43 H17        4.8730   -3.0602   19.1630 H         1 RES1    0.0000
     44 C22        3.2662   -1.9480   18.6805 C.ar      1 RES1    0.0000
     45 H18        2.9659   -1.8087   19.5718 H         1 RES1    0.0000
     46 C23        2.5824   -1.4087   17.6250 C.ar      1 RES1    0.0000
     47 H19        1.7998   -0.8938   17.7813 H         1 RES1    0.0000
     48 C24        3.0263   -1.6106   16.3362 C.ar      1 RES1    0.0000
     49 H20        2.5459   -1.2199   15.6166 H         1 RES1    0.0000
@<TRIPOS>BOND
     1    1    6 1
     2    2    4 2
     3    3    9 2
     4    5    2 2
     5    6    7 2
     6    7    8 1
     7    9    7 1
     8   10    9 1
     9   11   10 ar
    10   12   11 1
    11   13    2 1
    12   14   13 ar
    13   15   14 1
    14   16   14 ar
    15   17   16 1
    16   18    1 1
    17   19    6 1
    18   20   19 ar
    19   21   20 1
    20   22   20 ar
    21   23   22 1
    22   24   22 ar
    23   25   24 1
    24   26   24 ar
    25   27   26 1
    26   28   19 ar
    27   29   28 1
    28   30    1 1
    29   31   30 1
    30   32   30 1
    31   33   30 1
    32   34   33 1
    33   35   33 1
    34   36   33 1
    35   37   36 1
    36   38   36 1
    37   39   36 1
    38   40   39 ar
    39   41   40 1
    40   42   40 ar
    41   43   42 1
    42   44   42 ar
    43   45   44 1
    44   46   44 ar
    45   47   46 1
    46   48   39 ar
    47   49   48 1
    48   10   18 ar
    49   11   13 ar
    50   16   18 ar
    51   26   28 ar
    52   46   48 ar
@<TRIPOS>SUBSTRUCTURE
     1 RES1 1

@<TRIPOS>CRYSIN
  10.4213   15.0974   24.6279  90.0000  90.0000  90.0000  61 1

