# MOL2 file generated by ConQuest
# Please check atom types

@<TRIPOS>MOLECULE
CUPQEL
    34    35     1
SMALL
NO_CHARGES
****
Generated from CSD

@<TRIPOS>ATOM
      1 C1         1.0074    5.2663   15.9746 C.ar      1 RES1    0.0000
      2 C2        -0.0366    5.0588   15.0831 C.ar      1 RES1    0.0000
      3 H1        -0.8832    5.4044   15.2537 H         1 RES1    0.0000
      4 C3         0.2097    4.3300   13.9418 C.ar      1 RES1    0.0000
      5 C4         1.4397    3.7947   13.6442 C.ar      1 RES1    0.0000
      6 H2         1.5690    3.2872   12.8761 H         1 RES1    0.0000
      7 C5         2.4766    4.0338   14.5207 C.ar      1 RES1    0.0000
      8 H3         3.3225    3.6921   14.3390 H         1 RES1    0.0000
      9 C6         2.2684    4.7742   15.6653 C.ar      1 RES1    0.0000
     10 H4         2.9814    4.9462   16.2366 H         1 RES1    0.0000
     11 C7         0.7611    6.0430   17.1955 C.2       1 RES1    0.0000
     12 H5        -0.0208    6.5428   17.2548 H         1 RES1    0.0000
     13 C8         1.2580    6.9755   19.2747 C.3       1 RES1    0.0000
     14 C9         2.3962    7.9581   19.4756 C.2       1 RES1    0.0000
     15 C10        0.9665    6.1918   20.5406 C.ar      1 RES1    0.0000
     16 C11        1.9660    5.7183   21.3519 C.ar      1 RES1    0.0000
     17 H6         2.8543    5.8903   21.1358 H         1 RES1    0.0000
     18 C12        1.6645    4.9832   22.4929 C.ar      1 RES1    0.0000
     19 H7         2.3495    4.6470   23.0233 H         1 RES1    0.0000
     20 C13        0.3562    4.7534   22.8353 C.ar      1 RES1    0.0000
     21 H8         0.1529    4.2852   23.6120 H         1 RES1    0.0000
     22 C14       -0.6419    5.2108   22.0346 C.ar      1 RES1    0.0000
     23 H9        -1.5280    5.0365   22.2552 H         1 RES1    0.0000
     24 C15       -0.3483    5.9327   20.8948 C.ar      1 RES1    0.0000
     25 H10       -1.0398    6.2474   20.3601 H         1 RES1    0.0000
     26 N1         1.5726    6.0607   18.1718 N.2       1 RES1    0.0000
     27 N2         3.5881    7.6395   18.9861 N.am      1 RES1    0.0000
     28 N3        -0.8890    4.1102   12.9943 N.pl3     1 RES1    0.0000
     29 O1         2.2029    9.0055   20.1024 O.2       1 RES1    0.0000
     30 O2        -0.7166    3.3057   12.0905 O.2       1 RES1    0.0000
     31 O3        -1.9172    4.7249   13.1575 O.2       1 RES1    0.0000
     32 H11        0.4667    7.5123   19.0968 H         1 RES1    0.0000
     33 H12        3.6406    6.9107   18.5485 H         1 RES1    0.0000
     34 H13        4.2653    8.1601   19.1296 H         1 RES1    0.0000
@<TRIPOS>BOND
     1    1    2 ar
     2    2    3 1
     3    4    2 ar
     4    5    4 ar
     5    6    5 1
     6    7    5 ar
     7    8    7 1
     8    9    1 ar
     9   10    9 1
    10   11    1 1
    11   12   11 1
    12   13   14 1
    13   14   27 1
    14   15   13 1
    15   16   15 ar
    16   17   16 1
    17   18   16 ar
    18   19   18 1
    19   20   18 ar
    20   21   20 1
    21   22   20 ar
    22   23   22 1
    23   24   15 ar
    24   25   24 1
    25   26   11 2
    26   27   33 1
    27   28    4 1
    28   29   14 2
    29   30   28 2
    30   31   28 2
    31   32   13 1
    32   34   27 1
    33    7    9 ar
    34   13   26 1
    35   22   24 ar
@<TRIPOS>SUBSTRUCTURE
     1 RES1 1

@<TRIPOS>CRYSIN
   7.1806    7.7128   25.2670  90.0000  90.0000  90.0000  19 1

