# MOL2 file generated by ConQuest
# Please check atom types

@<TRIPOS>MOLECULE
CUPSAJ
    34    35     1
SMALL
NO_CHARGES
****
Generated from CSD

@<TRIPOS>ATOM
      1 C1         1.7323    5.9210    5.0347 C.ar      1 RES1    0.0000
      2 C2         2.6678    6.9157    4.8129 C.ar      1 RES1    0.0000
      3 H1         2.6704    7.6631    5.3659 H         1 RES1    0.0000
      4 C3         3.5970    6.8302    3.7954 C.ar      1 RES1    0.0000
      5 H2         4.2248    7.5073    3.6847 H         1 RES1    0.0000
      6 C4         3.5991    5.7559    2.9508 C.ar      1 RES1    0.0000
      7 H3         4.2123    5.7160    2.2533 H         1 RES1    0.0000
      8 C5         2.6940    4.7327    3.1315 C.ar      1 RES1    0.0000
      9 H4         2.7034    3.9922    2.5683 H         1 RES1    0.0000
     10 C6         1.7710    4.8155    4.1607 C.ar      1 RES1    0.0000
     11 C7         0.7194    6.1310    6.1015 C.2       1 RES1    0.0000
     12 C8        -0.1271    7.0161    8.0583 C.3       1 RES1    0.0000
     13 H5        -0.9664    6.8302    7.5875 H         1 RES1    0.0000
     14 C9        -0.1549    8.4712    8.5680 C.2       1 RES1    0.0000
     15 C10       -0.0047    6.0668    9.2300 C.ar      1 RES1    0.0000
     16 C11        1.0794    6.1228   10.1057 C.ar      1 RES1    0.0000
     17 H6         1.7318    6.7764    9.9955 H         1 RES1    0.0000
     18 C12        1.1850    5.2071   11.1382 C.ar      1 RES1    0.0000
     19 H7         1.9102    5.2499   11.7195 H         1 RES1    0.0000
     20 C13        0.2313    4.2363   11.3136 C.ar      1 RES1    0.0000
     21 H8         0.3103    3.6268   12.0103 H         1 RES1    0.0000
     22 C14       -0.8439    4.1673   10.4542 C.ar      1 RES1    0.0000
     23 H9        -1.4916    3.5109   10.5696 H         1 RES1    0.0000
     24 C15       -0.9580    5.0789    9.4159 C.ar      1 RES1    0.0000
     25 H10       -1.6837    5.0278    8.8362 H         1 RES1    0.0000
     26 N1         0.9909    6.8085    7.1305 N.2       1 RES1    0.0000
     27 N2         0.9946    9.1022    8.6245 N.am      1 RES1    0.0000
     28 N3         0.8601    3.6796    4.3365 N.pl3     1 RES1    0.0000
     29 O1        -1.2436    8.9289    8.9412 O.2       1 RES1    0.0000
     30 O2         0.2276    3.5887    5.3632 O.2       1 RES1    0.0000
     31 O3         0.8094    2.8532    3.4547 O.2       1 RES1    0.0000
     32 H11        1.7632    8.6877    8.3628 H         1 RES1    0.0000
     33 H12        1.0255    9.9977    8.8810 H         1 RES1    0.0000
     34 H13       -0.1622    5.8097    5.9362 H         1 RES1    0.0000
@<TRIPOS>BOND
     1    1    2 ar
     2    2    3 1
     3    4    2 ar
     4    5    4 1
     5    6    4 ar
     6    7    6 1
     7    8    6 ar
     8    9    8 1
     9   10    1 ar
    10   11    1 1
    11   12   13 1
    12   14   12 1
    13   15   12 1
    14   16   15 ar
    15   17   16 1
    16   18   16 ar
    17   19   18 1
    18   20   18 ar
    19   21   20 1
    20   22   20 ar
    21   23   22 1
    22   24   15 ar
    23   25   24 1
    24   26   11 2
    25   27   14 1
    26   28   10 1
    27   29   14 2
    28   30   28 2
    29   31   28 2
    30   32   27 1
    31   33   27 1
    32   34   11 1
    33    8   10 ar
    34   12   26 1
    35   22   24 ar
@<TRIPOS>SUBSTRUCTURE
     1 RES1 1

@<TRIPOS>CRYSIN
   5.2320   13.7900   18.6379  90.0000  90.0000  90.0000  19 1

