# MOL2 file generated by ConQuest
# Please check atom types

@<TRIPOS>MOLECULE
CUPYUJ
    15    15     1
SMALL
NO_CHARGES
****
Generated from CSD

@<TRIPOS>ATOM
      1 O1         3.7230   10.7304    6.1306 O.2       1 RES1    0.0000
      2 O2         2.0029    9.8561    5.1483 O.2       1 RES1    0.0000
      3 O3         2.8559    6.7231   10.1069 O.2       1 RES1    0.0000
      4 O4         2.1206    4.9288    9.1222 O.2       1 RES1    0.0000
      5 N1         4.3128    7.3300    8.0743 N.pl3     1 RES1    0.0000
      6 N2         5.4606    7.4046    8.8222 N.2       1 RES1    0.0000
      7 N3         5.9404    8.5681    8.6418 N.2       1 RES1    0.0000
      8 N4         5.1280    9.2453    7.7752 N.3       1 RES1    0.0000
      9 N5         3.0490    8.6015    6.5908 N.2       1 RES1    0.0000
     10 N6         2.9516    9.7872    5.9406 N.pl3     1 RES1    0.0000
     11 N7         3.5244    6.2143    7.9696 N.3       1 RES1    0.0000
     12 N8         2.7771    5.9460    9.1972 N.pl3     1 RES1    0.0000
     13 C1         4.0934    8.4901    7.4001 C.2       1 RES1    0.0000
     14 H1         4.0650    5.4077    7.7775 H         1 RES1    0.0000
     15 H2         5.2795   10.0776    7.5584 H         1 RES1    0.0000
@<TRIPOS>BOND
     1    1   10 2
     2    2   10 2
     3    3   12 2
     4    4   12 2
     5    5    6 1
     6    6    7 2
     7    7    8 1
     8    8   13 1
     9    9   10 1
    10   11    5 1
    11   12   11 1
    12   13    5 1
    13   14   11 1
    14   15    8 1
    15    9   13 2
@<TRIPOS>SUBSTRUCTURE
     1 RES1 1

@<TRIPOS>CRYSIN
   5.4710    8.9979   13.0363  90.0000  90.0000  90.0000  19 1

