# MOL2 file generated by ConQuest
# Please check atom types

@<TRIPOS>MOLECULE
CUQXAN
    57    59     1
SMALL
NO_CHARGES
****
Generated from CSD

@<TRIPOS>ATOM
      1 C1        10.0963    1.1836    2.4899 C.ar      1 RES1    0.0000
      2 C2         9.2059    0.5717    1.6477 C.ar      1 RES1    0.0000
      3 H1         9.4629   -0.1843    1.1715 H         1 RES1    0.0000
      4 C3         7.8904    1.0860    1.4987 C.ar      1 RES1    0.0000
      5 C4         7.5118    2.1927    2.3085 C.ar      1 RES1    0.0000
      6 H2         6.6506    2.5440    2.2610 H         1 RES1    0.0000
      7 C5         8.4500    2.7351    3.1647 C.ar      1 RES1    0.0000
      8 C6         9.7886    2.2868    3.2846 C.ar      1 RES1    0.0000
      9 H3        10.4087    2.6938    3.8449 H         1 RES1    0.0000
     10 N1         8.0730    3.9112    4.0263 N.pl3     1 RES1    0.0000
     11 O1         6.8636    4.1535    4.1354 O.2       1 RES1    0.0000
     12 O2         8.9832    4.5708    4.5230 O.2       1 RES1    0.0000
     13 N2        11.4788    0.6188    2.6173 N.pl3     1 RES1    0.0000
     14 O3        12.3171    1.2462    3.2371 O.2       1 RES1    0.0000
     15 O4        11.6766   -0.4977    2.0882 O.2       1 RES1    0.0000
     16 C7         7.0003    0.4288    0.5010 C.2       1 RES1    0.0000
     17 O5         7.3021   -0.5774   -0.1360 O.2       1 RES1    0.0000
     18 O6         5.8279    1.1325    0.3282 O.3       1 RES1    0.0000
     19 C8         4.9182    0.6303   -0.7558 C.3       1 RES1    0.0000
     20 H4         5.4354    0.1148   -1.3939 H         1 RES1    0.0000
     21 H5         4.5312    1.3868   -1.2255 H         1 RES1    0.0000
     22 C9         3.7894   -0.2457   -0.1944 C.3       1 RES1    0.0000
     23 C10        2.9734   -0.6865   -1.4274 C.3       1 RES1    0.0000
     24 H6         2.6090    0.1062   -1.8496 H         1 RES1    0.0000
     25 H7         3.5800   -1.1004   -2.0623 H         1 RES1    0.0000
     26 C11        1.8250   -1.6606   -1.1553 C.3       1 RES1    0.0000
     27 H8         1.1414   -1.2083   -0.6327 H         1 RES1    0.0000
     28 H9         2.1565   -2.4039   -0.6284 H         1 RES1    0.0000
     29 C12        1.1677   -2.2214   -2.4834 C.3       1 RES1    0.0000
     30 H10        0.8087   -1.4844   -3.0027 H         1 RES1    0.0000
     31 H11        1.8453   -2.6639   -3.0168 H         1 RES1    0.0000
     32 C13        0.0522   -3.2029   -2.1595 C.3       1 RES1    0.0000
     33 H12        0.3875   -3.8934   -1.5807 H         1 RES1    0.0000
     34 H13       -0.2760   -3.5996   -2.9704 H         1 RES1    0.0000
     35 H14       -0.6650   -2.7414   -1.7179 H         1 RES1    0.0000
     36 C14        4.3630   -1.4080    0.5615 C.2       1 RES1    0.0000
     37 H15        4.8256   -2.1037    0.1576 H         1 RES1    0.0000
     38 C15        4.1389   -1.3478    1.9003 C.2       1 RES1    0.0000
     39 H16        4.4112   -2.0033    2.4974 H         1 RES1    0.0000
     40 C16        3.3783   -0.0574    2.3031 C.3       1 RES1    0.0000
     41 C17        2.9650    0.4982    0.9642 C.3       1 RES1    0.0000
     42 H17        3.1423    1.4516    0.9340 H         1 RES1    0.0000
     43 H18        2.0132    0.3616    0.8303 H         1 RES1    0.0000
     44 O7         4.2206    0.8283    3.0708 O.3       1 RES1    0.0000
     45 O8         2.2221   -0.3266    3.1086 O.3       1 RES1    0.0000
     46 C18        3.5288    1.1514    4.3405 C.3       1 RES1    0.0000
     47 H19        3.0252    1.9872    4.2455 H         1 RES1    0.0000
     48 C19        2.5745   -0.0344    4.4377 C.3       1 RES1    0.0000
     49 H20        3.0781   -0.7944    4.7930 H         1 RES1    0.0000
     50 C20        4.6361    1.3145    5.3771 C.3       1 RES1    0.0000
     51 H21        4.8545    0.4575    5.7464 H         1 RES1    0.0000
     52 H22        4.3351    1.8999    6.0735 H         1 RES1    0.0000
     53 H23        5.4147    1.6904    4.9549 H         1 RES1    0.0000
     54 C21        1.3532    0.2066    5.3879 C.3       1 RES1    0.0000
     55 H24        0.8315    0.9460    5.0532 H         1 RES1    0.0000
     56 H25        1.6636    0.4093    6.2690 H         1 RES1    0.0000
     57 H26        0.8065   -0.5809    5.4084 H         1 RES1    0.0000
@<TRIPOS>BOND
     1    1    2 ar
     2    2    3 1
     3    4    2 ar
     4    5    4 ar
     5    6    5 1
     6    7    5 ar
     7    8    1 ar
     8    9    8 1
     9   10    7 1
    10   11   10 2
    11   12   10 2
    12   13    1 1
    13   14   13 2
    14   15   13 2
    15   16    4 1
    16   17   16 2
    17   18   16 1
    18   19   18 1
    19   20   19 1
    20   21   19 1
    21   22   19 1
    22   23   22 1
    23   24   23 1
    24   25   23 1
    25   26   23 1
    26   27   26 1
    27   28   26 1
    28   29   26 1
    29   30   29 1
    30   31   29 1
    31   32   29 1
    32   33   32 1
    33   34   32 1
    34   35   32 1
    35   36   22 1
    36   37   36 1
    37   38   36 2
    38   39   38 1
    39   40   38 1
    40   41   22 1
    41   42   41 1
    42   43   41 1
    43   44   40 1
    44   45   40 1
    45   46   44 1
    46   47   46 1
    47   48   45 1
    48   49   48 1
    49   50   46 1
    50   51   50 1
    51   52   50 1
    52   53   50 1
    53   54   48 1
    54   55   54 1
    55   56   54 1
    56   57   54 1
    57    7    8 ar
    58   40   41 1
    59   46   48 1
@<TRIPOS>SUBSTRUCTURE
     1 RES1 1

@<TRIPOS>CRYSIN
  37.7600    5.7400   10.9100  90.0000  98.2400  90.0000   5 1

