# MOL2 file generated by ConQuest
# Please check atom types

@<TRIPOS>MOLECULE
CURFUR
    44    34     3
SMALL
NO_CHARGES
****
Generated from CSD

@<TRIPOS>ATOM
      1 O1         1.2259   -1.0292    3.7511 O.2       1 RES1    0.0000
      2 O2         2.5981    0.3169    1.9155 O.3       1 RES1    0.0000
      3 N1         2.3023    0.8660    3.1652 N.am      1 RES1    0.0000
      4 C1         1.6616    0.0941    4.0390 C.2       1 RES1    0.0000
      5 C2         2.9685    2.1302    3.4271 C.3       1 RES1    0.0000
      6 C3         2.4391    2.7771    4.6828 C.3       1 RES1    0.0000
      7 C4         2.3421    1.7874    5.8085 C.3       1 RES1    0.0000
      8 C5         1.4294    0.6655    5.4066 C.3       1 RES1    0.0000
      9 O3         1.0430    1.4273    0.1380 O.2       2 RES2    0.0000
     10 O4        -0.4420    2.5600   -1.7516 O.3       2 RES2    0.0000
     11 N2        -0.9683    2.2136   -0.5079 N.am      2 RES2    0.0000
     12 C6        -0.1510    1.6739    0.3859 C.2       2 RES2    0.0000
     13 C7        -2.3691    2.5866   -0.3419 C.3       2 RES2    0.0000
     14 C8        -2.7459    2.5686    1.1857 C.3       2 RES2    0.0000
     15 C9        -2.1910    1.3318    1.8495 C.3       2 RES2    0.0000
     16 C10       -0.7282    1.3662    1.7436 C.3       2 RES2    0.0000
     17 C11       -3.0528    1.7939    0.6318 Du        3 SUP3    0.0000
     18 C12       -2.2435    2.0598    1.8555 Du        3 SUP3    0.0000
     19 H1         2.0479    0.6971    1.3437 H         1 RES1    0.0000
     20 H2         2.8302    2.7397    2.6613 H         1 RES1    0.0000
     21 H3         3.9416    1.9743    3.5231 H         1 RES1    0.0000
     22 H4         3.0385    3.5180    4.9488 H         1 RES1    0.0000
     23 H5         1.5439    3.1580    4.5029 H         1 RES1    0.0000
     24 H6         1.9891    2.2344    6.6183 H         1 RES1    0.0000
     25 H7         3.2404    1.4302    6.0185 H         1 RES1    0.0000
     26 H8         1.5216   -0.0647    6.0685 H         1 RES1    0.0000
     27 H9         0.4945    0.9911    5.4526 H         1 RES1    0.0000
     28 H10       -0.7282    1.9549   -2.3034 H         2 RES2    0.0000
     29 H11       -2.9447    1.9506   -0.8358 H         2 RES2    0.0000
     30 H12       -2.5202    3.4922   -0.7118 H         2 RES2    0.0000
     31 H13       -2.4184    3.5382   -0.0720 Du        3 SUP3    0.0000
     32 H14       -2.8302    2.4946   -1.2117 Du        3 SUP3    0.0000
     33 H15       -2.3802    3.3757    1.6276 H         2 RES2    0.0000
     34 H16       -3.7317    2.5844    1.2837 H         2 RES2    0.0000
     35 H17       -2.4613    1.3080    2.8013 H         2 RES2    0.0000
     36 H18       -2.5440    0.5203    1.4056 H         2 RES2    0.0000
     37 H19       -0.3784    0.4866    2.0335 H         2 RES2    0.0000
     38 H20       -0.3895    2.0433    2.3814 H         2 RES2    0.0000
     39 H21       -0.1383    1.7285    2.4514 Du        3 SUP3    0.0000
     40 H22       -0.7966    0.3859    1.8675 Du        3 SUP3    0.0000
     41 H23       -3.0401    0.8337    0.3919 Du        3 SUP3    0.0000
     42 H24       -3.9909    2.0900    0.7458 Du        3 SUP3    0.0000
     43 H25       -2.7141    1.6954    2.6473 Du        3 SUP3    0.0000
     44 H26       -2.1481    3.0372    1.9815 Du        3 SUP3    0.0000
@<TRIPOS>BOND
     1    1    4 2
     2    2    3 1
     3    3    4 1
     4    4    8 1
     5    5    3 1
     6    6    5 1
     7    7    6 1
     8    8    7 1
     9    9   12 2
    10   10   11 1
    11   11   12 1
    12   12   16 1
    13   13   11 1
    14   14   13 1
    15   15   14 1
    16   16   15 1
    17   19    2 1
    18   20    5 1
    19   21    5 1
    20   22    6 1
    21   23    6 1
    22   24    7 1
    23   25    7 1
    24   26    8 1
    25   27    8 1
    26   28   10 1
    27   29   13 1
    28   30   13 1
    29   33   14 1
    30   34   14 1
    31   35   15 1
    32   36   15 1
    33   37   16 1
    34   38   16 1
@<TRIPOS>SUBSTRUCTURE
     1 RES1 1
     2 RES2 9
     3 SUP3 17

@<TRIPOS>CRYSIN
  15.9000    7.1870   19.9950  90.0000  90.0000  90.0000  61 1

