# MOL2 file generated by ConQuest
# Please check atom types

@<TRIPOS>MOLECULE
CURLIL
    76    78     2
SMALL
NO_CHARGES
****
Generated from CSD

@<TRIPOS>ATOM
      1 O1         4.5932    4.3184    5.6520 O.3       1 RES1    0.0000
      2 O2         2.7204    7.9164    2.7182 O.2       1 RES1    0.0000
      3 O3         1.2151    8.8704    3.9391 O.2       1 RES1    0.0000
      4 O4        -1.2635    2.9079    0.0007 O.3       2 RES2    0.0000
      5 O5         0.3086    6.9060   -2.5726 O.2       2 RES2    0.0000
      6 O6         1.8875    7.7514   -1.3827 O.2       2 RES2    0.0000
      7 N1         2.9117    4.0826    7.7165 N.2       1 RES1    0.0000
      8 N2         2.3132    4.2827    8.8121 N.2       1 RES1    0.0000
      9 N3         2.0519    7.9970    3.7484 N.pl3     1 RES1    0.0000
     10 N4         2.3837    0.2034   12.6439 N.3       1 RES1    0.0000
     11 N5         0.4892    2.5662    1.9894 N.2       2 RES2    0.0000
     12 N6         1.0451    2.7336    3.1149 N.2       2 RES2    0.0000
     13 N7         1.0314    6.8969   -1.5902 N.pl3     2 RES2    0.0000
     14 N8         1.2419   -1.5222    6.7328 N.3       2 RES2    0.0000
     15 C1         2.6861    5.1246    6.7707 C.ar      1 RES1    0.0000
     16 C2         3.5575    5.1924    5.6617 C.ar      1 RES1    0.0000
     17 C3         3.3313    6.1321    4.6663 C.ar      1 RES1    0.0000
     18 C4         2.2687    7.0010    4.8018 C.ar      1 RES1    0.0000
     19 C5         1.4152    6.9740    5.8744 C.ar      1 RES1    0.0000
     20 C6         1.6317    6.0205    6.8581 C.ar      1 RES1    0.0000
     21 C7         2.4274    3.2331    9.7507 C.ar      1 RES1    0.0000
     22 C8         1.7735    3.4296   10.9692 C.ar      1 RES1    0.0000
     23 C9         1.7802    2.4445   11.9398 C.ar      1 RES1    0.0000
     24 C10        2.4168    1.2128   11.7140 C.ar      1 RES1    0.0000
     25 C11        3.0984    1.0414   10.4884 C.ar      1 RES1    0.0000
     26 C12        3.1045    2.0345    9.5337 C.ar      1 RES1    0.0000
     27 C13        5.5057    4.3975    4.5526 C.3       1 RES1    0.0000
     28 C14        1.6776    0.3799   13.9028 C.3       1 RES1    0.0000
     29 C15        2.8311   -1.1318   12.2997 C.3       1 RES1    0.0000
     30 C16        0.6259    3.7102    1.1524 C.ar      2 RES2    0.0000
     31 C17       -0.2847    3.8521    0.0860 C.ar      2 RES2    0.0000
     32 C18       -0.1556    4.9066   -0.8030 C.ar      2 RES2    0.0000
     33 C19        0.8835    5.7983   -0.6208 C.ar      2 RES2    0.0000
     34 C20        1.7893    5.6985    0.4095 C.ar      2 RES2    0.0000
     35 C21        1.6539    4.6358    1.2897 C.ar      2 RES2    0.0000
     36 C22        1.0337    1.6149    3.9661 C.ar      2 RES2    0.0000
     37 C23        1.5634    1.8202    5.2420 C.ar      2 RES2    0.0000
     38 C24        1.6095    0.7983    6.1746 C.ar      2 RES2    0.0000
     39 C25        1.1523   -0.4970    5.8481 C.ar      2 RES2    0.0000
     40 C26        0.6145   -0.6922    4.5439 C.ar      2 RES2    0.0000
     41 C27        0.5564    0.3335    3.6331 C.ar      2 RES2    0.0000
     42 C28       -2.2278    3.0576   -1.0493 C.3       2 RES2    0.0000
     43 C29        1.8635   -1.3424    8.0415 C.3       2 RES2    0.0000
     44 C30        0.7767   -2.8621    6.4180 C.3       2 RES2    0.0000
     45 H1         3.8990    6.1767    3.9056 H         1 RES1    0.0000
     46 H2         0.6959    7.5919    5.9429 H         1 RES1    0.0000
     47 H3         1.0464    5.9803    7.6057 H         1 RES1    0.0000
     48 H4         1.3192    4.2469   11.1324 H         1 RES1    0.0000
     49 H5         1.3491    2.6024   12.7719 H         1 RES1    0.0000
     50 H6         3.5592    0.2284   10.3201 H         1 RES1    0.0000
     51 H7         3.5756    1.9013    8.7191 H         1 RES1    0.0000
     52 H8         6.1794    3.7356    4.6517 H         1 RES1    0.0000
     53 H9         5.0369    4.2504    3.7380 H         1 RES1    0.0000
     54 H10        5.9068    5.2576    4.5366 H         1 RES1    0.0000
     55 H11        2.0574    1.1094   14.3793 H         1 RES1    0.0000
     56 H12        0.7609    0.5569   13.7293 H         1 RES1    0.0000
     57 H13        1.7551   -0.4116   14.4230 H         1 RES1    0.0000
     58 H14        2.7360   -1.7010   13.0546 H         1 RES1    0.0000
     59 H15        2.3067   -1.4672   11.5827 H         1 RES1    0.0000
     60 H16        3.7436   -1.1015   12.0374 H         1 RES1    0.0000
     61 H17       -0.7687    5.0156   -1.5200 H         2 RES2    0.0000
     62 H18        2.4855    6.3366    0.5144 H         2 RES2    0.0000
     63 H19        2.2755    4.5380    2.0023 H         2 RES2    0.0000
     64 H20        1.8972    2.6793    5.4751 H         2 RES2    0.0000
     65 H21        1.9530    0.9695    7.0432 H         2 RES2    0.0000
     66 H22        0.2887   -1.5498    4.2991 H         2 RES2    0.0000
     67 H23        0.1904    0.1775    2.7718 H         2 RES2    0.0000
     68 H24       -2.6821    3.8869   -0.9473 H         2 RES2    0.0000
     69 H25       -1.7861    3.0425   -1.8901 H         2 RES2    0.0000
     70 H26       -2.8553    2.3453   -1.0085 H         2 RES2    0.0000
     71 H27        1.8363   -2.1624    8.5209 H         2 RES2    0.0000
     72 H28        2.7669   -1.0708    7.9292 H         2 RES2    0.0000
     73 H29        1.3911   -0.6768    8.5282 H         2 RES2    0.0000
     74 H30       -0.1539   -2.8371    6.2271 H         2 RES2    0.0000
     75 H31        1.2467   -3.1914    5.6602 H         2 RES2    0.0000
     76 H32        0.9322   -3.4339    7.1598 H         2 RES2    0.0000
@<TRIPOS>BOND
     1    1   16 1
     2    2    9 2
     3    3    9 2
     4    4   31 1
     5    5   13 2
     6    6   13 2
     7    7    8 2
     8    8   21 1
     9    9   18 1
    10   10   24 1
    11   11   12 2
    12   12   36 1
    13   13   33 1
    14   14   39 1
    15   15    7 1
    16   16   15 ar
    17   17   16 ar
    18   18   17 ar
    19   19   18 ar
    20   20   15 ar
    21   21   22 ar
    22   22   23 ar
    23   23   24 ar
    24   24   25 ar
    25   25   26 ar
    26   26   21 ar
    27   27    1 1
    28   28   10 1
    29   29   10 1
    30   30   11 1
    31   31   30 ar
    32   32   31 ar
    33   33   32 ar
    34   34   33 ar
    35   35   30 ar
    36   36   37 ar
    37   37   38 ar
    38   38   39 ar
    39   39   40 ar
    40   40   41 ar
    41   41   36 ar
    42   42    4 1
    43   43   14 1
    44   44   14 1
    45   45   17 1
    46   46   19 1
    47   47   20 1
    48   48   22 1
    49   49   23 1
    50   50   25 1
    51   51   26 1
    52   52   27 1
    53   53   27 1
    54   54   27 1
    55   55   28 1
    56   56   28 1
    57   57   28 1
    58   58   29 1
    59   59   29 1
    60   60   29 1
    61   61   32 1
    62   62   34 1
    63   63   35 1
    64   64   37 1
    65   65   38 1
    66   66   40 1
    67   67   41 1
    68   68   42 1
    69   69   42 1
    70   70   42 1
    71   71   43 1
    72   72   43 1
    73   73   43 1
    74   74   44 1
    75   75   44 1
    76   76   44 1
    77   19   20 ar
    78   34   35 ar
@<TRIPOS>SUBSTRUCTURE
     1 RES1 1
     2 RES2 4

@<TRIPOS>CRYSIN
   7.3010   13.8540   14.5750  90.8420  90.3340  91.9350   2 1

