# MOL2 file generated by ConQuest
# Please check atom types

@<TRIPOS>MOLECULE
CURSOZ
    41    42     1
SMALL
NO_CHARGES
****
Generated from CSD

@<TRIPOS>ATOM
      1 O1        13.3360    0.0443   13.6119 O.2       1 RES1    0.0000
      2 N1         7.3392    1.1771   10.2294 N.2       1 RES1    0.0000
      3 N2        12.5780    0.9201   14.0147 N.pl3     1 RES1    0.0000
      4 O2        12.8518    1.6773   14.9389 O.2       1 RES1    0.0000
      5 C1         6.0704    1.3381    9.6341 C.ar      1 RES1    0.0000
      6 N3         2.2822    1.4781    7.7710 N.3       1 RES1    0.0000
      7 C2         5.0650    2.2038   10.0858 C.ar      1 RES1    0.0000
      8 H1         5.2319    2.7613   10.8368 H         1 RES1    0.0000
      9 C3        10.3138    1.8579   13.9513 C.ar      1 RES1    0.0000
     10 H2        10.4793    2.2816   14.7848 H         1 RES1    0.0000
     11 C4         3.5259    1.4335    8.3582 C.ar      1 RES1    0.0000
     12 C5         7.5558    1.5784   11.4229 C.2       1 RES1    0.0000
     13 H3         6.8539    2.0011   11.9020 H         1 RES1    0.0000
     14 C6         9.0914    2.0012   13.3153 C.ar      1 RES1    0.0000
     15 H4         8.4030    2.5104   13.7283 H         1 RES1    0.0000
     16 C7         5.7905    0.5622    8.5114 C.ar      1 RES1    0.0000
     17 H5         6.4699   -0.0030    8.1616 H         1 RES1    0.0000
     18 C8         3.8353    2.2617    9.4593 C.ar      1 RES1    0.0000
     19 H6         3.1814    2.8739    9.7766 H         1 RES1    0.0000
     20 C9         9.8666    0.6192   11.4890 C.ar      1 RES1    0.0000
     21 H7         9.7135    0.2030   10.6490 H         1 RES1    0.0000
     22 C10       11.2860    1.0845   13.3451 C.ar      1 RES1    0.0000
     23 C11        4.5529    0.5885    7.8881 C.ar      1 RES1    0.0000
     24 H8         4.3943    0.0304    7.1360 H         1 RES1    0.0000
     25 C12       11.0794    0.4480   12.1287 C.ar      1 RES1    0.0000
     26 H9        11.7582   -0.0943   11.7438 H         1 RES1    0.0000
     27 C13        8.8594    1.4045   12.0730 C.ar      1 RES1    0.0000
     28 C14        0.8675    3.5124    8.0442 C.3       1 RES1    0.0000
     29 H10        1.6184    4.0728    8.3321 H         1 RES1    0.0000
     30 H11        0.0430    3.8265    8.4705 H         1 RES1    0.0000
     31 H12        0.7732    3.5672    7.0705 H         1 RES1    0.0000
     32 C15        1.1276    2.0734    8.4463 C.3       1 RES1    0.0000
     33 H13        1.2752    2.0360    9.4244 H         1 RES1    0.0000
     34 H14        0.3231    1.5335    8.2419 H         1 RES1    0.0000
     35 C16        1.5261   -0.6371    6.6950 C.3       1 RES1    0.0000
     36 H15        2.2424   -1.1686    7.1014 H         1 RES1    0.0000
     37 H16        1.2931   -1.0157    5.8212 H         1 RES1    0.0000
     38 H17        0.7384   -0.6500    7.2781 H         1 RES1    0.0000
     39 C17        1.9983    0.7932    6.5161 C.3       1 RES1    0.0000
     40 H18        2.8172    0.7915    5.9609 H         1 RES1    0.0000
     41 H19        1.3034    1.3001    6.0264 H         1 RES1    0.0000
@<TRIPOS>BOND
     1    1    3 2
     2    2    5 1
     3    3    4 2
     4    5    7 ar
     5    6   11 1
     6    7    8 1
     7    9   10 1
     8   11   18 ar
     9   12    2 2
    10   13   12 1
    11   14    9 ar
    12   15   14 1
    13   16    5 ar
    14   17   16 1
    15   18    7 ar
    16   19   18 1
    17   20   21 1
    18   22    3 1
    19   23   11 ar
    20   24   23 1
    21   25   20 ar
    22   26   25 1
    23   27   12 1
    24   28   29 1
    25   30   28 1
    26   31   28 1
    27   32    6 1
    28   33   32 1
    29   34   32 1
    30   35   36 1
    31   37   35 1
    32   38   35 1
    33   39    6 1
    34   40   39 1
    35   41   39 1
    36    9   22 ar
    37   14   27 ar
    38   16   23 ar
    39   20   27 ar
    40   22   25 ar
    41   28   32 1
    42   35   39 1
@<TRIPOS>SUBSTRUCTURE
     1 RES1 1

@<TRIPOS>CRYSIN
  16.1019    7.6028   12.3616  90.0000  91.6150  90.0000  14 1

