# MOL2 file generated by ConQuest
# Please check atom types

@<TRIPOS>MOLECULE
CURSEP
    39    41     1
SMALL
NO_CHARGES
****
Generated from CSD

@<TRIPOS>ATOM
      1 C1         9.2090   14.4847   13.0408 C.ar      1 RES1    0.0000
      2 C2         9.5873   13.3306   12.3841 C.ar      1 RES1    0.0000
      3 H1        10.1149   12.6716   12.8198 H         1 RES1    0.0000
      4 C3         9.1781   13.1625   11.0789 C.ar      1 RES1    0.0000
      5 H2         9.4008   12.3626   10.6186 H         1 RES1    0.0000
      6 C4         8.4427   14.1479   10.4239 C.ar      1 RES1    0.0000
      7 C5         8.0792   15.3112   11.1248 C.ar      1 RES1    0.0000
      8 H3         7.5747   15.9859   10.6865 H         1 RES1    0.0000
      9 C6         8.4477   15.4799   12.4396 C.ar      1 RES1    0.0000
     10 H4         8.1884   16.2563   12.9230 H         1 RES1    0.0000
     11 C7         8.0847   13.9480    9.0236 C.2       1 RES1    0.0000
     12 H5         8.3393   13.1383    8.5974 H         1 RES1    0.0000
     13 C8         7.1275   14.6053    6.9852 C.ar      1 RES1    0.0000
     14 C9         7.6448   13.5821    6.1803 C.ar      1 RES1    0.0000
     15 H6         8.2718   12.9688    6.5471 H         1 RES1    0.0000
     16 C10        7.2617   13.4516    4.8727 C.ar      1 RES1    0.0000
     17 H7         7.6219   12.7471    4.3477 H         1 RES1    0.0000
     18 C11        6.3460   14.3430    4.2982 C.ar      1 RES1    0.0000
     19 C12        5.8494   15.3844    5.0879 C.ar      1 RES1    0.0000
     20 H8         5.2429   16.0145    4.7166 H         1 RES1    0.0000
     21 C13        6.2404   15.4975    6.4091 C.ar      1 RES1    0.0000
     22 H9         5.8912   16.2076    6.9355 H         1 RES1    0.0000
     23 C14        4.9842   14.7230    2.2053 C.ar      1 RES1    0.0000
     24 C15        5.1654   14.8390    0.8276 C.ar      1 RES1    0.0000
     25 H10        6.0077   14.6226    0.4448 H         1 RES1    0.0000
     26 C16        4.1357   15.2648    0.0136 C.ar      1 RES1    0.0000
     27 H11        4.2651   15.3127   -0.9258 H         1 RES1    0.0000
     28 C17        2.9176   15.6208    0.5582 C.ar      1 RES1    0.0000
     29 H12        2.2107   15.9238    0.0000 H         1 RES1    0.0000
     30 C18        2.7397   15.5311    1.9272 C.ar      1 RES1    0.0000
     31 H13        1.9086   15.7878    2.3098 H         1 RES1    0.0000
     32 C19        3.7555   15.0717    2.7483 C.ar      1 RES1    0.0000
     33 H14        3.6113   14.9953    3.6840 H         1 RES1    0.0000
     34 N1         9.6084   14.6379   14.4447 N.pl3     1 RES1    0.0000
     35 N2         7.4462   14.8168    8.3539 N.2       1 RES1    0.0000
     36 N3         6.0357   14.1719    2.9570 N.pl3     1 RES1    0.0000
     37 O1        10.3565   13.7895   14.9333 O.2       1 RES1    0.0000
     38 O2         9.1705   15.5924   15.0757 O.2       1 RES1    0.0000
     39 H15        6.5621   13.6370    2.5595 H         1 RES1    0.0000
@<TRIPOS>BOND
     1    1    2 ar
     2    2    3 1
     3    4    2 ar
     4    5    4 1
     5    6    4 ar
     6    7    6 ar
     7    8    7 1
     8    9    1 ar
     9   10    9 1
    10   11    6 1
    11   12   11 1
    12   13   14 ar
    13   14   15 1
    14   16   14 ar
    15   17   16 1
    16   18   16 ar
    17   19   18 ar
    18   20   19 1
    19   21   13 ar
    20   22   21 1
    21   23   24 ar
    22   24   25 1
    23   26   24 ar
    24   27   26 1
    25   28   26 ar
    26   29   28 1
    27   30   28 ar
    28   31   30 1
    29   32   23 ar
    30   33   32 1
    31   34    1 1
    32   35   11 2
    33   36   18 1
    34   37   34 2
    35   38   34 2
    36   39   36 1
    37    7    9 ar
    38   13   35 1
    39   19   21 ar
    40   23   36 1
    41   30   32 ar
@<TRIPOS>SUBSTRUCTURE
     1 RES1 1

@<TRIPOS>CRYSIN
  10.3885   16.7902    8.9064  90.0000  97.7040  90.0000   9 1

