# MOL2 file generated by ConQuest
# Please check atom types

@<TRIPOS>MOLECULE
CUSMOU
    85    89     1
SMALL
NO_CHARGES
****
Generated from CSD

@<TRIPOS>ATOM
      1 C1         8.0497    5.5814    6.3498 C.2       1 RES1    0.0000
      2 C2         8.6385    4.4944    5.4582 C.3       1 RES1    0.0000
      3 H1         8.7092    4.8625    4.5316 H         1 RES1    0.0000
      4 C3         6.5078    3.2558    5.6563 C.2       1 RES1    0.0000
      5 C4         5.8727    4.6082    5.9058 C.3       1 RES1    0.0000
      6 H2         5.0247    4.4850    6.4212 H         1 RES1    0.0000
      7 C5         4.9928    7.0351    3.5351 C.3       1 RES1    0.0000
      8 C6         3.8396    8.0319    3.3249 C.3       1 RES1    0.0000
      9 H3         3.6676    8.5085    4.1744 H         1 RES1    0.0000
     10 H4         4.1146    8.7041    2.6521 H         1 RES1    0.0000
     11 C7         2.5523    7.3691    2.8621 C.3       1 RES1    0.0000
     12 H5         1.8351    8.0470    2.7737 H         1 RES1    0.0000
     13 H6         2.6899    6.9421    1.9783 H         1 RES1    0.0000
     14 C8         2.1557    6.3301    3.8821 C.3       1 RES1    0.0000
     15 H7         1.3259    5.8844    3.5766 H         1 RES1    0.0000
     16 H8         1.9560    6.7844    4.7393 H         1 RES1    0.0000
     17 C9         3.2296    5.2586    4.1294 C.3       1 RES1    0.0000
     18 C10        3.3394    4.2951    2.9477 C.3       1 RES1    0.0000
     19 H9         3.4629    4.8061    2.1202 H         1 RES1    0.0000
     20 H10        2.5197    3.7622    2.8826 H         1 RES1    0.0000
     21 H11        4.1059    3.7001    3.0827 H         1 RES1    0.0000
     22 C11        2.8008    4.4676    5.3614 C.3       1 RES1    0.0000
     23 H12        3.4099    3.7104    5.4916 H         1 RES1    0.0000
     24 H13        1.8884    4.1351    5.2333 H         1 RES1    0.0000
     25 H14        2.8293    5.0489    6.1502 H         1 RES1    0.0000
     26 C12        6.1249    7.7809    4.2388 C.3       1 RES1    0.0000
     27 H15        5.8271    8.0619    5.1294 H         1 RES1    0.0000
     28 H16        6.3727    8.5695    3.7134 H         1 RES1    0.0000
     29 H17        6.9007    7.1895    4.3264 H         1 RES1    0.0000
     30 C13        5.5306    6.5215    2.1906 C.3       1 RES1    0.0000
     31 H18        6.1285    5.7602    2.3456 H         1 RES1    0.0000
     32 H19        6.0255    7.2379    1.7402 H         1 RES1    0.0000
     33 H20        4.7819    6.2378    1.6262 H         1 RES1    0.0000
     34 C14        6.0982    6.5405    7.4684 C.3       1 RES1    0.0000
     35 H21        5.2144    6.7764    7.0900 H         1 RES1    0.0000
     36 H22        6.6565    7.3576    7.4623 H         1 RES1    0.0000
     37 C15        5.9139    6.0867    8.8981 C.ar      1 RES1    0.0000
     38 C16        6.9683    5.5466    9.6271 C.ar      1 RES1    0.0000
     39 H23        7.8079    5.4045    9.2051 H         1 RES1    0.0000
     40 C17        6.8069    5.2138   10.9610 C.ar      1 RES1    0.0000
     41 H24        7.5371    4.8567   11.4519 H         1 RES1    0.0000
     42 C18        5.5920    5.3998   11.5745 C.ar      1 RES1    0.0000
     43 H25        5.4811    5.1686   12.4879 H         1 RES1    0.0000
     44 C19        4.5397    5.9201   10.8652 C.ar      1 RES1    0.0000
     45 H26        3.7004    6.0467   11.2897 H         1 RES1    0.0000
     46 C20        4.6948    6.2647    9.5252 C.ar      1 RES1    0.0000
     47 H27        3.9606    6.6233    9.0404 H         1 RES1    0.0000
     48 C21        8.4117    2.0901    4.7256 C.3       1 RES1    0.0000
     49 H28        7.7507    1.3534    4.7266 H         1 RES1    0.0000
     50 H29        9.2096    1.7862    5.2257 H         1 RES1    0.0000
     51 C22        8.8043    2.4089    3.3016 C.ar      1 RES1    0.0000
     52 C23        7.9084    3.0154    2.4261 C.ar      1 RES1    0.0000
     53 H30        7.0254    3.2144    2.7154 H         1 RES1    0.0000
     54 C24        8.2994    3.3300    1.1356 C.ar      1 RES1    0.0000
     55 H31        7.6829    3.7427    0.5421 H         1 RES1    0.0000
     56 C25        9.5777    3.0487    0.7055 C.ar      1 RES1    0.0000
     57 H32        9.8467    3.2800   -0.1748 H         1 RES1    0.0000
     58 C26       10.4633    2.4307    1.5593 C.ar      1 RES1    0.0000
     59 H33       11.3399    2.2189    1.2615 H         1 RES1    0.0000
     60 C27       10.0792    2.1165    2.8514 C.ar      1 RES1    0.0000
     61 H34       10.6990    1.6952    3.4348 H         1 RES1    0.0000
     62 C28       10.0654    4.1839    5.9557 C.3       1 RES1    0.0000
     63 H35       10.5366    3.6483    5.2687 H         1 RES1    0.0000
     64 H36       10.5595    5.0351    6.0666 H         1 RES1    0.0000
     65 C29       10.0865    3.4379    7.2508 C.2       1 RES1    0.0000
     66 H37        9.7383    2.5538    7.2369 H         1 RES1    0.0000
     67 C30       10.5339    3.8709    8.4059 C.2       1 RES1    0.0000
     68 H38       10.8362    4.7704    8.4426 H         1 RES1    0.0000
     69 C31       10.6096    3.0850    9.6491 C.ar      1 RES1    0.0000
     70 C32       10.1992    1.7558    9.7107 C.ar      1 RES1    0.0000
     71 H39        9.8358    1.3465    8.9340 H         1 RES1    0.0000
     72 C33       10.3074    1.0201   10.8703 C.ar      1 RES1    0.0000
     73 H40       10.0121    0.1174   10.8921 H         1 RES1    0.0000
     74 C34       10.8493    1.6032   12.0038 C.ar      1 RES1    0.0000
     75 H41       10.9346    1.0979   12.8045 H         1 RES1    0.0000
     76 C35       11.2626    2.9106   11.9681 C.ar      1 RES1    0.0000
     77 H42       11.6393    3.3076   12.7437 H         1 RES1    0.0000
     78 C36       11.1353    3.6537   10.8087 C.ar      1 RES1    0.0000
     79 H43       11.4093    4.5632   10.8034 H         1 RES1    0.0000
     80 N1         6.7266    5.5273    6.6102 N.am      1 RES1    0.0000
     81 N2         7.8338    3.2649    5.3969 N.am      1 RES1    0.0000
     82 N3         4.4906    5.9919    4.4865 N.3       1 RES1    0.0000
     83 O1         8.7719    6.4639    6.7992 O.2       1 RES1    0.0000
     84 O2         5.8105    2.2534    5.6109 O.2       1 RES1    0.0000
     85 O3         5.5595    4.9889    4.5645 O.3       1 RES1    0.0000
@<TRIPOS>BOND
     1    1    2 1
     2    2    3 1
     3    4    5 1
     4    5    6 1
     5    7    8 1
     6    8    9 1
     7   10    8 1
     8   11    8 1
     9   12   11 1
    10   13   11 1
    11   14   11 1
    12   15   14 1
    13   16   14 1
    14   17   14 1
    15   18   17 1
    16   19   18 1
    17   20   18 1
    18   21   18 1
    19   22   17 1
    20   23   22 1
    21   24   22 1
    22   25   22 1
    23   26    7 1
    24   27   26 1
    25   28   26 1
    26   29   26 1
    27   30    7 1
    28   31   30 1
    29   32   30 1
    30   33   30 1
    31   34   35 1
    32   36   34 1
    33   37   34 1
    34   38   37 ar
    35   39   38 1
    36   40   38 ar
    37   41   40 1
    38   42   40 ar
    39   43   42 1
    40   44   42 ar
    41   45   44 1
    42   46   37 ar
    43   47   46 1
    44   48   49 1
    45   50   48 1
    46   51   48 1
    47   52   51 ar
    48   53   52 1
    49   54   52 ar
    50   55   54 1
    51   56   54 ar
    52   57   56 1
    53   58   56 ar
    54   59   58 1
    55   60   51 ar
    56   61   60 1
    57   62    2 1
    58   63   62 1
    59   64   62 1
    60   65   62 1
    61   66   65 1
    62   67   65 2
    63   68   67 1
    64   69   67 1
    65   70   69 ar
    66   71   70 1
    67   72   70 ar
    68   73   72 1
    69   74   72 ar
    70   75   74 1
    71   76   74 ar
    72   77   76 1
    73   78   69 ar
    74   79   78 1
    75   80    1 1
    76   81    2 1
    77   82    7 1
    78   83    1 2
    79   84    4 2
    80   85    5 1
    81    4   81 1
    82    5   80 1
    83   17   82 1
    84   34   80 1
    85   44   46 ar
    86   48   81 1
    87   58   60 ar
    88   76   78 ar
    89   82   85 1
@<TRIPOS>SUBSTRUCTURE
     1 RES1 1

@<TRIPOS>CRYSIN
  11.0440   11.5088   25.6679  90.0000  99.3020  90.0000  14 1

