# MOL2 file generated by ConQuest
# Please check atom types

@<TRIPOS>MOLECULE
CUTHAB
    45    45     1
SMALL
NO_CHARGES
****
Generated from CSD

@<TRIPOS>ATOM
      1 C1        -1.6901   11.0495    7.3051 C.2       1 RES1    0.0000
      2 N1        -2.7456   11.7998    7.3290 N.pl3     1 RES1    0.0000
      3 C2        -2.7027   13.2888    7.6058 C.3       1 RES1    0.0000
      4 O1        -3.9449   11.3175    7.1688 O.2       1 RES1    0.0000
      5 C3        -3.4617   13.4830    8.9149 C.3       1 RES1    0.0000
      6 H1        -3.0013   13.0019    9.6344 H         1 RES1    0.0000
      7 H2        -4.3723   13.1342    8.8192 H         1 RES1    0.0000
      8 H3        -3.4987   14.4378    9.1329 H         1 RES1    0.0000
      9 C4        -1.2796   13.8005    7.7511 C.3       1 RES1    0.0000
     10 H4        -0.7790   13.6115    6.9307 H         1 RES1    0.0000
     11 H5        -0.8468   13.3524    8.5075 H         1 RES1    0.0000
     12 H6        -1.2945   14.7678    7.9090 H         1 RES1    0.0000
     13 C5        -3.3893   13.9821    6.4388 C.3       1 RES1    0.0000
     14 H7        -4.2822   13.5992    6.3115 H         1 RES1    0.0000
     15 H8        -2.8590   13.8542    5.6242 H         1 RES1    0.0000
     16 H9        -3.4692   14.9396    6.6293 H         1 RES1    0.0000
     17 C6        -1.7948    9.5759    7.1127 C.3       1 RES1    0.0000
     18 H10       -2.6207    9.2561    7.5767 H         1 RES1    0.0000
     19 C7        -0.5819    8.9199    7.7812 C.3       1 RES1    0.0000
     20 H11        0.2528    9.3079    7.3909 H         1 RES1    0.0000
     21 C8        -0.5732    9.1431    9.2784 C.ar      1 RES1    0.0000
     22 C9        -1.5572    8.5794   10.0753 C.ar      1 RES1    0.0000
     23 H12       -2.2477    8.0698    9.6674 H         1 RES1    0.0000
     24 C10       -1.5590    8.7399   11.4550 C.ar      1 RES1    0.0000
     25 H13       -2.2395    8.3398   11.9832 H         1 RES1    0.0000
     26 C11       -0.5613    9.4874   12.0519 C.ar      1 RES1    0.0000
     27 C12        0.4276   10.0710   11.2701 C.ar      1 RES1    0.0000
     28 H14        1.1081   10.5938   11.6777 H         1 RES1    0.0000
     29 C13        0.4237    9.8928    9.8978 C.ar      1 RES1    0.0000
     30 H15        1.1096   10.2870    9.3723 H         1 RES1    0.0000
     31 O2        -0.6415    7.5272    7.4582 O.3       1 RES1    0.0000
     32 C14        0.5428    6.8387    7.8318 C.3       1 RES1    0.0000
     33 H16        0.6150    6.8194    8.8088 H         1 RES1    0.0000
     34 H17        1.3212    7.2994    7.4549 H         1 RES1    0.0000
     35 H18        0.5084    5.9208    7.4900 H         1 RES1    0.0000
     36 C15       -1.9066    9.2134    5.6271 C.3       1 RES1    0.0000
     37 H19       -1.0567    9.4061    5.1784 H         1 RES1    0.0000
     38 H20       -2.6212    9.7429    5.2155 H         1 RES1    0.0000
     39 H21       -2.1129    8.2593    5.5375 H         1 RES1    0.0000
     40 O3        -0.4537    9.6862   13.4066 O.3       1 RES1    0.0000
     41 C16       -1.3748    8.9861   14.2413 C.3       1 RES1    0.0000
     42 H22       -1.3234    8.0261   14.0512 H         1 RES1    0.0000
     43 H23       -2.2840    9.3052   14.0636 H         1 RES1    0.0000
     44 H24       -1.1497    9.1457   15.1822 H         1 RES1    0.0000
     45 H25       -0.8547   11.4692    7.4116 H         1 RES1    0.0000
@<TRIPOS>BOND
     1    1    2 2
     2    2    3 1
     3    3    5 1
     4    4    2 1
     5    5    6 1
     6    7    5 1
     7    8    5 1
     8    9    3 1
     9   10    9 1
    10   11    9 1
    11   12    9 1
    12   13    3 1
    13   14   13 1
    14   15   13 1
    15   16   13 1
    16   17    1 1
    17   18   17 1
    18   19   17 1
    19   20   19 1
    20   21   19 1
    21   22   21 ar
    22   23   22 1
    23   24   22 ar
    24   25   24 1
    25   26   24 ar
    26   27   26 ar
    27   28   27 1
    28   29   21 ar
    29   30   29 1
    30   31   19 1
    31   32   31 1
    32   33   32 1
    33   34   32 1
    34   35   32 1
    35   36   17 1
    36   37   36 1
    37   38   36 1
    38   39   36 1
    39   40   26 1
    40   41   40 1
    41   42   41 1
    42   43   41 1
    43   44   41 1
    44   45    1 1
    45   27   29 ar
@<TRIPOS>SUBSTRUCTURE
     1 RES1 1

@<TRIPOS>CRYSIN
   5.8110   13.6360   21.0230  90.0000 100.9640  90.0000  14 1

