# MOL2 file generated by ConQuest
# Please check atom types

@<TRIPOS>MOLECULE
CUTHIJ
    44    44     1
SMALL
NO_CHARGES
****
Generated from CSD

@<TRIPOS>ATOM
      1 C1         2.0729    7.5885    5.2119 C.2       1 RES1    0.0000
      2 N1         1.1391    6.8295    5.6979 N.pl3     1 RES1    0.0000
      3 C2         1.4391    5.5467    6.4479 C.3       1 RES1    0.0000
      4 O1        -0.1245    7.0381    5.4809 O.2       1 RES1    0.0000
      5 C3         0.9965    4.4356    5.4981 C.3       1 RES1    0.0000
      6 H1         0.0448    4.5430    5.2909 H         1 RES1    0.0000
      7 H2         1.1421    3.5644    5.9242 H         1 RES1    0.0000
      8 H3         1.5185    4.4864    4.6702 H         1 RES1    0.0000
      9 C4         2.9150    5.4065    6.7806 C.3       1 RES1    0.0000
     10 H4         3.4368    5.3917    5.9511 H         1 RES1    0.0000
     11 H5         3.0608    4.5719    7.2730 H         1 RES1    0.0000
     12 H6         3.1992    6.1658    7.3314 H         1 RES1    0.0000
     13 C5         0.6135    5.5590    7.7280 C.3       1 RES1    0.0000
     14 H7         0.9009    6.3044    8.2949 H         1 RES1    0.0000
     15 H8         0.7428    4.7147    8.2080 H         1 RES1    0.0000
     16 H9        -0.3348    5.6658    7.5036 H         1 RES1    0.0000
     17 C6         1.7300    8.7074    4.2844 C.3       1 RES1    0.0000
     18 H10        0.8188    8.5114    3.9216 H         1 RES1    0.0000
     19 C7         2.7018    8.7176    3.0731 C.3       1 RES1    0.0000
     20 C8         2.7770    7.2797    2.5434 C.ar      1 RES1    0.0000
     21 C9         1.6789    6.7377    1.8700 C.ar      1 RES1    0.0000
     22 H11        0.9396    7.2942    1.6536 H         1 RES1    0.0000
     23 C10        1.6559    5.3965    1.5129 C.ar      1 RES1    0.0000
     24 H12        0.9014    5.0437    1.0550 H         1 RES1    0.0000
     25 C11        2.7241    4.5669    1.8179 C.ar      1 RES1    0.0000
     26 H13        2.6993    3.6459    1.5857 H         1 RES1    0.0000
     27 C12        3.8255    5.0948    2.4643 C.ar      1 RES1    0.0000
     28 H14        4.5680    4.5365    2.6644 H         1 RES1    0.0000
     29 C13        3.8549    6.4406    2.8247 C.ar      1 RES1    0.0000
     30 H15        4.6188    6.7906    3.2677 H         1 RES1    0.0000
     31 O2         2.0219    9.5688    2.1326 O.3       1 RES1    0.0000
     32 C14        2.7163    9.8003    0.9168 C.3       1 RES1    0.0000
     33 H16        3.5441   10.2915    1.1024 H         1 RES1    0.0000
     34 H17        2.1522   10.3270    0.3127 H         1 RES1    0.0000
     35 H18        2.9332    8.9423    0.4959 H         1 RES1    0.0000
     36 C15        1.6298   10.0402    5.0331 C.3       1 RES1    0.0000
     37 H19        0.8994    9.9946    5.6842 H         1 RES1    0.0000
     38 H20        1.4531   10.7614    4.3938 H         1 RES1    0.0000
     39 H21        2.4732   10.2168    5.4994 H         1 RES1    0.0000
     40 C16        4.0643    9.2968    3.4315 C.3       1 RES1    0.0000
     41 H22        4.6853    9.1559    2.6865 H         1 RES1    0.0000
     42 H23        4.4089    8.8502    4.2327 H         1 RES1    0.0000
     43 H24        3.9754   10.2575    3.6057 H         1 RES1    0.0000
     44 H25        2.9812    7.3668    5.4457 H         1 RES1    0.0000
@<TRIPOS>BOND
     1    1    2 2
     2    2    3 1
     3    3    5 1
     4    4    2 1
     5    5    6 1
     6    7    5 1
     7    8    5 1
     8    9    3 1
     9   10    9 1
    10   11    9 1
    11   12    9 1
    12   13    3 1
    13   14   13 1
    14   15   13 1
    15   16   13 1
    16   17    1 1
    17   18   17 1
    18   19   17 1
    19   20   19 1
    20   21   20 ar
    21   22   21 1
    22   23   21 ar
    23   24   23 1
    24   25   23 ar
    25   26   25 1
    26   27   25 ar
    27   28   27 1
    28   29   20 ar
    29   30   29 1
    30   31   19 1
    31   32   31 1
    32   33   32 1
    33   34   32 1
    34   35   32 1
    35   36   17 1
    36   37   36 1
    37   38   36 1
    38   39   36 1
    39   40   19 1
    40   41   40 1
    41   42   40 1
    42   43   40 1
    43   44    1 1
    44   27   29 ar
@<TRIPOS>SUBSTRUCTURE
     1 RES1 1

@<TRIPOS>CRYSIN
   5.9484    8.4271   15.9289  93.4557  95.3665 106.3773   2 1

