# MOL2 file generated by ConQuest
# Please check atom types

@<TRIPOS>MOLECULE
CUTKOT
    39    41     1
SMALL
NO_CHARGES
****
Generated from CSD

@<TRIPOS>ATOM
      1 O1         2.5282    2.4591    6.3382 O.2       1 RES1    0.0000
      2 O2         4.0229    5.6375    0.8586 O.2       1 RES1    0.0000
      3 O3         4.0971    3.7751    1.9352 O.2       1 RES1    0.0000
      4 N1         4.4716    3.5527    5.9849 N.am      1 RES1    0.0000
      5 H1         5.2131    3.8282    6.3303 H         1 RES1    0.0000
      6 N2         4.1296    2.5043    7.9866 N.am      1 RES1    0.0000
      7 H2         4.9212    2.8323    8.1229 H         1 RES1    0.0000
      8 N3         3.8344    4.9598    1.8620 N.pl3     1 RES1    0.0000
      9 C1         3.2647    5.6362    3.0415 C.ar      1 RES1    0.0000
     10 C2         2.5957    6.8235    2.8122 C.ar      1 RES1    0.0000
     11 H3         2.5348    7.1739    1.9313 H         1 RES1    0.0000
     12 C3         2.0252    7.4869    3.8542 C.ar      1 RES1    0.0000
     13 H4         1.5531    8.2965    3.7029 H         1 RES1    0.0000
     14 C4         2.1378    6.9748    5.1356 C.ar      1 RES1    0.0000
     15 H5         1.7333    7.4287    5.8653 H         1 RES1    0.0000
     16 C5         2.8418    5.7953    5.3541 C.ar      1 RES1    0.0000
     17 H6         2.9277    5.4694    6.2420 H         1 RES1    0.0000
     18 C6         3.4223    5.0814    4.3156 C.ar      1 RES1    0.0000
     19 C7         4.1930    3.8101    4.5864 C.3       1 RES1    0.0000
     20 H7         3.6792    3.0457    4.2225 H         1 RES1    0.0000
     21 H8         5.0521    3.8527    4.0965 H         1 RES1    0.0000
     22 C8         3.6467    2.8090    6.7361 C.2       1 RES1    0.0000
     23 C9         3.5349    1.6192    8.9189 C.ar      1 RES1    0.0000
     24 C10        2.7317    0.5936    8.5187 C.ar      1 RES1    0.0000
     25 H9         2.5690    0.4604    7.5921 H         1 RES1    0.0000
     26 C11        2.1403   -0.2716    9.4548 C.ar      1 RES1    0.0000
     27 H10        1.5498   -0.9545    9.1579 H         1 RES1    0.0000
     28 C12        2.4064   -0.1384   10.7881 C.ar      1 RES1    0.0000
     29 H11        2.0177   -0.7385   11.4141 H         1 RES1    0.0000
     30 C13        3.2588    0.8911   11.2336 C.ar      1 RES1    0.0000
     31 C14        3.5549    1.0476   12.6142 C.ar      1 RES1    0.0000
     32 H12        3.2079    0.4203   13.2375 H         1 RES1    0.0000
     33 C15        4.3223    2.0732   13.0611 C.ar      1 RES1    0.0000
     34 H13        4.5025    2.1637   13.9896 H         1 RES1    0.0000
     35 C16        4.8495    3.0005   12.1535 C.ar      1 RES1    0.0000
     36 H14        5.3708    3.7273   12.4729 H         1 RES1    0.0000
     37 C17        4.6201    2.8711   10.8060 C.ar      1 RES1    0.0000
     38 H15        5.0038    3.4958   10.2012 H         1 RES1    0.0000
     39 C18        3.8202    1.8171   10.3094 C.ar      1 RES1    0.0000
@<TRIPOS>BOND
     1    1   22 2
     2    2    8 2
     3    3    8 2
     4    4    5 1
     5    6    7 1
     6    8    9 1
     7    9   10 ar
     8   10   11 1
     9   12   10 ar
    10   13   12 1
    11   14   12 ar
    12   15   14 1
    13   16   14 ar
    14   17   16 1
    15   18    9 ar
    16   19    4 1
    17   20   19 1
    18   21   19 1
    19   22    4 1
    20   23    6 1
    21   24   23 ar
    22   25   24 1
    23   26   24 ar
    24   27   26 1
    25   28   26 ar
    26   29   28 1
    27   30   28 ar
    28   31   30 ar
    29   32   31 1
    30   33   31 ar
    31   34   33 1
    32   35   33 ar
    33   36   35 1
    34   37   35 ar
    35   38   37 1
    36   39   23 ar
    37    6   22 1
    38   16   18 ar
    39   18   19 1
    40   30   39 ar
    41   37   39 ar
@<TRIPOS>SUBSTRUCTURE
     1 RES1 1

@<TRIPOS>CRYSIN
   8.3410   12.9330   14.0050  90.0000  90.0000  90.0000  19 1

