# MOL2 file generated by ConQuest
# Please check atom types

@<TRIPOS>MOLECULE
CUTXAQ
    38    38     1
SMALL
NO_CHARGES
****
Generated from CSD

@<TRIPOS>ATOM
      1 C1         3.5187    1.9240    7.9924 C.3       1 RES1    0.0000
      2 C2         3.6850    1.9408    9.5081 C.3       1 RES1    0.0000
      3 C3         3.6287    3.3206   10.1171 C.2       1 RES1    0.0000
      4 C4         4.4479    4.3429    7.9599 C.3       1 RES1    0.0000
      5 C5         4.4804    2.9345    7.3680 C.2       1 RES1    0.0000
      6 C6         4.0167    4.3636    9.3900 C.2       1 RES1    0.0000
      7 C7         3.1029    3.4346   11.5524 C.3       1 RES1    0.0000
      8 C8         2.0597    2.2543    7.6366 C.3       1 RES1    0.0000
      9 C9         3.2137    4.8507   12.0981 C.3       1 RES1    0.0000
     10 C10        3.5930    5.2666    7.0823 C.3       1 RES1    0.0000
     11 C11        3.8855    2.5316   12.4881 C.3       1 RES1    0.0000
     12 C12        1.6354    3.0200   11.5729 C.3       1 RES1    0.0000
     13 N1         5.0480    1.3176    9.7921 N.pl3     1 RES1    0.0000
     14 N2         5.8893    4.8753    7.8846 N.pl3     1 RES1    0.0000
     15 O1         3.7943    0.6271    7.4912 O.3       1 RES1    0.0000
     16 O2         5.1800    2.6378    6.4340 O.2       1 RES1    0.0000
     17 O3         6.0145    1.8890    9.3199 O.2       1 RES1    0.0000
     18 O4         5.1077    0.2928   10.4456 O.2       1 RES1    0.0000
     19 O5         6.5548    4.8728    8.8991 O.2       1 RES1    0.0000
     20 O6         6.2970    5.2575    6.8120 O.2       1 RES1    0.0000
     21 H1         4.5275    0.6284    7.1405 H         1 RES1    0.0000
     22 H2         1.7737    3.0745    8.0437 H         1 RES1    0.0000
     23 H3         1.4929    1.5366    7.9291 H         1 RES1    0.0000
     24 H4         2.0054    2.3347    6.6820 H         1 RES1    0.0000
     25 H5         2.8852    4.8728   12.9996 H         1 RES1    0.0000
     26 H6         2.6825    5.4325   11.5507 H         1 RES1    0.0000
     27 H7         4.1279    5.1422   12.0827 H         1 RES1    0.0000
     28 H8         2.6713    5.0010    7.1199 H         1 RES1    0.0000
     29 H9         3.9147    5.1785    6.1825 H         1 RES1    0.0000
     30 H10        3.6743    6.1813    7.3629 H         1 RES1    0.0000
     31 H11        3.8455    1.6065   12.2367 H         1 RES1    0.0000
     32 H12        3.5626    2.6327   13.3863 H         1 RES1    0.0000
     33 H13        4.7937    2.8374   12.4385 H         1 RES1    0.0000
     34 H14        1.4379    2.1494   11.2222 H         1 RES1    0.0000
     35 H15        1.1861    3.6860   11.0477 H         1 RES1    0.0000
     36 H16        1.3347    3.0745   12.4830 H         1 RES1    0.0000
     37 H17        3.0882    1.3228    9.9529 H         1 RES1    0.0000
     38 H18        3.9948    5.1798    9.6963 H         1 RES1    0.0000
@<TRIPOS>BOND
     1    1    2 1
     2    2    3 1
     3    3    6 2
     4    4    5 1
     5    5    1 1
     6    6    4 1
     7    7    3 1
     8    8    1 1
     9    9    7 1
    10   10    4 1
    11   11    7 1
    12   12    7 1
    13   13    2 1
    14   14    4 1
    15   15    1 1
    16   16    5 2
    17   17   13 2
    18   18   13 2
    19   19   14 2
    20   20   14 2
    21   21   15 1
    22   22    8 1
    23   23    8 1
    24   24    8 1
    25   25    9 1
    26   26    9 1
    27   27    9 1
    28   28   10 1
    29   29   10 1
    30   30   10 1
    31   31   11 1
    32   32   11 1
    33   33   11 1
    34   34   12 1
    35   35   12 1
    36   36   12 1
    37   37    2 1
    38   38    6 1
@<TRIPOS>SUBSTRUCTURE
     1 RES1 1

@<TRIPOS>CRYSIN
   6.6770   12.9560   17.1850  90.0000  95.4600  90.0000 231 1

