# MOL2 file generated by ConQuest
# Please check atom types

@<TRIPOS>MOLECULE
CUTXUL
    35    36     1
SMALL
NO_CHARGES
****
Generated from CSD

@<TRIPOS>ATOM
      1 O1         9.8237    2.4512    5.1660 O.2       1 RES1    0.0000
      2 O2         7.1543    1.7809    1.5504 O.2       1 RES1    0.0000
      3 O3         4.5968    1.7056    5.6841 O.2       1 RES1    0.0000
      4 O4         5.7619    4.6938    3.0127 O.2       1 RES1    0.0000
      5 O5         7.8162    5.1810    3.3060 O.2       1 RES1    0.0000
      6 N1         8.2013    2.1286    3.5708 N.am      1 RES1    0.0000
      7 N2         6.7983    4.6221    3.6278 N.pl3     1 RES1    0.0000
      8 C1         9.5144    2.2324    4.0288 C.2       1 RES1    0.0000
      9 C2         8.1652    1.9053    2.1900 C.2       1 RES1    0.0000
     10 C3         9.5726    1.8464    1.7519 C.ar      1 RES1    0.0000
     11 C4        10.3790    2.0241    2.8480 C.ar      1 RES1    0.0000
     12 C5        11.7511    2.0098    2.7543 C.ar      1 RES1    0.0000
     13 H1        12.2914    2.1256    3.5010 H         1 RES1    0.0000
     14 C6        12.2869    1.8177    1.4947 C.ar      1 RES1    0.0000
     15 H2        13.2114    1.8127    1.3901 H         1 RES1    0.0000
     16 C7        11.4894    1.6333    0.4005 C.ar      1 RES1    0.0000
     17 H3        11.8851    1.4934   -0.4302 H         1 RES1    0.0000
     18 C8        10.1093    1.6486    0.4935 C.ar      1 RES1    0.0000
     19 H4         9.5690    1.5303   -0.2545 H         1 RES1    0.0000
     20 C9         7.0001    2.3046    4.3727 C.3       1 RES1    0.0000
     21 H5         6.2307    2.0849    3.8059 H         1 RES1    0.0000
     22 C10        6.9595    1.3725    5.5888 C.3       1 RES1    0.0000
     23 H6         7.5923    1.7045    6.2593 H         1 RES1    0.0000
     24 C11        5.5918    1.3267    6.1998 C.2       1 RES1    0.0000
     25 H7         5.5195    0.9718    7.0551 H         1 RES1    0.0000
     26 C12        7.3350   -0.0967    5.2322 C.3       1 RES1    0.0000
     27 H8         8.2594   -0.1208    4.9402 H         1 RES1    0.0000
     28 H9         7.2645   -0.6398    6.0332 H         1 RES1    0.0000
     29 C13        6.4678   -0.7034    4.1560 C.3       1 RES1    0.0000
     30 H10        6.6344   -0.2570    3.3215 H         1 RES1    0.0000
     31 H11        5.5433   -0.6017    4.3938 H         1 RES1    0.0000
     32 H12        6.6749   -1.6358    4.0669 H         1 RES1    0.0000
     33 C14        6.8441    3.7572    4.8194 C.3       1 RES1    0.0000
     34 H13        6.0271    3.8594    5.3330 H         1 RES1    0.0000
     35 H14        7.5914    4.0107    5.3833 H         1 RES1    0.0000
@<TRIPOS>BOND
     1    1    8 2
     2    2    9 2
     3    3   24 2
     4    4    7 2
     5    5    7 2
     6    6    8 1
     7    7   33 1
     8    8   11 1
     9    9    6 1
    10   10    9 1
    11   11   10 ar
    12   12   11 ar
    13   13   12 1
    14   14   12 ar
    15   15   14 1
    16   16   14 ar
    17   17   16 1
    18   18   10 ar
    19   19   18 1
    20   20    6 1
    21   21   20 1
    22   22   20 1
    23   23   22 1
    24   24   22 1
    25   25   24 1
    26   26   22 1
    27   27   26 1
    28   28   26 1
    29   29   26 1
    30   30   29 1
    31   31   29 1
    32   32   29 1
    33   33   20 1
    34   34   33 1
    35   35   33 1
    36   16   18 ar
@<TRIPOS>SUBSTRUCTURE
     1 RES1 1

@<TRIPOS>CRYSIN
   8.8129   12.7204   12.9190  90.0000  90.0000  90.0000  19 1

