# MOL2 file generated by ConQuest
# Please check atom types

@<TRIPOS>MOLECULE
CUVPIU
    38    39     1
SMALL
NO_CHARGES
****
Generated from CSD

@<TRIPOS>ATOM
      1 O1         2.4535   -0.1503    2.9195 O.2       1 RES1    0.0000
      2 O2         2.3203    2.0985    2.7737 O.3       1 RES1    0.0000
      3 O3         2.5766   -1.2508    5.2474 O.3       1 RES1    0.0000
      4 H1         2.5416   -1.1306    4.3273 H         1 RES1    0.0000
      5 O4         3.3592   -0.3581    9.8008 O.2       1 RES1    0.0000
      6 O5         1.8502    0.4852   11.1156 O.2       1 RES1    0.0000
      7 O6         1.6522    6.2232    8.7379 O.2       1 RES1    0.0000
      8 O7         1.8152    5.3157   10.7002 O.2       1 RES1    0.0000
      9 N1         2.5133    0.4866   10.0795 N.pl3     1 RES1    0.0000
     10 N2         1.8027    5.2515    9.4770 N.pl3     1 RES1    0.0000
     11 C1         2.3662    0.9573    3.4350 C.2       1 RES1    0.0000
     12 C2         2.3251    1.1423    4.9145 C.ar      1 RES1    0.0000
     13 C3         2.4569   -0.0041    5.7526 C.ar      1 RES1    0.0000
     14 C4         2.4788    0.1183    7.1215 C.ar      1 RES1    0.0000
     15 H2         2.5895   -0.6562    7.6609 H         1 RES1    0.0000
     16 C5         2.3377    1.3767    7.7301 C.ar      1 RES1    0.0000
     17 C6         2.3099    1.6029    9.1438 C.ar      1 RES1    0.0000
     18 C7         2.1158    2.8275    9.7047 C.ar      1 RES1    0.0000
     19 H3         2.0724    2.9297   10.6477 H         1 RES1    0.0000
     20 C8         1.9822    3.9317    8.8548 C.ar      1 RES1    0.0000
     21 C9         2.0073    3.8137    7.4934 C.ar      1 RES1    0.0000
     22 H4         1.9184    4.5839    6.9442 H         1 RES1    0.0000
     23 C10        2.1666    2.5363    6.9079 C.ar      1 RES1    0.0000
     24 C11        2.1783    2.3785    5.4998 C.ar      1 RES1    0.0000
     25 H5         2.0833    3.1453    4.9471 H         1 RES1    0.0000
     26 C12        2.3671    2.1473    1.2732 C.3       1 RES1    0.0000
     27 C13        1.1890    1.3861    0.6857 C.3       1 RES1    0.0000
     28 H6         1.1797    1.4998   -0.2880 H         1 RES1    0.0000
     29 H7         0.3547    1.7331    1.0634 H         1 RES1    0.0000
     30 H8         1.2746    0.4342    0.9023 H         1 RES1    0.0000
     31 C14        3.7040    1.6074    0.7968 C.3       1 RES1    0.0000
     32 H9         3.7453    1.6529   -0.1816 H         1 RES1    0.0000
     33 H10        3.8009    0.6748    1.0839 H         1 RES1    0.0000
     34 H11        4.4284    2.1439    1.1794 H         1 RES1    0.0000
     35 C15        2.2538    3.6377    1.0181 C.3       1 RES1    0.0000
     36 H12        2.2752    3.8068    0.0532 H         1 RES1    0.0000
     37 H13        3.0030    4.1003    1.4470 H         1 RES1    0.0000
     38 H14        1.4098    3.9693    1.3883 H         1 RES1    0.0000
@<TRIPOS>BOND
     1    1   11 2
     2    2   11 1
     3    3    4 1
     4    5    9 2
     5    6    9 2
     6    7   10 2
     7    8   10 2
     8    9   17 1
     9   10   20 1
    10   11   12 1
    11   12   13 ar
    12   13    3 1
    13   14   13 ar
    14   15   14 1
    15   16   14 ar
    16   17   16 ar
    17   18   17 ar
    18   19   18 1
    19   20   18 ar
    20   21   20 ar
    21   22   21 1
    22   23   16 ar
    23   24   12 ar
    24   25   24 1
    25   26    2 1
    26   27   26 1
    27   28   27 1
    28   29   27 1
    29   30   27 1
    30   31   26 1
    31   32   31 1
    32   33   31 1
    33   34   31 1
    34   35   26 1
    35   36   35 1
    36   37   35 1
    37   38   35 1
    38   21   23 ar
    39   23   24 ar
@<TRIPOS>SUBSTRUCTURE
     1 RES1 1

@<TRIPOS>CRYSIN
   6.8857    7.8782   14.2300  73.6690  85.9040  80.6210   2 1

