# MOL2 file generated by ConQuest
# Please check atom types

@<TRIPOS>MOLECULE
CUVPOA
    32    33     1
SMALL
NO_CHARGES
****
Generated from CSD

@<TRIPOS>ATOM
      1 O1         2.1558    1.4778    2.1120 O.3       1 RES1    0.0000
      2 O2         4.0346    0.2415    2.1596 O.2       1 RES1    0.0000
      3 O3         5.4149    0.2236    4.4041 O.3       1 RES1    0.0000
      4 O4         4.1700    2.0456   10.4821 O.2       1 RES1    0.0000
      5 O5         5.1040    0.7848    9.0077 O.2       1 RES1    0.0000
      6 O6         0.0541    4.0786    9.8715 O.2       1 RES1    0.0000
      7 O7        -1.0491    3.9270    8.0096 O.2       1 RES1    0.0000
      8 N1         4.2273    1.5666    9.3577 N.pl3     1 RES1    0.0000
      9 N2        -0.0592    3.7035    8.7135 N.pl3     1 RES1    0.0000
     10 C1         3.1861    0.9231    2.7240 C.2       1 RES1    0.0000
     11 C2         3.2063    1.1925    4.1796 C.ar      1 RES1    0.0000
     12 C3         4.3385    0.8115    4.9659 C.ar      1 RES1    0.0000
     13 C4         4.3670    1.0306    6.3246 C.ar      1 RES1    0.0000
     14 H1         5.1317    0.7699    6.8237 H         1 RES1    0.0000
     15 C5         3.2775    1.6359    6.9879 C.ar      1 RES1    0.0000
     16 C6         3.1797    1.9407    8.3865 C.ar      1 RES1    0.0000
     17 C7         2.1166    2.5975    8.9378 C.ar      1 RES1    0.0000
     18 H2         2.1040    2.8069    9.8640 H         1 RES1    0.0000
     19 C8         1.0471    2.9562    8.1124 C.ar      1 RES1    0.0000
     20 C9         1.0284    2.6676    6.7814 C.ar      1 RES1    0.0000
     21 H3         0.2758    2.9008    6.2505 H         1 RES1    0.0000
     22 C10        2.1364    2.0203    6.1975 C.ar      1 RES1    0.0000
     23 C11        2.1326    1.7755    4.8099 C.ar      1 RES1    0.0000
     24 H4         1.3705    2.0191    4.2975 H         1 RES1    0.0000
     25 C12        2.0167    1.2011    0.6788 C.3       1 RES1    0.0000
     26 H5         1.9711    0.2250    0.5202 H         1 RES1    0.0000
     27 H6         2.7920    1.5651    0.1818 H         1 RES1    0.0000
     28 C13        0.7510    1.8624    0.2256 C.3       1 RES1    0.0000
     29 H7         0.6024    1.6676   -0.7237 H         1 RES1    0.0000
     30 H8         0.8247    2.8314    0.3528 H         1 RES1    0.0000
     31 H9        -0.0024    1.5209    0.7514 H         1 RES1    0.0000
     32 H10        5.1865    0.1235    3.5280 H         1 RES1    0.0000
@<TRIPOS>BOND
     1    1   10 1
     2    2   10 2
     3    3   12 1
     4    4    8 2
     5    5    8 2
     6    6    9 2
     7    7    9 2
     8    8   16 1
     9    9   19 1
    10   10   11 1
    11   11   12 ar
    12   12   13 ar
    13   13   14 1
    14   15   13 ar
    15   16   15 ar
    16   17   16 ar
    17   18   17 1
    18   19   17 ar
    19   20   19 ar
    20   21   20 1
    21   22   15 ar
    22   23   11 ar
    23   24   23 1
    24   25    1 1
    25   26   25 1
    26   27   25 1
    27   28   25 1
    28   29   28 1
    29   30   28 1
    30   31   28 1
    31   32    3 1
    32   20   22 ar
    33   22   23 ar
@<TRIPOS>SUBSTRUCTURE
     1 RES1 1

@<TRIPOS>CRYSIN
   6.4851    8.2205   12.0587  92.4630  91.4580  99.3030   2 1

