# MOL2 file generated by ConQuest
# Please check atom types

@<TRIPOS>MOLECULE
CUVXOG
    31    30     1
SMALL
NO_CHARGES
****
Generated from CSD

@<TRIPOS>ATOM
      1 C1         2.7375    9.3688    4.0994 C.3       1 RES1    0.0000
      2 C2         3.6942    8.1988    3.9894 C.3       1 RES1    0.0000
      3 C3         3.1023    6.8938    3.4341 C.3       1 RES1    0.0000
      4 C4         3.8235    5.7090    4.1314 C.3       1 RES1    0.0000
      5 C5         3.1413    4.3576    4.1917 C.3       1 RES1    0.0000
      6 N1         4.0750    3.3457    4.8923 N.pl3     1 RES1    0.0000
      7 N2         2.7885    3.7357    2.8536 N.pl3     1 RES1    0.0000
      8 N3         1.8727    4.3408    5.0374 N.pl3     1 RES1    0.0000
      9 N4         3.3184    6.7694    1.9350 N.pl3     1 RES1    0.0000
     10 N5         2.3775   10.0097    2.7631 N.pl3     1 RES1    0.0000
     11 N6         3.3706   10.4693    4.9482 N.pl3     1 RES1    0.0000
     12 N7         1.4134    9.0189    4.7597 N.pl3     1 RES1    0.0000
     13 O1         4.7279    3.7948    5.8045 O.2       1 RES1    0.0000
     14 O2         4.0655    2.2115    4.4895 O.2       1 RES1    0.0000
     15 O3         1.6412    3.4047    2.6670 O.2       1 RES1    0.0000
     16 O4         3.7246    3.6472    2.0915 O.2       1 RES1    0.0000
     17 O5         1.1263    5.2853    4.8866 O.2       1 RES1    0.0000
     18 O6         1.6857    3.4153    5.7794 O.2       1 RES1    0.0000
     19 O7         4.2482    7.3386    1.4079 O.2       1 RES1    0.0000
     20 O8         2.5330    6.0548    1.3464 O.2       1 RES1    0.0000
     21 O9         2.0269    9.2234    1.9200 O.2       1 RES1    0.0000
     22 O10        2.4619   11.2114    2.6569 O.2       1 RES1    0.0000
     23 O11        2.6942   10.9774    5.7957 O.2       1 RES1    0.0000
     24 O12        4.5284   10.7223    4.6856 O.2       1 RES1    0.0000
     25 O13        0.4336    9.6324    4.4010 O.2       1 RES1    0.0000
     26 O14        1.4701    8.1503    5.5990 O.2       1 RES1    0.0000
     27 H1         3.9296    6.0716    5.1203 H         1 RES1    0.0000
     28 H2         4.6274    5.5656    3.7758 H         1 RES1    0.0000
     29 H3         4.0284    8.0744    4.9947 H         1 RES1    0.0000
     30 H4         4.4880    8.4328    3.3675 H         1 RES1    0.0000
     31 H5         2.0735    6.8095    3.5936 H         1 RES1    0.0000
@<TRIPOS>BOND
     1    1    2 1
     2    2    3 1
     3    3    4 1
     4    4    5 1
     5    5    6 1
     6    6   13 2
     7    7    5 1
     8    8    5 1
     9    9    3 1
    10   10    1 1
    11   11    1 1
    12   12    1 1
    13   14    6 2
    14   15    7 2
    15   16    7 2
    16   17    8 2
    17   18    8 2
    18   19    9 2
    19   20    9 2
    20   21   10 2
    21   22   10 2
    22   23   11 2
    23   24   11 2
    24   25   12 2
    25   26   12 2
    26   27    4 1
    27   28    4 1
    28   29    2 1
    29   30    2 1
    30   31    3 1
@<TRIPOS>SUBSTRUCTURE
     1 RES1 1

@<TRIPOS>CRYSIN
  10.1760   21.0820    6.2929  90.0000  93.2800  90.0000 231 1

