# MOL2 file generated by ConQuest
# Please check atom types

@<TRIPOS>MOLECULE
CUVZUO
   168   180     2
SMALL
NO_CHARGES
****
Generated from CSD

@<TRIPOS>ATOM
      1 C1         6.4725    4.2355   19.9836 C.3       1 RES1    0.0000
      2 C2         3.2143    3.0414   32.2052 C.3       2 RES2    0.0000
      3 C3         5.7168    3.7697   21.2682 C.3       1 RES1    0.0000
      4 C4         2.5199    2.8976   30.8241 C.3       2 RES2    0.0000
      5 C5         6.0992    2.2662   21.0985 C.3       1 RES1    0.0000
      6 C6         2.9935    1.4113   30.5965 C.3       2 RES2    0.0000
      7 O1         7.4582    2.2693   20.7166 O.3       1 RES1    0.0000
      8 O2         4.3200    1.3675   31.0633 O.3       2 RES2    0.0000
      9 N1         7.7181    3.5447   20.0067 N.3       1 RES1    0.0000
     10 N2         4.5066    2.4756   32.0123 N.3       2 RES2    0.0000
     11 O3         5.2763    1.8505   19.9990 O.3       1 RES1    0.0000
     12 O4         2.1240    0.6720   31.4838 O.3       2 RES2    0.0000
     13 C7         8.4704    3.2336   18.7606 C.3       1 RES1    0.0000
     14 C8         5.3176    1.9849   33.1581 C.3       2 RES2    0.0000
     15 C9         7.8197    2.2193   17.8386 C.3       1 RES1    0.0000
     16 C10        4.7522    0.7846   33.8949 C.3       2 RES2    0.0000
     17 C11        8.6522    4.5512   18.0315 C.3       1 RES1    0.0000
     18 C12        5.4697    3.2008   34.0647 C.3       2 RES2    0.0000
     19 C13        9.8254    2.7116   19.2120 C.3       1 RES1    0.0000
     20 C14        6.6778    1.6301   32.5717 C.3       2 RES2    0.0000
     21 C15        6.1581    4.3933   22.5722 C.ar      1 RES1    0.0000
     22 C16        2.9361    3.8963   29.7593 C.ar      2 RES2    0.0000
     23 C17        5.4317    4.1979   23.7295 C.ar      1 RES1    0.0000
     24 C18        2.1906    4.0760   28.6213 C.ar      2 RES2    0.0000
     25 C19        5.8840    4.6778   24.9640 C.ar      1 RES1    0.0000
     26 C20        2.5682    4.9810   27.6568 C.ar      2 RES2    0.0000
     27 C21        7.0681    5.3592   25.0258 C.ar      1 RES1    0.0000
     28 C22        3.6958    5.7390   27.8034 C.ar      2 RES2    0.0000
     29 C23        7.8134    5.5670   23.8877 C.ar      1 RES1    0.0000
     30 C24        4.4563    5.5639   28.9106 C.ar      2 RES2    0.0000
     31 C25        7.3642    5.0747   22.6686 C.ar      1 RES1    0.0000
     32 C26        4.0945    4.6512   29.8828 C.ar      2 RES2    0.0000
     33 C27        6.0143    1.2659   22.2327 C.ar      1 RES1    0.0000
     34 C28        3.0037    0.7393   29.2424 C.ar      2 RES2    0.0000
     35 C29        5.1589    0.1813   22.1632 C.ar      1 RES1    0.0000
     36 C30        2.2287   -0.3642   28.9646 C.ar      2 RES2    0.0000
     37 C31        5.1254   -0.7611   23.1817 C.ar      1 RES1    0.0000
     38 C32        2.3122   -0.9924   27.7224 C.ar      2 RES2    0.0000
     39 C33        5.9440   -0.6205   24.2889 C.ar      1 RES1    0.0000
     40 C34        3.1906   -0.5095   26.7695 C.ar      2 RES2    0.0000
     41 C35        6.7920    0.4611   24.3661 C.ar      1 RES1    0.0000
     42 C36        3.9687    0.5861   27.0511 C.ar      2 RES2    0.0000
     43 C37        6.8466    1.3847   23.3515 C.ar      1 RES1    0.0000
     44 C38        3.8980    1.2144   28.2741 C.ar      2 RES2    0.0000
     45 C39        3.2616    2.9101   21.5614 C.2       1 RES1    0.0000
     46 C40        0.1114    2.1240   30.1914 C.2       2 RES2    0.0000
     47 C41        4.2235    3.7932   20.7937 C.3       1 RES1    0.0000
     48 C42        1.0096    2.7257   31.2369 C.3       2 RES2    0.0000
     49 C43        4.6317    3.0117   19.4821 C.3       1 RES1    0.0000
     50 C44        1.4134    1.6239   32.2862 C.3       2 RES2    0.0000
     51 O5         2.4851    4.5105   22.9811 O.2       1 RES1    0.0000
     52 O6        -0.7790    4.0698   29.4275 O.2       2 RES2    0.0000
     53 N3         2.4458    3.3337   22.4796 N.pl3     1 RES1    0.0000
     54 N4        -0.7231    2.7945   29.4430 N.pl3     2 RES2    0.0000
     55 O7         5.5819    3.8760   18.8957 O.3       1 RES1    0.0000
     56 O8         2.3362    2.3193   33.1041 O.3       2 RES2    0.0000
     57 C45        1.4076    2.4147   23.1123 C.3       1 RES1    0.0000
     58 C46       -1.6406    2.1084   28.4361 C.3       2 RES2    0.0000
     59 C47        1.1927    1.1644   22.2828 C.3       1 RES1    0.0000
     60 C48       -1.6978    0.6111   28.6405 C.3       2 RES2    0.0000
     61 C49        0.1168    3.2008   23.2203 C.3       1 RES1    0.0000
     62 C50       -3.0195    2.7273   28.6290 C.3       2 RES2    0.0000
     63 C51        1.9732    2.0521   24.4857 C.3       1 RES1    0.0000
     64 C52       -1.0915    2.4600   27.0743 C.3       2 RES2    0.0000
     65 C53        3.6189    5.1591   20.4697 C.ar      1 RES1    0.0000
     66 C54        0.3537    3.9260   31.9197 C.ar      2 RES2    0.0000
     67 C55        2.3598    5.1857   19.8794 C.ar      1 RES1    0.0000
     68 C56       -0.8569    3.7166   32.5794 C.ar      2 RES2    0.0000
     69 C57        1.8139    6.3766   19.4512 C.ar      1 RES1    0.0000
     70 C58       -1.5042    4.7450   33.2236 C.ar      2 RES2    0.0000
     71 C59        2.4934    7.5629   19.6209 C.ar      1 RES1    0.0000
     72 C60       -0.9873    6.0172   33.1928 C.ar      2 RES2    0.0000
     73 C61        3.7057    7.5597   20.2613 C.ar      1 RES1    0.0000
     74 C62        0.1958    6.2485   32.5292 C.ar      2 RES2    0.0000
     75 C63        4.2663    6.3626   20.6973 C.ar      1 RES1    0.0000
     76 C64        0.8662    5.2123   31.9043 C.ar      2 RES2    0.0000
     77 C65        3.6097    2.6069   18.4636 C.ar      1 RES1    0.0000
     78 C66        0.4299    0.8752   33.1388 C.ar      2 RES2    0.0000
     79 C67        3.2639    3.4806   17.4374 C.ar      1 RES1    0.0000
     80 C68        0.2814    1.1972   34.4774 C.ar      2 RES2    0.0000
     81 C69        2.3217    3.1055   16.4922 C.ar      1 RES1    0.0000
     82 C70       -0.6150    0.4829   35.2683 C.ar      2 RES2    0.0000
     83 C71        1.7297    1.8552   16.5578 C.ar      1 RES1    0.0000
     84 C72       -1.3589   -0.5345   34.7398 C.ar      2 RES2    0.0000
     85 C73        2.0734    0.9815   17.5647 C.ar      1 RES1    0.0000
     86 C74       -1.2157   -0.8612   33.4050 C.ar      2 RES2    0.0000
     87 C75        3.0156    1.3550   18.5137 C.ar      1 RES1    0.0000
     88 C76       -0.3224   -0.1657   32.6103 C.ar      2 RES2    0.0000
     89 H1         6.6441    5.2357   19.9064 H         1 RES1    0.0000
     90 H2         3.2830    3.9385   32.5601 H         2 RES2    0.0000
     91 H3         6.9544    2.5632   17.4760 H         1 RES1    0.0000
     92 H4         3.9482    1.0784   34.4119 H         2 RES2    0.0000
     93 H5         7.6568    1.4066   18.4019 H         1 RES1    0.0000
     94 H6         5.4479    0.4532   34.5276 H         2 RES2    0.0000
     95 H7         8.4150    1.9849   17.0516 H         1 RES1    0.0000
     96 H8         4.4940    0.0469   33.2545 H         2 RES2    0.0000
     97 H9         9.2169    4.3761   17.2445 H         1 RES1    0.0000
     98 H10        6.1120    2.9383   34.7976 H         2 RES2    0.0000
     99 H11        9.1450    5.1419   18.6719 H         1 RES1    0.0000
    100 H12        4.5817    3.4071   34.4890 H         2 RES2    0.0000
    101 H13        7.7981    5.0013   17.7460 H         1 RES1    0.0000
    102 H14        5.8129    4.0010   33.5631 H         2 RES2    0.0000
    103 H15       10.4354    2.5944   18.4404 H         1 RES1    0.0000
    104 H16        7.3041    1.4222   33.3317 H         2 RES2    0.0000
    105 H17        9.6885    1.8286   19.6749 H         1 RES1    0.0000
    106 H18        7.0369    2.4069   32.0586 H         2 RES2    0.0000
    107 H19       10.2368    3.3446   19.8678 H         1 RES1    0.0000
    108 H20        6.5936    0.8283   31.9814 H         2 RES2    0.0000
    109 H21        4.5613    3.7041   23.6871 H         1 RES1    0.0000
    110 H22        1.3526    3.5478   28.4708 H         2 RES2    0.0000
    111 H23        5.3517    4.5168   25.8089 H         1 RES1    0.0000
    112 H24        2.0067    5.0951   26.8505 H         2 RES2    0.0000
    113 H25        7.3905    5.7046   25.8861 H         1 RES1    0.0000
    114 H26        3.9598    6.4079   27.1206 H         2 RES2    0.0000
    115 H27        8.6807    6.0641   23.9186 H         1 RES1    0.0000
    116 H28        5.2905    6.1109   29.0109 H         2 RES2    0.0000
    117 H29        7.9217    5.2201   21.8353 H         1 RES1    0.0000
    118 H30        4.6784    4.5324   30.6698 H         2 RES2    0.0000
    119 H31        4.5539    0.0781   21.3724 H         1 RES1    0.0000
    120 H32        1.5990   -0.7189   29.6667 H         2 RES2    0.0000
    121 H33        4.5119   -1.5473   23.1084 H         1 RES1    0.0000
    122 H34        1.7387   -1.7817   27.5063 H         2 RES2    0.0000
    123 H35        5.9163   -1.2972   25.0373 H         1 RES1    0.0000
    124 H36        3.2592   -0.9534   25.8861 H         2 RES2    0.0000
    125 H37        7.3737    0.5783   25.1531 H         1 RES1    0.0000
    126 H38        4.5983    0.9377   26.3490 H         2 RES2    0.0000
    127 H39        7.4897    2.1412   23.4170 H         1 RES1    0.0000
    128 H40        4.4801    2.0005   28.4708 H         2 RES2    0.0000
    129 H41        3.1599    2.0005   21.2567 H         1 RES1    0.0000
    130 H42        0.2020    1.1722   30.0525 H         2 RES2    0.0000
    131 H43        0.3834    0.7189   22.6455 H         1 RES1    0.0000
    132 H44       -2.4062    0.2813   28.0079 H         2 RES2    0.0000
    133 H45        1.9806    0.5470   22.3368 H         1 RES1    0.0000
    134 H46       -1.9612    0.4220   29.5896 H         2 RES2    0.0000
    135 H47        1.0251    1.3910   21.3338 H         1 RES1    0.0000
    136 H48       -0.8344    0.1563   28.4322 H         2 RES2    0.0000
    137 H49       -0.5627    2.5788   23.6099 H         1 RES1    0.0000
    138 H50       -3.6208    2.3444   27.9307 H         2 RES2    0.0000
    139 H51       -0.1746    3.4696   22.2983 H         1 RES1    0.0000
    140 H52       -2.9375    3.7197   28.5094 H         2 RES2    0.0000
    141 H53        0.2074    4.0167   23.8028 H         1 RES1    0.0000
    142 H54       -3.4083    2.5319   29.5124 H         2 RES2    0.0000
    143 H55        1.3100    1.4691   24.9602 H         1 RES1    0.0000
    144 H56       -1.6884    2.0787   26.3490 H         2 RES2    0.0000
    145 H57        2.0811    2.9070   24.9988 H         1 RES1    0.0000
    146 H58       -0.2027    2.0161   27.0434 H         2 RES2    0.0000
    147 H59        2.8558    1.5785   24.4201 H         1 RES1    0.0000
    148 H60       -0.9734    3.4384   26.9277 H         2 RES2    0.0000
    149 H61        1.8481    4.3292   19.7521 H         1 RES1    0.0000
    150 H62       -1.2606    2.7976   32.5987 H         2 RES2    0.0000
    151 H63        0.9120    6.3766   19.0191 H         1 RES1    0.0000
    152 H64       -2.3555    4.5637   33.7175 H         2 RES2    0.0000
    153 H65        2.1044    8.4240   19.2892 H         1 RES1    0.0000
    154 H66       -1.4675    6.7674   33.6403 H         2 RES2    0.0000
    155 H67        4.1898    8.4240   20.4079 H         1 RES1    0.0000
    156 H68        0.5786    7.1737   32.4829 H         2 RES2    0.0000
    157 H69        5.1468    6.3766   21.1795 H         1 RES1    0.0000
    158 H70        1.7364    5.3920   31.4413 H         2 RES2    0.0000
    159 H71        3.6899    4.3761   17.3988 H         1 RES1    0.0000
    160 H72        0.8179    1.9380   34.8748 H         2 RES2    0.0000
    161 H73        2.0726    3.7353   15.7400 H         1 RES1    0.0000
    162 H74       -0.7221    0.7189   36.2250 H         2 RES2    0.0000
    163 H75        1.0468    1.5942   15.8943 H         1 RES1    0.0000
    164 H76       -2.0057   -1.0315   35.2992 H         2 RES2    0.0000
    165 H77        1.6493    0.0781   17.6303 H         1 RES1    0.0000
    166 H78       -1.7597   -1.6098   33.0230 H         2 RES2    0.0000
    167 H79        3.2669    0.7189   19.2506 H         1 RES1    0.0000
    168 H80       -0.2194   -0.4064   31.6342 H         2 RES2    0.0000
@<TRIPOS>BOND
     1    1    3 1
     2    2    4 1
     3    3    5 1
     4    4    6 1
     5    5    7 1
     6    6    8 1
     7    7    9 1
     8    8   10 1
     9    9    1 1
    10   10    2 1
    11   11    5 1
    12   12    6 1
    13   13    9 1
    14   14   10 1
    15   15   13 1
    16   16   14 1
    17   17   13 1
    18   18   14 1
    19   19   13 1
    20   20   14 1
    21   21    3 1
    22   22    4 1
    23   23   21 ar
    24   24   22 ar
    25   25   23 ar
    26   26   24 ar
    27   27   25 ar
    28   28   26 ar
    29   29   27 ar
    30   30   28 ar
    31   31   21 ar
    32   32   22 ar
    33   33    5 1
    34   34    6 1
    35   35   33 ar
    36   36   34 ar
    37   37   35 ar
    38   38   36 ar
    39   39   37 ar
    40   40   38 ar
    41   41   39 ar
    42   42   40 ar
    43   43   33 ar
    44   44   34 ar
    45   45   47 1
    46   46   48 1
    47   47    3 1
    48   48    4 1
    49   49   11 1
    50   50   12 1
    51   51   53 1
    52   52   54 1
    53   53   45 2
    54   54   46 2
    55   55    1 1
    56   56    2 1
    57   57   53 1
    58   58   54 1
    59   59   57 1
    60   60   58 1
    61   61   57 1
    62   62   58 1
    63   63   57 1
    64   64   58 1
    65   65   47 1
    66   66   48 1
    67   67   65 ar
    68   68   66 ar
    69   69   67 ar
    70   70   68 ar
    71   71   69 ar
    72   72   70 ar
    73   73   71 ar
    74   74   72 ar
    75   75   65 ar
    76   76   66 ar
    77   77   49 1
    78   78   50 1
    79   79   77 ar
    80   80   78 ar
    81   81   79 ar
    82   82   80 ar
    83   83   81 ar
    84   84   82 ar
    85   85   83 ar
    86   86   84 ar
    87   87   77 ar
    88   88   78 ar
    89   89    1 1
    90   90    2 1
    91   91   15 1
    92   92   16 1
    93   93   15 1
    94   94   16 1
    95   95   15 1
    96   96   16 1
    97   97   17 1
    98   98   18 1
    99   99   17 1
   100  100   18 1
   101  101   17 1
   102  102   18 1
   103  103   19 1
   104  104   20 1
   105  105   19 1
   106  106   20 1
   107  107   19 1
   108  108   20 1
   109  109   23 1
   110  110   24 1
   111  111   25 1
   112  112   26 1
   113  113   27 1
   114  114   28 1
   115  115   29 1
   116  116   30 1
   117  117   31 1
   118  118   32 1
   119  119   35 1
   120  120   36 1
   121  121   37 1
   122  122   38 1
   123  123   39 1
   124  124   40 1
   125  125   41 1
   126  126   42 1
   127  127   43 1
   128  128   44 1
   129  129   45 1
   130  130   46 1
   131  131   59 1
   132  132   60 1
   133  133   59 1
   134  134   60 1
   135  135   59 1
   136  136   60 1
   137  137   61 1
   138  138   62 1
   139  139   61 1
   140  140   62 1
   141  141   61 1
   142  142   62 1
   143  143   63 1
   144  144   64 1
   145  145   63 1
   146  146   64 1
   147  147   63 1
   148  148   64 1
   149  149   67 1
   150  150   68 1
   151  151   69 1
   152  152   70 1
   153  153   71 1
   154  154   72 1
   155  155   73 1
   156  156   74 1
   157  157   75 1
   158  158   76 1
   159  159   79 1
   160  160   80 1
   161  161   81 1
   162  162   82 1
   163  163   83 1
   164  164   84 1
   165  165   85 1
   166  166   86 1
   167  167   87 1
   168  168   88 1
   169   29   31 ar
   170   30   32 ar
   171   41   43 ar
   172   42   44 ar
   173   47   49 1
   174   48   50 1
   175   49   55 1
   176   50   56 1
   177   73   75 ar
   178   74   76 ar
   179   85   87 ar
   180   86   88 ar
@<TRIPOS>SUBSTRUCTURE
     1 RES1 1
     2 RES2 2

@<TRIPOS>CRYSIN
  10.5660   15.6290   38.5790  90.0000  90.3400  90.0000  14 1

