# MOL2 file generated by ConQuest
# Please check atom types

@<TRIPOS>MOLECULE
CUWRAP
    48    50     1
SMALL
NO_CHARGES
****
Generated from CSD

@<TRIPOS>ATOM
      1 C1        10.2108   11.2691    0.8640 C.3       1 RES1    0.0000
      2 H1        10.0357   10.8093    0.0398 H         1 RES1    0.0000
      3 H2        10.1683   12.2165    0.7174 H         1 RES1    0.0000
      4 H3         9.5528   11.0165    1.5167 H         1 RES1    0.0000
      5 C2        11.7834    9.5891    1.4769 C.2       1 RES1    0.0000
      6 C3        13.1573    9.3542    1.7732 C.2       1 RES1    0.0000
      7 C4        13.7094    8.1003    1.7631 C.2       1 RES1    0.0000
      8 C5        13.7523    5.6371    1.8762 C.3       1 RES1    0.0000
      9 H4        13.4814    4.9962    1.2009 H         1 RES1    0.0000
     10 H5        13.4490    5.3087    2.7371 H         1 RES1    0.0000
     11 C6        15.2788    5.7398    1.8879 C.3       1 RES1    0.0000
     12 H6        15.6508    4.9466    2.3050 H         1 RES1    0.0000
     13 H7        15.6029    5.7769    0.9747 H         1 RES1    0.0000
     14 C7        15.7564    6.9744    2.6411 C.3       1 RES1    0.0000
     15 H8        15.3414    6.9617    3.5278 H         1 RES1    0.0000
     16 C8        15.2095    8.1811    1.8886 C.3       1 RES1    0.0000
     17 H9        15.5913    8.1777    0.9864 H         1 RES1    0.0000
     18 C9        15.4088    9.5723    2.4836 C.3       1 RES1    0.0000
     19 H10       16.2459    9.9580    2.1834 H         1 RES1    0.0000
     20 H11       15.4114    9.5344    3.4529 H         1 RES1    0.0000
     21 C10       14.2148   10.3975    1.9721 C.3       1 RES1    0.0000
     22 H12       13.9368   11.0577    2.6255 H         1 RES1    0.0000
     23 H13       14.4285   10.8447    1.1377 H         1 RES1    0.0000
     24 C11       17.2704    7.0089    2.8376 C.ar      1 RES1    0.0000
     25 C12       17.9319    6.5946    3.9878 C.ar      1 RES1    0.0000
     26 C13       19.3046    6.7175    4.1602 C.ar      1 RES1    0.0000
     27 H14       19.7017    6.4270    4.9493 H         1 RES1    0.0000
     28 C14       20.0747    7.2674    3.1667 C.ar      1 RES1    0.0000
     29 C15       19.4586    7.6565    1.9666 C.ar      1 RES1    0.0000
     30 C16       18.1001    7.5436    1.8325 C.ar      1 RES1    0.0000
     31 H15       17.7072    7.8341    1.0410 H         1 RES1    0.0000
     32 C17       19.7999    8.7790   -0.1053 C.3       1 RES1    0.0000
     33 H16       20.5233    9.1209   -0.6347 H         1 RES1    0.0000
     34 H17       19.2198    9.5007    0.1458 H         1 RES1    0.0000
     35 H18       19.3054    8.1339   -0.6160 H         1 RES1    0.0000
     36 C18       22.0818    7.1083    4.4339 C.3       1 RES1    0.0000
     37 H19       22.9904    7.4190    4.4003 H         1 RES1    0.0000
     38 H20       22.0746    6.1541    4.5368 H         1 RES1    0.0000
     39 H21       21.6325    7.5141    5.1778 H         1 RES1    0.0000
     40 N1        13.1145    6.9188    1.6025 N.3       1 RES1    0.0000
     41 H22       12.3015    6.9120    1.3186 H         1 RES1    0.0000
     42 N2        17.2129    5.9992    5.1201 N.pl3     1 RES1    0.0000
     43 O1        10.9085    8.7436    1.3194 O.2       1 RES1    0.0000
     44 O2        11.5230   10.9163    1.3428 O.3       1 RES1    0.0000
     45 O3        16.1909    5.3609    4.8994 O.2       1 RES1    0.0000
     46 O4        17.6847    6.1289    6.2414 O.2       1 RES1    0.0000
     47 O5        20.3114    8.1702    1.0473 O.3       1 RES1    0.0000
     48 O6        21.4177    7.4586    3.2307 O.3       1 RES1    0.0000
@<TRIPOS>BOND
     1    1    2 1
     2    3    1 1
     3    4    1 1
     4    5    6 1
     5    6    7 2
     6    7   16 1
     7    8    9 1
     8   10    8 1
     9   11    8 1
    10   12   11 1
    11   13   11 1
    12   14   11 1
    13   15   14 1
    14   16   14 1
    15   17   16 1
    16   18   16 1
    17   19   18 1
    18   20   18 1
    19   21    6 1
    20   22   21 1
    21   23   21 1
    22   24   14 1
    23   25   24 ar
    24   26   25 ar
    25   27   26 1
    26   28   26 ar
    27   29   28 ar
    28   30   24 ar
    29   31   30 1
    30   32   33 1
    31   34   32 1
    32   35   32 1
    33   36   37 1
    34   38   36 1
    35   39   36 1
    36   40    7 1
    37   41   40 1
    38   42   25 1
    39   43    5 2
    40   44    1 1
    41   45   42 2
    42   46   42 2
    43   47   29 1
    44   48   28 1
    45    5   44 1
    46    8   40 1
    47   18   21 1
    48   29   30 ar
    49   32   47 1
    50   36   48 1
@<TRIPOS>SUBSTRUCTURE
     1 RES1 1

@<TRIPOS>CRYSIN
  27.3440    8.4211    7.8112  90.0000  93.3480  90.0000   5 1

