# MOL2 file generated by ConQuest
# Please check atom types

@<TRIPOS>MOLECULE
CUWTAR
    49    53     1
SMALL
NO_CHARGES
****
Generated from CSD

@<TRIPOS>ATOM
      1 C1        -1.3913    4.5905    2.3946 C.ar      1 RES1    0.0000
      2 C2        -1.7817    3.9302    3.5318 C.ar      1 RES1    0.0000
      3 H1        -2.6708    3.9388    3.8031 H         1 RES1    0.0000
      4 C3        -0.8342    3.2572    4.2617 C.ar      1 RES1    0.0000
      5 H2        -1.0862    2.8069    5.0366 H         1 RES1    0.0000
      6 C4         0.4951    3.2390    3.8593 C.ar      1 RES1    0.0000
      7 C5         0.8456    3.8898    2.6928 C.ar      1 RES1    0.0000
      8 H3         1.7277    3.8639    2.4000 H         1 RES1    0.0000
      9 C6        -0.0970    4.5772    1.9558 C.ar      1 RES1    0.0000
     10 H4         0.1433    5.0227    1.1761 H         1 RES1    0.0000
     11 C7         1.5270    2.5223    4.6915 C.3       1 RES1    0.0000
     12 H5         1.2406    1.5884    4.7772 H         1 RES1    0.0000
     13 C8         3.7185    1.6924    4.6095 C.3       1 RES1    0.0000
     14 H6         4.5092    1.6282    4.0505 H         1 RES1    0.0000
     15 H7         3.3541    0.8006    4.7198 H         1 RES1    0.0000
     16 C9         4.0939    2.2536    5.9516 C.3       1 RES1    0.0000
     17 H8         4.5172    3.1171    5.8314 H         1 RES1    0.0000
     18 H9         4.7341    1.6633    6.3788 H         1 RES1    0.0000
     19 C10        2.8704    2.4125    6.8556 C.3       1 RES1    0.0000
     20 H10        2.5986    1.5474    7.2262 H         1 RES1    0.0000
     21 C11        3.1459    3.4004    7.9529 C.ar      1 RES1    0.0000
     22 C12        3.8335    3.2152    9.1365 C.ar      1 RES1    0.0000
     23 H11        4.1618    2.3762    9.3656 H         1 RES1    0.0000
     24 C13        4.0266    4.2940    9.9732 C.ar      1 RES1    0.0000
     25 H12        4.4836    4.1788   10.7747 H         1 RES1    0.0000
     26 C14        3.5500    5.5386    9.6340 C.ar      1 RES1    0.0000
     27 H13        3.6903    6.2565   10.2082 H         1 RES1    0.0000
     28 C15        2.8623    5.7363    8.4437 C.ar      1 RES1    0.0000
     29 H14        2.5415    6.5784    8.2158 H         1 RES1    0.0000
     30 C16        2.6637    4.6561    7.6055 C.ar      1 RES1    0.0000
     31 C17        1.9596    4.6065    6.2578 C.3       1 RES1    0.0000
     32 H15        2.5982    4.8788    5.5661 H         1 RES1    0.0000
     33 C18        1.6924    3.0855    6.1063 C.3       1 RES1    0.0000
     34 H16        0.8732    2.8795    6.6023 H         1 RES1    0.0000
     35 C19        0.7339    5.4828    6.1451 C.ar      1 RES1    0.0000
     36 C20       -0.3386    5.3239    7.0070 C.ar      1 RES1    0.0000
     37 H17       -0.2883    4.7008    7.6959 H         1 RES1    0.0000
     38 C21       -1.4831    6.0844    6.8516 C.ar      1 RES1    0.0000
     39 H18       -2.2012    5.9639    7.4294 H         1 RES1    0.0000
     40 C22       -1.5614    7.0138    5.8493 C.ar      1 RES1    0.0000
     41 H19       -2.3351    7.5183    5.7394 H         1 RES1    0.0000
     42 C23       -0.4987    7.2005    5.0103 C.ar      1 RES1    0.0000
     43 H20       -0.5481    7.8414    4.3386 H         1 RES1    0.0000
     44 C24        0.6474    6.4422    5.1543 C.ar      1 RES1    0.0000
     45 H21        1.3662    6.5784    4.5800 H         1 RES1    0.0000
     46 N1        -2.3984    5.3170    1.6182 N.pl3     1 RES1    0.0000
     47 O1         2.7511    2.5303    3.9760 O.3       1 RES1    0.0000
     48 O2        -2.0278    6.0012    0.6754 O.2       1 RES1    0.0000
     49 O3        -3.5717    5.2027    1.9359 O.2       1 RES1    0.0000
@<TRIPOS>BOND
     1    1    2 ar
     2    2    3 1
     3    4    2 ar
     4    5    4 1
     5    6    4 ar
     6    7    6 ar
     7    8    7 1
     8    9    1 ar
     9   10    9 1
    10   11    6 1
    11   12   11 1
    12   13   14 1
    13   15   13 1
    14   16   13 1
    15   17   16 1
    16   18   16 1
    17   19   16 1
    18   20   19 1
    19   21   19 1
    20   22   21 ar
    21   23   22 1
    22   24   22 ar
    23   25   24 1
    24   26   24 ar
    25   27   26 1
    26   28   26 ar
    27   29   28 1
    28   30   21 ar
    29   31   30 1
    30   32   31 1
    31   33   11 1
    32   34   33 1
    33   35   31 1
    34   36   35 ar
    35   37   36 1
    36   38   36 ar
    37   39   38 1
    38   40   38 ar
    39   41   40 1
    40   42   40 ar
    41   43   42 1
    42   44   35 ar
    43   45   44 1
    44   46    1 1
    45   47   11 1
    46   48   46 2
    47   49   46 2
    48    7    9 ar
    49   13   47 1
    50   19   33 1
    51   28   30 ar
    52   31   33 1
    53   42   44 ar
@<TRIPOS>SUBSTRUCTURE
     1 RES1 1

@<TRIPOS>CRYSIN
  13.9135   11.7053   13.6961  90.0000 119.2310  90.0000  14 1

