# MOL2 file generated by ConQuest
# Please check atom types

@<TRIPOS>MOLECULE
CUYKUC
    29    29     1
SMALL
NO_CHARGES
****
Generated from CSD

@<TRIPOS>ATOM
      1 C1        -0.1312    5.6380    3.3724 C.2       1 RES1    0.0000
      2 O1        -0.1794    6.7725    3.7331 O.2       1 RES1    0.0000
      3 C2         1.0054    4.6736    3.3593 C.3       1 RES1    0.0000
      4 C3         0.3542    3.3465    3.0598 C.3       1 RES1    0.0000
      5 C4        -0.9761    3.7351    2.4241 C.3       1 RES1    0.0000
      6 O2        -1.2640    5.0340    2.8842 O.3       1 RES1    0.0000
      7 N1        -0.7043    3.8738    0.8958 N.pl3     1 RES1    0.0000
      8 O3        -0.6932    2.8439    0.2525 O.2       1 RES1    0.0000
      9 O4        -0.4943    4.9662    0.4401 O.2       1 RES1    0.0000
     10 C5        -2.1556    2.8146    2.5998 C.3       1 RES1    0.0000
     11 C6        -2.6368    2.7442    4.0381 C.3       1 RES1    0.0000
     12 C7        -3.8003    1.7975    4.2238 C.3       1 RES1    0.0000
     13 C8        -4.2498    1.7152    5.6490 C.3       1 RES1    0.0000
     14 C9        -5.4795    0.8958    5.8759 C.2       1 RES1    0.0000
     15 O5        -6.2319    0.5450    4.9783 O.2       1 RES1    0.0000
     16 O6        -5.6818    0.6033    7.1386 O.3       1 RES1    0.0000
     17 H1         1.5668    4.9373    2.6504 H         1 RES1    0.0000
     18 H2         1.3363    4.7042    4.2882 H         1 RES1    0.0000
     19 H3         0.1245    2.9209    3.9131 H         1 RES1    0.0000
     20 H4         0.9358    2.8859    2.4316 H         1 RES1    0.0000
     21 H5        -2.7669    3.1190    2.0566 H         1 RES1    0.0000
     22 H6        -1.8253    1.8859    2.3691 H         1 RES1    0.0000
     23 H7        -2.9940    3.6598    4.2632 H         1 RES1    0.0000
     24 H8        -1.8510    2.5642    4.6320 H         1 RES1    0.0000
     25 H9        -3.5403    0.7926    3.9569 H         1 RES1    0.0000
     26 H10       -4.4622    1.9488    3.6006 H         1 RES1    0.0000
     27 H11       -4.4291    2.5572    6.0447 H         1 RES1    0.0000
     28 H12       -3.6047    1.4686    6.3135 H         1 RES1    0.0000
     29 H13       -6.4796    0.1608    7.1949 H         1 RES1    0.0000
@<TRIPOS>BOND
     1    1    2 2
     2    3    1 1
     3    4    3 1
     4    5    4 1
     5    6    1 1
     6    7    5 1
     7    8    7 2
     8    9    7 2
     9   10    5 1
    10   11   10 1
    11   12   11 1
    12   13   12 1
    13   14   13 1
    14   15   14 2
    15   16   14 1
    16   17    3 1
    17   18    3 1
    18   19    4 1
    19   20    4 1
    20   21   10 1
    21   22   10 1
    22   23   11 1
    23   24   11 1
    24   25   12 1
    25   26   12 1
    26   27   13 1
    27   28   13 1
    28   29   16 1
    29    5    6 1
@<TRIPOS>SUBSTRUCTURE
     1 RES1 1

@<TRIPOS>CRYSIN
   7.5940   23.3110    9.4900  90.0000 138.8000  90.0000  14 1

