# MOL2 file generated by ConQuest
# Please check atom types

@<TRIPOS>MOLECULE
CUYMIS
    33    35     1
SMALL
NO_CHARGES
****
Generated from CSD

@<TRIPOS>ATOM
      1 O1         1.5582   -0.8658    2.4884 O.3       1 RES1    0.0000
      2 O2         3.7120    1.6494    5.7648 O.3       1 RES1    0.0000
      3 O3        -0.7751   -0.6262    3.5251 O.2       1 RES1    0.0000
      4 N1         0.7710    0.2697    2.1153 N.am      1 RES1    0.0000
      5 C1         2.9476   -0.4711    2.7405 C.3       1 RES1    0.0000
      6 C2         2.9862    0.6586    3.7264 C.2       1 RES1    0.0000
      7 C3         2.2901    1.7085    3.3239 C.2       1 RES1    0.0000
      8 C4         1.6191    1.4920    1.9932 C.3       1 RES1    0.0000
      9 C5         2.6723    1.1830    0.9305 C.3       1 RES1    0.0000
     10 C6         3.5342    0.0104    1.4211 C.3       1 RES1    0.0000
     11 C7         3.7892    0.4908    4.9632 C.3       1 RES1    0.0000
     12 C8        -0.4391    0.2662    2.7541 C.2       1 RES1    0.0000
     13 C9        -1.3855    1.3415    2.3595 C.ar      1 RES1    0.0000
     14 C10       -1.4690    1.8312    1.0673 C.ar      1 RES1    0.0000
     15 C11       -2.4414    2.7630    0.7337 C.ar      1 RES1    0.0000
     16 C12       -3.3313    3.2074    1.6880 C.ar      1 RES1    0.0000
     17 C13       -3.2575    2.7259    2.9723 C.ar      1 RES1    0.0000
     18 C14       -2.2923    1.7930    3.3103 C.ar      1 RES1    0.0000
     19 H1         4.1651    1.4318    6.5234 H         1 RES1    0.0000
     20 H2         3.4455   -1.2119    3.0933 H         1 RES1    0.0000
     21 H3         2.2210    2.5245    3.8259 H         1 RES1    0.0000
     22 H4         1.1138    2.2722    1.7535 H         1 RES1    0.0000
     23 H5         2.2400    0.9457    0.1074 H         1 RES1    0.0000
     24 H6         3.2256    1.9550    0.7903 H         1 RES1    0.0000
     25 H7         4.4398    0.3021    1.5523 H         1 RES1    0.0000
     26 H8         3.5173   -0.7003    0.7767 H         1 RES1    0.0000
     27 H9         4.7056    0.3310    4.7258 H         1 RES1    0.0000
     28 H10        3.4515   -0.2593    5.4596 H         1 RES1    0.0000
     29 H11       -0.8509    1.5244    0.3991 H         1 RES1    0.0000
     30 H12       -2.4949    3.0986   -0.1639 H         1 RES1    0.0000
     31 H13       -4.0024    3.8533    1.4551 H         1 RES1    0.0000
     32 H14       -3.8770    3.0373    3.6371 H         1 RES1    0.0000
     33 H15       -2.2489    1.4561    4.2080 H         1 RES1    0.0000
@<TRIPOS>BOND
     1    1    4 1
     2    2   11 1
     3    3   12 2
     4    4    8 1
     5    5    1 1
     6    6    5 1
     7    7    6 2
     8    8    7 1
     9    9    8 1
    10   10    5 1
    11   11    6 1
    12   12    4 1
    13   13   12 1
    14   14   13 ar
    15   15   14 ar
    16   16   15 ar
    17   17   16 ar
    18   18   13 ar
    19   19    2 1
    20   20    5 1
    21   21    7 1
    22   22    8 1
    23   23    9 1
    24   24    9 1
    25   25   10 1
    26   26   10 1
    27   27   11 1
    28   28   11 1
    29   29   14 1
    30   30   15 1
    31   31   16 1
    32   32   17 1
    33   33   18 1
    34    9   10 1
    35   17   18 ar
@<TRIPOS>SUBSTRUCTURE
     1 RES1 1

@<TRIPOS>CRYSIN
   9.1190   11.5750   12.1580  90.0000 111.5800  90.0000 231 1

