# MOL2 file generated by ConQuest
# Please check atom types

@<TRIPOS>MOLECULE
CUZGAH
    47    49     1
SMALL
NO_CHARGES
****
Generated from CSD

@<TRIPOS>ATOM
      1 N1         0.0602   -0.0935    7.5206 N.am      1 RES1    0.0000
      2 C1        -0.7596    0.5055    6.6268 C.2       1 RES1    0.0000
      3 C2         0.1213    1.1038    5.5653 C.3       1 RES1    0.0000
      4 H1        -0.0457    2.0759    5.4803 H         1 RES1    0.0000
      5 H2        -0.0467    0.6740    4.6890 H         1 RES1    0.0000
      6 C3         1.5570    0.8413    6.0286 C.3       1 RES1    0.0000
      7 H3         2.0853    1.6781    6.0015 H         1 RES1    0.0000
      8 H4         1.9923    0.1753    5.4394 H         1 RES1    0.0000
      9 C4         1.4761    0.3035    7.4782 C.3       1 RES1    0.0000
     10 C5         2.3772   -0.9073    7.7098 C.3       1 RES1    0.0000
     11 H5         2.1530   -1.3191    8.5815 H         1 RES1    0.0000
     12 H6         2.2084   -1.5798    7.0031 H         1 RES1    0.0000
     13 C6         3.8550   -0.5271    7.6985 C.3       1 RES1    0.0000
     14 H7         4.1026   -0.1957    6.7990 H         1 RES1    0.0000
     15 H8         4.4030   -1.3293    7.8907 H         1 RES1    0.0000
     16 C7         4.1518    0.5503    8.7354 C.3       1 RES1    0.0000
     17 H9         4.0118    0.1813    9.6428 H         1 RES1    0.0000
     18 H10        5.0996    0.8270    8.6600 H         1 RES1    0.0000
     19 C8         3.2526    1.7628    8.5369 C.3       1 RES1    0.0000
     20 H11        3.4676    2.1911    7.6709 H         1 RES1    0.0000
     21 H12        3.4296    2.4210    9.2545 H         1 RES1    0.0000
     22 C9         1.7705    1.3808    8.5564 C.3       1 RES1    0.0000
     23 H13        1.5995    0.9505    9.4429 H         1 RES1    0.0000
     24 C10        0.8240    2.5422    8.4559 C.2       1 RES1    0.0000
     25 H14       -0.0929    2.3601    8.6244 H         1 RES1    0.0000
     26 C11        1.1336    3.7883    8.1580 C.2       1 RES1    0.0000
     27 H15        2.0370    4.0236    7.9807 H         1 RES1    0.0000
     28 H16        0.4543    4.4507    8.1210 H         1 RES1    0.0000
     29 O1        -1.9804    0.5224    6.6804 O.2       1 RES1    0.0000
     30 O2        -0.4583   -0.5039    8.7579 O.3       1 RES1    0.0000
     31 C12       -1.2600   -1.7272    8.5998 C.3       1 RES1    0.0000
     32 H17       -1.9636   -1.5596    7.9085 H         1 RES1    0.0000
     33 C13       -1.9329   -1.8910    9.9395 C.3       1 RES1    0.0000
     34 H18       -1.2524   -1.9605   10.6413 H         1 RES1    0.0000
     35 H19       -2.4794   -2.7038    9.9327 H         1 RES1    0.0000
     36 H20       -2.5041   -1.1143   10.1148 H         1 RES1    0.0000
     37 C14       -0.4024   -2.8790    8.1427 C.ar      1 RES1    0.0000
     38 C15       -0.3315   -3.1622    6.7845 C.ar      1 RES1    0.0000
     39 H21       -0.8493   -2.6529    6.1721 H         1 RES1    0.0000
     40 C16        0.4819   -4.1752    6.3113 C.ar      1 RES1    0.0000
     41 H22        0.5246   -4.3549    5.3798 H         1 RES1    0.0000
     42 C17        1.2329   -4.9262    7.1937 C.ar      1 RES1    0.0000
     43 H23        1.7934   -5.6215    6.8702 H         1 RES1    0.0000
     44 C18        1.1659   -4.6624    8.5535 C.ar      1 RES1    0.0000
     45 H24        1.6778   -5.1814    9.1634 H         1 RES1    0.0000
     46 C19        0.3547   -3.6440    9.0241 C.ar      1 RES1    0.0000
     47 H25        0.3143   -3.4665    9.9568 H         1 RES1    0.0000
@<TRIPOS>BOND
     1    1    2 1
     2    2    3 1
     3    3    4 1
     4    5    3 1
     5    6    3 1
     6    7    6 1
     7    8    6 1
     8    9    1 1
     9   10    9 1
    10   11   10 1
    11   12   10 1
    12   13   10 1
    13   14   13 1
    14   15   13 1
    15   16   13 1
    16   17   16 1
    17   18   16 1
    18   19   16 1
    19   20   19 1
    20   21   19 1
    21   22    9 1
    22   23   22 1
    23   24   22 1
    24   25   24 1
    25   26   24 2
    26   27   26 1
    27   28   26 1
    28   29    2 2
    29   30    1 1
    30   31   30 1
    31   32   31 1
    32   33   31 1
    33   34   33 1
    34   35   33 1
    35   36   33 1
    36   37   31 1
    37   38   37 ar
    38   39   38 1
    39   40   38 ar
    40   41   40 1
    41   42   40 ar
    42   43   42 1
    43   44   42 ar
    44   45   44 1
    45   46   37 ar
    46   47   46 1
    47    6    9 1
    48   19   22 1
    49   44   46 ar
@<TRIPOS>SUBSTRUCTURE
     1 RES1 1

@<TRIPOS>CRYSIN
   8.9032    9.6307   11.3401  93.3060 108.7100 114.9290   2 1

