# MOL2 file generated by ConQuest
# Please check atom types

@<TRIPOS>MOLECULE
CUZMUF
    14    14     1
SMALL
NO_CHARGES
****
Generated from CSD

@<TRIPOS>ATOM
      1 N1        -0.6479    1.9526    2.0795 N.3       1 RES1    0.0000
      2 N2        -0.1938    3.1325    2.5811 N.2       1 RES1    0.0000
      3 C1         0.4367    2.8138    3.6904 C.2       1 RES1    0.0000
      4 C2         0.3894    1.4314    3.8935 C.2       1 RES1    0.0000
      5 C3        -0.3194    0.9203    2.8396 C.2       1 RES1    0.0000
      6 C4        -1.4156    1.9261    0.8455 C.3       1 RES1    0.0000
      7 N3         0.9269    0.6994    4.9752 N.pl3     1 RES1    0.0000
      8 O1         0.7006   -0.5111    5.0260 O.2       1 RES1    0.0000
      9 O2         1.5958    1.2797    5.8007 O.2       1 RES1    0.0000
     10 H1         0.8839    3.4713    4.2050 H         1 RES1    0.0000
     11 H2        -0.6168    0.0708    2.5890 H         1 RES1    0.0000
     12 H3        -2.1971    2.5451    0.8055 H         1 RES1    0.0000
     13 H4        -1.5650    1.0180    0.4777 H         1 RES1    0.0000
     14 H5        -0.9098    2.4932    0.2039 H         1 RES1    0.0000
@<TRIPOS>BOND
     1    1    2 1
     2    2    3 2
     3    3    4 1
     4    4    5 2
     5    5    1 1
     6    6    1 1
     7    7    4 1
     8    8    7 2
     9    9    7 2
    10   10    3 1
    11   11    5 1
    12   12    6 1
    13   13    6 1
    14   14    6 1
@<TRIPOS>SUBSTRUCTURE
     1 RES1 1

@<TRIPOS>CRYSIN
   7.4197   10.1803    8.3529  90.0000 112.9240  90.0000  14 1

