# MOL2 file generated by ConQuest
# Please check atom types

@<TRIPOS>MOLECULE
CUZRAQ
    62    64     2
SMALL
USER_CHARGES
****
Generated from CSD

@<TRIPOS>ATOM
      1 N1         4.6729    6.2061    6.0222 N.pl3     1 RES1    1.0000
      2 N2        -0.5682    3.8930    9.6627 N.1       1 RES1    0.0000
      3 N3         4.4312    2.8160    4.7823 N.pl3     2 RES2    1.0000
      4 N4         9.6099    5.1297    1.0665 N.1       2 RES2    0.0000
      5 O1         7.9397    8.8373    0.9690 O.3       1 RES1    0.0000
      6 O2         5.8422    5.9415    6.5159 O.2       1 RES1   -1.0000
      7 O3         1.0864    0.2971    9.8103 O.3       2 RES2    0.0000
      8 O4         3.3635    2.5130    4.1074 O.2       2 RES2   -1.0000
      9 C1         9.3666    8.8445    1.0850 C.3       1 RES1    0.0000
     10 H1         9.6665    9.3513    0.3111 H         1 RES1    0.0000
     11 H2         9.7583    7.8757    1.1357 H         1 RES1    0.0000
     12 H3         9.6668    9.3814    1.9189 H         1 RES1    0.0000
     13 C2         7.2087    8.2942    1.9790 C.ar      1 RES1    0.0000
     14 C3         7.7251    7.7780    3.1560 C.ar      1 RES1    0.0000
     15 H4         8.6665    7.7904    3.3026 H         1 RES1    0.0000
     16 C4         6.8831    7.2837    4.1390 C.ar      1 RES1    0.0000
     17 H5         7.2361    6.8364    4.9409 H         1 RES1    0.0000
     18 C5         5.4955    7.3028    3.9651 C.ar      1 RES1    0.0000
     19 C6         5.0039    7.8375    2.7566 C.ar      1 RES1    0.0000
     20 H6         4.0556    7.8519    2.6217 H         1 RES1    0.0000
     21 C7         5.8307    8.3089    1.7825 C.ar      1 RES1    0.0000
     22 H7         5.4262    8.7415    0.9616 H         1 RES1    0.0000
     23 C8         4.5086    6.8425    4.8900 C.2       1 RES1    0.0000
     24 H8         3.6266    7.0192    4.7255 H         1 RES1    0.0000
     25 C9         3.5293    5.7421    6.7902 C.ar      1 RES1    0.0000
     26 C10        2.3164    5.4745    6.1889 C.ar      1 RES1    0.0000
     27 H9         2.2046    5.6272    5.2107 H         1 RES1    0.0000
     28 C11        1.2559    5.0253    6.9501 C.ar      1 RES1    0.0000
     29 H10        0.4015    4.8003    6.5640 H         1 RES1    0.0000
     30 C12        1.4291    4.8030    8.3075 C.ar      1 RES1    0.0000
     31 C13        2.6478    5.0600    8.9002 C.ar      1 RES1    0.0000
     32 H11        2.7477    4.8113    9.8427 H         1 RES1    0.0000
     33 C14        3.7018    5.5194    8.1413 C.ar      1 RES1    0.0000
     34 H12        4.5520    5.6631    8.5199 H         1 RES1    0.0000
     35 C15        0.3199    4.3036    9.0781 C.1       1 RES1    0.0000
     36 C16       -0.2931    0.0466    9.5446 C.3       2 RES2    0.0000
     37 H13       -0.6787   -0.3027   10.3539 H         2 RES2    0.0000
     38 H14       -0.4155   -0.5919    8.7527 H         2 RES2    0.0000
     39 H15       -0.7108    0.8738    9.3357 H         2 RES2    0.0000
     40 C17        1.8468    0.8603    8.8275 C.ar      2 RES2    0.0000
     41 C18        1.4422    0.9945    7.5134 C.ar      2 RES2    0.0000
     42 H16        0.6532    0.6569    7.2471 H         2 RES2    0.0000
     43 C19        2.2968    1.5590    6.5831 C.ar      2 RES2    0.0000
     44 H17        1.9906    1.7221    5.6654 H         2 RES2    0.0000
     45 C20        3.5566    2.0222    6.9482 C.ar      2 RES2    0.0000
     46 C21        3.9297    1.8870    8.2977 C.ar      2 RES2    0.0000
     47 H18        4.8356    2.2031    8.5656 H         2 RES2    0.0000
     48 C22        3.0964    1.3105    9.2191 C.ar      2 RES2    0.0000
     49 H19        3.3717    1.1924   10.0972 H         2 RES2    0.0000
     50 C23        4.5273    2.6272    6.0794 C.2       2 RES2    0.0000
     51 H20        5.3331    3.0107    6.4748 H         2 RES2    0.0000
     52 C24        5.5444    3.3451    4.0191 C.ar      2 RES2    0.0000
     53 C25        6.8509    3.1569    4.4296 C.ar      2 RES2    0.0000
     54 H21        7.0136    2.6067    5.2172 H         2 RES2    0.0000
     55 C26        7.8848    3.6144    3.6475 C.ar      2 RES2    0.0000
     56 H22        8.7666    3.4696    3.8748 H         2 RES2    0.0000
     57 C27        7.6109    4.2696    2.4526 C.ar      2 RES2    0.0000
     58 C28        6.3015    4.4596    2.0401 C.ar      2 RES2    0.0000
     59 H23        6.1596    4.9619    1.1814 H         2 RES2    0.0000
     60 C29        5.2604    3.9927    2.8203 C.ar      2 RES2    0.0000
     61 H24        4.3485    4.0348    2.5433 H         2 RES2    0.0000
     62 C30        8.7211    4.7493    1.6646 C.1       2 RES2    0.0000
@<TRIPOS>BOND
     1    1    6 1
     2    2   35 3
     3    3    8 1
     4    4   62 3
     5    5    9 1
     6    7   36 1
     7    9   10 1
     8   11    9 1
     9   12    9 1
    10   13    5 1
    11   14   13 ar
    12   15   14 1
    13   16   14 ar
    14   17   16 1
    15   18   16 ar
    16   19   18 ar
    17   20   19 1
    18   21   13 ar
    19   22   21 1
    20   23    1 2
    21   24   23 1
    22   25    1 1
    23   26   25 ar
    24   27   26 1
    25   28   26 ar
    26   29   28 1
    27   30   28 ar
    28   31   30 ar
    29   32   31 1
    30   33   25 ar
    31   34   33 1
    32   35   30 1
    33   36   37 1
    34   38   36 1
    35   39   36 1
    36   40    7 1
    37   41   40 ar
    38   42   41 1
    39   43   41 ar
    40   44   43 1
    41   45   43 ar
    42   46   45 ar
    43   47   46 1
    44   48   40 ar
    45   49   48 1
    46   50    3 2
    47   51   50 1
    48   52    3 1
    49   53   52 ar
    50   54   53 1
    51   55   53 ar
    52   56   55 1
    53   57   55 ar
    54   58   57 ar
    55   59   58 1
    56   60   52 ar
    57   61   60 1
    58   62   57 1
    59   18   23 1
    60   19   21 ar
    61   31   33 ar
    62   45   50 1
    63   46   48 ar
    64   58   60 ar
@<TRIPOS>SUBSTRUCTURE
     1 RES1 1
     2 RES2 3

@<TRIPOS>CRYSIN
   7.5821    7.6130   22.2700  99.4690  96.9990  94.7900   2 1

