# MOL2 file generated by ConQuest
# Please check atom types

@<TRIPOS>MOLECULE
CUZWEZ
    28    28     1
SMALL
NO_CHARGES
****
Generated from CSD

@<TRIPOS>ATOM
      1 C1         1.0881    2.3974    7.8517 C.ar      1 RES1    0.0000
      2 C2         0.9369    3.2910    8.9478 C.ar      1 RES1    0.0000
      3 C3        -0.1420    4.1457    9.0923 C.ar      1 RES1    0.0000
      4 H1        -0.1994    4.7301    9.8391 H         1 RES1    0.0000
      5 C4        -1.1298    4.1333    8.1340 C.ar      1 RES1    0.0000
      6 C5        -1.0301    3.3184    7.0033 C.ar      1 RES1    0.0000
      7 H2        -1.7116    3.3237    6.3417 H         1 RES1    0.0000
      8 C6         0.0652    2.5147    6.8684 C.ar      1 RES1    0.0000
      9 C7         3.0200   -0.1894    6.4318 C.3       1 RES1    0.0000
     10 H3         3.3028    0.4551    5.7505 H         1 RES1    0.0000
     11 H4         2.8747   -1.0644    6.0130 H         1 RES1    0.0000
     12 H5         3.7152   -0.2665    7.1168 H         1 RES1    0.0000
     13 C8         1.2178   -0.7258    7.9850 C.3       1 RES1    0.0000
     14 H6         1.8830   -0.9349    8.6733 H         1 RES1    0.0000
     15 H7         0.9871   -1.5425    7.4951 H         1 RES1    0.0000
     16 H8         0.4131   -0.3608    8.4087 H         1 RES1    0.0000
     17 N1         2.0544    1.4658    7.7609 N.3       1 RES1    0.0000
     18 H9         2.8408    1.5950    8.1338 H         1 RES1    0.0000
     19 N2         1.8713    3.2453   10.0580 N.pl3     1 RES1    0.0000
     20 N3        -2.3026    4.9705    8.2973 N.pl3     1 RES1    0.0000
     21 N4         0.2072    1.8624    5.5514 N.pl3     1 RES1    0.0000
     22 N5         1.7742    0.2682    7.0494 N.3       1 RES1    0.0000
     23 O1         3.0115    2.8170    9.8509 O.2       1 RES1    0.0000
     24 O2         1.4882    3.6233   11.1637 O.2       1 RES1    0.0000
     25 O3        -2.3189    5.7624    9.2442 O.2       1 RES1    0.0000
     26 O4        -3.2246    4.8317    7.5021 O.2       1 RES1    0.0000
     27 O5         1.2425    2.0637    4.9309 O.2       1 RES1    0.0000
     28 O6        -0.7526    1.2343    5.1246 O.2       1 RES1    0.0000
@<TRIPOS>BOND
     1    1    2 ar
     2    2    3 ar
     3    3    4 1
     4    5    3 ar
     5    6    5 ar
     6    7    6 1
     7    8    1 ar
     8    9   10 1
     9   11    9 1
    10   12    9 1
    11   13   14 1
    12   15   13 1
    13   16   13 1
    14   17    1 1
    15   18   17 1
    16   19    2 1
    17   20    5 1
    18   21    8 1
    19   22    9 1
    20   23   19 2
    21   24   19 2
    22   25   20 2
    23   26   20 2
    24   27   21 2
    25   28   21 2
    26    6    8 ar
    27   13   22 1
    28   17   22 1
@<TRIPOS>SUBSTRUCTURE
     1 RES1 1

@<TRIPOS>CRYSIN
   6.5156    8.2006   20.6704  90.0000  90.0000  90.0000  19 1

