# MOL2 file generated by ConQuest
# Please check atom types

@<TRIPOS>MOLECULE
CUZXAX
    23    24     1
SMALL
NO_CHARGES
****
Generated from CSD

@<TRIPOS>ATOM
      1 C1         1.6333    5.2643    6.3737 C.3       1 RES1    0.0000
      2 H1         2.1453    4.4331    6.4586 H         1 RES1    0.0000
      3 H2         0.7147    5.1149    6.6817 H         1 RES1    0.0000
      4 H3         2.0513    5.9629    6.9188 H         1 RES1    0.0000
      5 O1         1.6156    5.6754    5.0037 O.3       1 RES1    0.0000
      6 C2         0.9342    4.7696    4.1830 C.3       1 RES1    0.0000
      7 O2         1.6897    3.5523    4.0121 O.3       1 RES1    0.0000
      8 C3         1.9540    3.4639    2.5847 C.3       1 RES1    0.0000
      9 C4         0.6608    4.0056    1.9845 C.3       1 RES1    0.0000
     10 C5         0.7647    5.3234    2.7647 C.3       1 RES1    0.0000
     11 C6         2.1582    5.8373    2.3369 C.3       1 RES1    0.0000
     12 C7         2.9832    4.5398    2.2177 C.3       1 RES1    0.0000
     13 N1         1.9878    6.5690    1.0215 N.pl3     1 RES1    0.0000
     14 O3         1.6535    7.7531    1.0966 O.2       1 RES1    0.0000
     15 O4         2.1435    5.9785   -0.0398 O.2       1 RES1    0.0000
     16 H4         0.0831    4.5559    4.6208 H         1 RES1    0.0000
     17 H5         2.2182    2.5249    2.3941 H         1 RES1    0.0000
     18 H6        -0.1215    3.5183    2.2500 H         1 RES1    0.0000
     19 H7         0.6776    4.1303    1.0382 H         1 RES1    0.0000
     20 H8         0.0384    5.9597    2.6575 H         1 RES1    0.0000
     21 H9         2.5378    6.4954    2.9457 H         1 RES1    0.0000
     22 H10        3.3432    4.4315    1.3016 H         1 RES1    0.0000
     23 H11        3.7523    4.5407    2.8295 H         1 RES1    0.0000
@<TRIPOS>BOND
     1    1    2 1
     2    3    1 1
     3    4    1 1
     4    5    1 1
     5    6    5 1
     6    7    6 1
     7    8    7 1
     8    9    8 1
     9   10    6 1
    10   11   10 1
    11   12    8 1
    12   13   11 1
    13   14   13 2
    14   15   13 2
    15   16    6 1
    16   17    8 1
    17   18    9 1
    18   19    9 1
    19   20   10 1
    20   21   11 1
    21   22   12 1
    22   23   12 1
    23    9   10 1
    24   11   12 1
@<TRIPOS>SUBSTRUCTURE
     1 RES1 1

@<TRIPOS>CRYSIN
   6.3924    8.0309   15.4956  90.0000  90.0000  90.0000  19 1

