# MOL2 file generated by ConQuest
# Please check atom types

@<TRIPOS>MOLECULE
CUZYIG
    58    61     1
SMALL
NO_CHARGES
****
Generated from CSD

@<TRIPOS>ATOM
      1 O1         4.3317    3.3748    2.2149 O.3       1 RES1    0.0000
      2 C1         5.7256    4.0663    0.4650 C.ar      1 RES1    0.0000
      3 C2         7.0883    4.9410   -1.2819 C.ar      1 RES1    0.0000
      4 C3         6.9173    4.6743    0.0645 C.ar      1 RES1    0.0000
      5 O2         6.4301    3.9808    2.7365 O.2       1 RES1    0.0000
      6 O3         8.4964    5.8403   -2.8765 O.2       1 RES1    0.0000
      7 C4         4.0763    3.0827    3.6178 C.3       1 RES1    0.0000
      8 C5         4.7567    3.7266   -0.4771 C.ar      1 RES1    0.0000
      9 C6         5.0083    4.0037   -1.8084 C.ar      1 RES1    0.0000
     10 C7         5.5577    3.8043    1.9294 C.2       1 RES1    0.0000
     11 N1         8.3407    5.6220   -1.6863 N.pl3     1 RES1    0.0000
     12 N2         3.9889    3.6198   -2.8059 N.pl3     1 RES1    0.0000
     13 C8         2.7097    2.4390    3.7075 C.3       1 RES1    0.0000
     14 C9         6.1696    4.6168   -2.2401 C.ar      1 RES1    0.0000
     15 O4         9.1415    5.9065   -0.8139 O.2       1 RES1    0.0000
     16 O5         4.2528    3.8201   -3.9839 O.2       1 RES1    0.0000
     17 O6         2.9579    3.1228   -2.3984 O.2       1 RES1    0.0000
     18 C10        2.6338    1.1219    2.9400 C.3       1 RES1    0.0000
     19 C11        0.8042    2.4949    9.4463 C.ar      1 RES1    0.0000
     20 C12        0.9165    2.9863    7.0893 C.ar      1 RES1    0.0000
     21 C13        1.2240    0.6452    2.6566 C.3       1 RES1    0.0000
     22 C14        2.3164    2.2286    5.1821 C.3       1 RES1    0.0000
     23 C15        1.4917    2.9903    8.3440 C.ar      1 RES1    0.0000
     24 C16        2.0891    1.1838    1.5351 C.3       1 RES1    0.0000
     25 C17       -0.3673    2.4656    6.9521 C.ar      1 RES1    0.0000
     26 C18        3.7052    0.0937    3.2638 C.3       1 RES1    0.0000
     27 C19       -0.4646    1.9673    9.2910 C.ar      1 RES1    0.0000
     28 C20        0.8735   -0.8357    2.7282 C.3       1 RES1    0.0000
     29 C21        1.6700    3.4376    5.8588 C.3       1 RES1    0.0000
     30 C22        3.3287   -1.3290    2.8926 C.3       1 RES1    0.0000
     31 C23       -1.0513    1.9622    8.0595 C.ar      1 RES1    0.0000
     32 C24        1.9523   -1.6820    3.3838 C.3       1 RES1    0.0000
     33 H1         2.0750    3.0716    3.2880 H         1 RES1    0.0000
     34 H2         3.8767    0.1471    4.2159 H         1 RES1    0.0000
     35 H3         0.5709    1.2178    2.9450 H         1 RES1    0.0000
     36 H4         1.9590    2.0870    1.1498 H         1 RES1    0.0000
     37 H5         1.0397    3.8275    5.2143 H         1 RES1    0.0000
     38 H6         4.7545    2.4896    3.9133 H         1 RES1    0.0000
     39 H7         7.4920    4.9309    0.7564 H         1 RES1    0.0000
     40 H8         4.0017    3.2675   -0.1815 H         1 RES1    0.0000
     41 H9         4.5035    0.3539    2.7635 H         1 RES1    0.0000
     42 H10        1.1748    2.4971   10.2875 H         1 RES1    0.0000
     43 H11        2.0065   -1.4629    4.5689 H         1 RES1    0.0000
     44 H12        0.6969   -1.2649    1.8054 H         1 RES1    0.0000
     45 H13        3.0485    1.8376    5.6985 H         1 RES1    0.0000
     46 H14        6.2259    4.7910   -3.0963 H         1 RES1    0.0000
     47 H15        4.1075    3.9339    4.1150 H         1 RES1    0.0000
     48 H16        1.7132    1.4393    5.1639 H         1 RES1    0.0000
     49 H17        2.4375    0.5415    0.8875 H         1 RES1    0.0000
     50 H18        1.6975   -2.6788    3.1871 H         1 RES1    0.0000
     51 H19       -0.8196    2.5308    6.0010 H         1 RES1    0.0000
     52 H20        3.9974   -1.9565    3.2274 H         1 RES1    0.0000
     53 H21        2.4224    3.2223    8.4620 H         1 RES1    0.0000
     54 H22        2.2236    4.0951    6.0716 H         1 RES1    0.0000
     55 H23       -0.8817    1.7063   10.0656 H         1 RES1    0.0000
     56 H24        0.0761   -0.9541    3.2073 H         1 RES1    0.0000
     57 H25       -1.8792    1.6307    7.9678 H         1 RES1    0.0000
     58 H26        3.3192   -1.3726    1.8760 H         1 RES1    0.0000
@<TRIPOS>BOND
     1    1    7 1
     2    2    4 ar
     3    3    4 ar
     4    4   39 1
     5    5   10 2
     6    6   11 2
     7    7   13 1
     8    8    2 ar
     9    9    8 ar
    10   10    1 1
    11   11    3 1
    12   12    9 1
    13   13   18 1
    14   14    3 ar
    15   15   11 2
    16   16   12 2
    17   17   12 2
    18   18   21 1
    19   19   23 ar
    20   20   23 ar
    21   21   24 1
    22   22   13 1
    23   23   53 1
    24   24   18 1
    25   25   20 ar
    26   26   18 1
    27   27   19 ar
    28   28   21 1
    29   29   20 1
    30   30   26 1
    31   31   25 ar
    32   32   28 1
    33   33   13 1
    34   34   26 1
    35   35   21 1
    36   36   24 1
    37   37   29 1
    38   38    7 1
    39   40    8 1
    40   41   26 1
    41   42   19 1
    42   43   32 1
    43   44   28 1
    44   45   22 1
    45   46   14 1
    46   47    7 1
    47   48   22 1
    48   49   24 1
    49   50   32 1
    50   51   25 1
    51   52   30 1
    52   54   29 1
    53   55   27 1
    54   56   28 1
    55   57   31 1
    56   58   30 1
    57    2   10 1
    58    9   14 ar
    59   22   29 1
    60   27   31 ar
    61   30   32 1
@<TRIPOS>SUBSTRUCTURE
     1 RES1 1

@<TRIPOS>CRYSIN
   6.7366    8.1325   10.3690  78.4180  82.6010  86.4310   1 1

