# MOL2 file generated by ConQuest
# Please check atom types

@<TRIPOS>MOLECULE
CXMPYO
    18    18     1
SMALL
NO_CHARGES
****
Generated from CSD

@<TRIPOS>ATOM
      1 C1         3.9332    4.6082    1.5588 C.ar      1 RES1    0.0000
      2 C2         3.6422    3.2619    1.5588 C.ar      1 RES1    0.0000
      3 C3         4.6657    2.3383    1.5588 C.ar      1 RES1    0.0000
      4 C4         5.9673    2.7767    1.5588 C.ar      1 RES1    0.0000
      5 C5         6.2711    4.1290    1.5588 C.ar      1 RES1    0.0000
      6 C6         7.6461    4.6935    1.5588 C.3       1 RES1    0.0000
      7 C7         2.8198    5.6267    1.5588 C.2       1 RES1    0.0000
      8 H1         2.6803    2.9905    1.5588 H         1 RES1    0.0000
      9 H2         4.4610    1.4532    1.5588 H         1 RES1    0.0000
     10 H3         6.7557    2.1498    1.5588 H         1 RES1    0.0000
     11 H4         7.7746    5.2724    0.7357 H         1 RES1    0.0000
     12 H5         8.2795    3.9393    1.5588 H         1 RES1    0.0000
     13 H6         4.1948    6.8457    1.5588 H         1 RES1    0.0000
     14 N1         5.2366    5.0082    1.5588 N.pl3     1 RES1    0.0000
     15 O1         5.5349    6.3161    1.5588 O.2       1 RES1    0.0000
     16 O2         1.6761    5.2640    1.5588 O.2       1 RES1    0.0000
     17 O3         3.1897    6.8793    1.5588 O.3       1 RES1    0.0000
     18 H4G        7.7746    5.2724    2.3818 H         1 RES1    0.0000
@<TRIPOS>BOND
     1    1    2 ar
     2    2    3 ar
     3    3    4 ar
     4    4    5 ar
     5    5    6 1
     6    6   11 1
     7    7    1 1
     8    8    2 1
     9    9    3 1
    10   10    4 1
    11   12    6 1
    12   13   17 1
    13   14    1 ar
    14   15   14 1
    15   16    7 2
    16   17    7 1
    17   18    6 1
    18    5   14 ar
@<TRIPOS>SUBSTRUCTURE
     1 RES1 1

@<TRIPOS>CRYSIN
   9.1790   12.0100    6.2350  90.0000  90.0000  90.0000  62 2

