# MOL2 file generated by ConQuest
# Please check atom types

@<TRIPOS>MOLECULE
CXPYRO10
    29    29     1
SMALL
NO_CHARGES
****
Generated from CSD

@<TRIPOS>ATOM
      1 C1         3.7023    1.3126    1.6497 C.3       1 RES1    0.0000
      2 C2         3.3626    3.7823    1.5319 C.3       1 RES1    0.0000
      3 C3         1.5863    2.5677    4.2905 C.3       1 RES1    0.0000
      4 C4         0.6641    2.8888    3.0812 C.3       1 RES1    0.0000
      5 C5         1.3606    2.2375    1.8978 C.3       1 RES1    0.0000
      6 C6         2.8603    2.4657    2.1198 C.3       1 RES1    0.0000
      7 C7         1.3711    1.1803    4.9008 C.3       1 RES1    0.0000
      8 C8         1.5701    3.6390    5.3573 C.3       1 RES1    0.0000
      9 C9        -0.7547    2.3920    3.2697 C.2       1 RES1    0.0000
     10 H1        -2.3143    2.8403    3.8651 H         1 RES1    0.0000
     11 H2         3.5001    0.5897    2.0591 H         1 RES1    0.0000
     12 H3         3.4702    1.2813    0.7095 H         1 RES1    0.0000
     13 H4         4.7353    1.6024    1.7192 H         1 RES1    0.0000
     14 H5         3.2963    3.6551    0.4726 H         1 RES1    0.0000
     15 H6         4.4942    4.0156    1.8891 H         1 RES1    0.0000
     16 H7         2.8716    4.5083    1.7738 H         1 RES1    0.0000
     17 H8         0.6479    3.8328    3.0018 H         1 RES1    0.0000
     18 H9         1.1187    1.3207    1.8891 H         1 RES1    0.0000
     19 H10        1.1430    2.6787    1.0854 H         1 RES1    0.0000
     20 H11        1.3776    0.5018    4.1727 H         1 RES1    0.0000
     21 H12        2.0214    0.8704    5.3995 H         1 RES1    0.0000
     22 H13        0.6536    1.1723    5.4280 H         1 RES1    0.0000
     23 H14        2.3369    3.3189    5.9279 H         1 RES1    0.0000
     24 H15        0.7806    3.7278    5.7951 H         1 RES1    0.0000
     25 H16        1.7949    4.5356    4.9579 H         1 RES1    0.0000
     26 N1         2.9007    2.5677    3.5947 N.3       1 RES1    0.0000
     27 O1        -1.1268    1.2954    3.0092 O.2       1 RES1    0.0000
     28 O2        -1.5458    3.2674    3.8279 O.3       1 RES1    0.0000
     29 O3         3.9879    2.5788    4.2558 O.2       1 RES1    0.0000
@<TRIPOS>BOND
     1    1    6 1
     2    2    6 1
     3    3    4 1
     4    4    5 1
     5    5    6 1
     6    6   26 1
     7    7    3 1
     8    8    3 1
     9    9    4 1
    10   10   28 1
    11   11    1 1
    12   12    1 1
    13   13    1 1
    14   14    2 1
    15   15    2 1
    16   16    2 1
    17   17    4 1
    18   18    5 1
    19   19    5 1
    20   20    7 1
    21   21    7 1
    22   22    7 1
    23   23    8 1
    24   24    8 1
    25   25    8 1
    26   26    3 1
    27   27    9 2
    28   28    9 1
    29   29   26 1
@<TRIPOS>SUBSTRUCTURE
     1 RES1 1

@<TRIPOS>CRYSIN
   8.0890   10.0970   12.4040  90.0000  90.0000  90.0000  19 1

