# MOL2 file generated by ConQuest
# Please check atom types

@<TRIPOS>MOLECULE
CYNONA
    27    27     1
SMALL
NO_CHARGES
****
Generated from CSD

@<TRIPOS>ATOM
      1 O1         3.1198    0.3951   10.8164 O.3       1 RES1    0.0000
      2 N1         3.5093    1.7554   11.0614 N.2       1 RES1    0.0000
      3 C1         4.5422    2.1477   10.4419 C.2       1 RES1    0.0000
      4 C2         4.9634    3.5750   10.6286 C.3       1 RES1    0.0000
      5 C3         5.2893    4.3528    9.4039 C.3       1 RES1    0.0000
      6 C4         4.0554    4.7453    8.5942 C.3       1 RES1    0.0000
      7 C5         3.1949    3.6876    7.9747 C.3       1 RES1    0.0000
      8 C6         3.6759    2.8757    6.8891 C.3       1 RES1    0.0000
      9 C7         4.8829    1.8793    7.1008 C.3       1 RES1    0.0000
     10 C8         4.7516    0.8941    8.1376 C.3       1 RES1    0.0000
     11 C9         5.3698    1.1994    9.6084 C.3       1 RES1    0.0000
     12 H1         5.7752    3.5646   11.2124 H         1 RES1    0.0000
     13 H2         4.2179    4.0423   11.1054 H         1 RES1    0.0000
     14 H3         5.9034    3.8026    8.8581 H         1 RES1    0.0000
     15 H4         5.7631    5.1857    9.7142 H         1 RES1    0.0000
     16 H5         4.3972    5.3146    7.8356 H         1 RES1    0.0000
     17 H6         3.4715    5.2886    9.1792 H         1 RES1    0.0000
     18 H7         2.3617    4.1232    7.6335 H         1 RES1    0.0000
     19 H8         2.9537    3.0292    8.7036 H         1 RES1    0.0000
     20 H9         3.9424    3.5173    6.1710 H         1 RES1    0.0000
     21 H10        2.8965    2.3268    6.5752 H         1 RES1    0.0000
     22 H11        5.6952    2.4295    7.3005 H         1 RES1    0.0000
     23 H12        5.0203    1.3960    6.2304 H         1 RES1    0.0000
     24 H13        5.1737    0.0440    7.7999 H         1 RES1    0.0000
     25 H14        3.7604    0.7242    8.2517 H         1 RES1    0.0000
     26 H15        6.2672    1.6028    9.4883 H         1 RES1    0.0000
     27 H16        5.4472    0.3381   10.1066 H         1 RES1    0.0000
@<TRIPOS>BOND
     1    1    2 1
     2    2    3 2
     3    3    4 1
     4    4    5 1
     5    5    6 1
     6    6    7 1
     7    7    8 1
     8    8    9 1
     9    9   10 1
    10   10   11 1
    11   11    3 1
    12   12    4 1
    13   13    4 1
    14   14    5 1
    15   15    5 1
    16   16    6 1
    17   17    6 1
    18   18    7 1
    19   19    7 1
    20   20    8 1
    21   21    8 1
    22   22    9 1
    23   23    9 1
    24   24   10 1
    25   25   10 1
    26   26   11 1
    27   27   11 1
@<TRIPOS>SUBSTRUCTURE
     1 RES1 1

@<TRIPOS>CRYSIN
   5.6330    7.2170   12.1800  81.1400  78.9400  72.5500   2 1

