# MOL2 file generated by ConQuest
# Please check atom types

@<TRIPOS>MOLECULE
CYNOAZ10
    23    24     1
SMALL
NO_CHARGES
****
Generated from CSD

@<TRIPOS>ATOM
      1 C1         3.6726   -1.6897   -0.6476 C.3       1 RES1    0.0000
      2 C2         2.8378   -2.6912    0.1624 C.3       1 RES1    0.0000
      3 C3         1.8001   -2.0388    1.0121 C.2       1 RES1    0.0000
      4 C4         2.2166   -0.8001    1.7389 C.3       1 RES1    0.0000
      5 C5         3.0480    0.1499    0.8662 C.3       1 RES1    0.0000
      6 C6         2.2453    0.8146   -0.2350 C.3       1 RES1    0.0000
      7 C7         1.7754   -0.1723   -1.2940 C.3       1 RES1    0.0000
      8 C8         2.9113   -1.0485   -1.7884 C.3       1 RES1    0.0000
      9 H1         3.4920    0.8840    1.3666 H         1 RES1    0.0000
     10 H2         1.2400    0.2350   -2.0202 H         1 RES1    0.0000
     11 H3         3.5849   -0.5036   -2.3569 H         1 RES1    0.0000
     12 H4         2.5677   -1.7680   -2.3371 H         1 RES1    0.0000
     13 H5         4.5032   -2.0813   -1.0035 H         1 RES1    0.0000
     14 H6         3.4701   -3.1556    0.8186 H         1 RES1    0.0000
     15 H7         2.4098   -3.3794   -0.4423 H         1 RES1    0.0000
     16 H8         2.7945   -1.0854    2.4559 H         1 RES1    0.0000
     17 H9         1.4145   -0.3469    2.0598 H         1 RES1    0.0000
     18 H10        1.5477    1.3428    0.1518 H         1 RES1    0.0000
     19 H11        2.7324    1.4883   -0.6206 H         1 RES1    0.0000
     20 H12        1.0250   -0.6938   -0.9309 H         1 RES1    0.0000
     21 N1         4.1275   -0.6300    0.2654 N.3       1 RES1    0.0000
     22 O1         5.1745   -0.8650    0.9777 O.2       1 RES1    0.0000
     23 O2         0.6797   -2.5122    1.1302 O.2       1 RES1    0.0000
@<TRIPOS>BOND
     1    1    2 1
     2    2    3 1
     3    3    4 1
     4    4    5 1
     5    5    6 1
     6    6    7 1
     7    7    8 1
     8    8    1 1
     9    9    5 1
    10   10    7 1
    11   11    8 1
    12   12    8 1
    13   13    1 1
    14   14    2 1
    15   15    2 1
    16   16    4 1
    17   17    4 1
    18   18    6 1
    19   19    6 1
    20   20    7 1
    21   21    1 1
    22   22   21 1
    23   23    3 2
    24    5   21 1
@<TRIPOS>SUBSTRUCTURE
     1 RES1 1

@<TRIPOS>CRYSIN
  10.4900   11.1900   15.3800  90.0000 154.5800  90.0000  14 1

