# MOL2 file generated by ConQuest
# Please check atom types

@<TRIPOS>MOLECULE
CYPYRO01
    13    13     1
SMALL
NO_CHARGES
****
Generated from CSD

@<TRIPOS>ATOM
      1 N1         4.5799    1.2189   10.6425 N.pl3     1 RES1    0.0000
      2 O1         3.9446    2.1198    9.9537 O.2       1 RES1    0.0000
      3 C1         5.5468    0.5137   12.6826 C.ar      1 RES1    0.0000
      4 H1         5.7412    0.6803   13.5767 H         1 RES1    0.0000
      5 C2         6.6897   -1.6466   12.8431 C.1       1 RES1    0.0000
      6 N2         7.2809   -2.4324   13.4300 N.1       1 RES1    0.0000
      7 C3         5.9535   -0.6712   12.0934 C.ar      1 RES1    0.0000
      8 C4         5.6476   -0.8912   10.7626 C.ar      1 RES1    0.0000
      9 H2         5.9099   -1.6812   10.3484 H         1 RES1    0.0000
     10 C5         4.8603    1.4400   11.9465 C.ar      1 RES1    0.0000
     11 H3         4.5827    2.2312   12.3484 H         1 RES1    0.0000
     12 C6         4.9568    0.0569   10.0582 C.ar      1 RES1    0.0000
     13 H4         4.7442   -0.0981    9.1666 H         1 RES1    0.0000
@<TRIPOS>BOND
     1    1    2 1
     2    3    4 1
     3    5    6 3
     4    7    3 ar
     5    8    7 ar
     6    9    8 1
     7   10    1 ar
     8   11   10 1
     9   12    1 ar
    10   13   12 1
    11    3   10 ar
    12    5    7 1
    13    8   12 ar
@<TRIPOS>SUBSTRUCTURE
     1 RES1 1

@<TRIPOS>CRYSIN
   7.8743    6.0582   11.6278  90.0000  91.9730  90.0000  14 1

