# MOL2 file generated by ConQuest
# Please check atom types

@<TRIPOS>MOLECULE
DABDUG
    87    78     4
SMALL
NO_CHARGES
****
Generated from CSD

@<TRIPOS>ATOM
      1 O1         3.0284    1.3650    3.0892 O.3       1 RES1    0.0000
      2 N1        -0.6313    3.0944   -0.8145 N.pl3     1 RES1    0.0000
      3 H1        -0.7242    3.6826   -1.5629 H         1 RES1    0.0000
      4 C1        -2.9350    2.1469   -0.8437 C.3       1 RES1    0.0000
      5 H2        -2.9903    2.6351   -1.6689 H         1 RES1    0.0000
      6 H3        -3.5522    2.5205   -0.2093 H         1 RES1    0.0000
      7 H4        -3.1553    1.2258   -1.0013 H         1 RES1    0.0000
      8 N2         0.5596    3.0419   -0.1764 N.2       1 RES1    0.0000
      9 C2        -1.5564    2.2399   -0.3050 C.2       1 RES1    0.0000
     10 N3         2.5117    2.0230    1.9310 N.2       1 RES1    0.0000
     11 C3        -0.9351    1.5824    0.7294 C.2       1 RES1    0.0000
     12 C4         0.3677    2.1051    0.7639 C.2       1 RES1    0.0000
     13 C5        -1.4437    0.5553    1.7039 C.3       1 RES1    0.0000
     14 H5        -2.2341    0.8257    2.1193 H         1 RES1    0.0000
     15 H6        -1.6830   -0.3262    1.2451 H         1 RES1    0.0000
     16 C6        -0.5980    0.5173    2.9034 Du        4 SUP4    0.0000
     17 H7        -0.8484   -0.2498    3.4425 Du        4 SUP4    0.0000
     18 H8        -0.7609    1.3150    3.4305 Du        4 SUP4    0.0000
     19 C7        -0.2792   -0.0306    2.5457 C.3       1 RES1    0.0000
     20 H9        -0.6511   -0.4740    3.3246 H         1 RES1    0.0000
     21 H10        0.1794   -0.7034    2.0173 H         1 RES1    0.0000
     22 C8         0.8947    0.4307    2.5775 Du        4 SUP4    0.0000
     23 H11        1.0626   -0.3695    2.0398 Du        4 SUP4    0.0000
     24 C9         0.7209    0.9837    3.0054 C.3       1 RES1    0.0000
     25 H12        0.2761    1.6489    3.5723 H         1 RES1    0.0000
     26 C10        1.3050    1.6721    1.7761 C.2       1 RES1    0.0000
     27 C11        1.9650    0.5535    3.6411 C.3       1 RES1    0.0000
     28 H13        2.3003   -0.2472    3.8809 H         1 RES1    0.0000
     29 H14        1.7934    0.8002    4.4769 H         1 RES1    0.0000
     30 O2         0.8295   11.1991   -0.5292 O.3       2 RES2    0.0000
     31 N4         1.0212    5.7639    0.8327 N.pl3     2 RES2    0.0000
     32 H15        0.9842    4.8931    0.5033 H         2 RES2    0.0000
     33 C12        1.5161    5.0906    3.1875 C.3       2 RES2    0.0000
     34 H16        0.9819    4.3121    3.0160 H         2 RES2    0.0000
     35 H17        1.2791    5.4589    4.0411 H         2 RES2    0.0000
     36 H18        2.4450    4.8472    3.1895 H         2 RES2    0.0000
     37 N5         0.8343    6.8244    0.0143 N.2       2 RES2    0.0000
     38 C13        1.2697    6.1088    2.1187 C.2       2 RES2    0.0000
     39 N6         0.7765    9.7799   -0.6566 N.2       2 RES2    0.0000
     40 C14        1.2536    7.4834    2.1590 C.2       2 RES2    0.0000
     41 C15        0.9843    7.8685    0.8350 C.2       2 RES2    0.0000
     42 C16        1.4602    8.4534    3.2832 C.3       2 RES2    0.0000
     43 C17        1.6809    9.9471    2.7616 Du        4 SUP4    0.0000
     44 H19        1.5059   10.5584    3.4954 Du        4 SUP4    0.0000
     45 H20        2.6114   10.0513    2.5100 Du        4 SUP4    0.0000
     46 C18        0.8196   10.3439    1.5921 Du        4 SUP4    0.0000
     47 H21       -0.1111   10.3469    1.8994 Du        4 SUP4    0.0000
     48 C19        1.4345   10.2228    1.5643 C.3       2 RES2    0.0000
     49 H22        2.4136   10.1889    1.5550 H         2 RES2    0.0000
     50 C20        0.9725    9.7572    2.9458 C.3       2 RES2    0.0000
     51 H23        1.2786   10.3928    3.6120 H         2 RES2    0.0000
     52 H24        0.0026    9.7480    2.9683 H         2 RES2    0.0000
     53 C21        0.9387    9.2763    0.4853 C.2       2 RES2    0.0000
     54 C22        1.0202   11.4973    0.8755 C.3       2 RES2    0.0000
     55 N7         5.9474    6.3361    4.0185 N.pl3     3 RES3    0.0000
     56 H25        6.3002    6.1139    4.8080 H         3 RES3    0.0000
     57 C23        5.7035    4.0465    3.0650 C.3       3 RES3    0.0000
     58 H26        6.1262    3.7871    3.8875 H         3 RES3    0.0000
     59 H27        6.2102    3.7055    2.3246 H         3 RES3    0.0000
     60 H28        4.8138    3.6877    3.0358 H         3 RES3    0.0000
     61 N8         5.8136    7.6519    3.7381 N.2       3 RES3    0.0000
     62 C24        5.6442    5.5241    2.9838 C.2       3 RES3    0.0000
     63 N9         5.1825   10.0148    1.9382 N.2       3 RES3    0.0000
     64 C25        5.2873    6.3572    1.9457 C.2       3 RES3    0.0000
     65 C26        5.4036    7.6503    2.4655 C.2       3 RES3    0.0000
     66 C27        4.9142    6.0524    0.5213 C.3       3 RES3    0.0000
     67 C28        5.1140    7.4544   -0.3245 Du        4 SUP4    0.0000
     68 H29        6.0636    7.6226   -0.4291 Du        4 SUP4    0.0000
     69 H30        4.7365    7.3397   -1.2106 Du        4 SUP4    0.0000
     70 C29        4.4967    8.6259    0.3020 Du        4 SUP4    0.0000
     71 H31        3.5338    8.4840    0.4159 Du        4 SUP4    0.0000
     72 C30        4.4501    7.1274   -0.1960 C.3       3 RES3    0.0000
     73 H32        3.5194    7.2760    0.0318 H         3 RES3    0.0000
     74 H33        4.4902    6.9115   -1.1417 H         3 RES3    0.0000
     75 C31        5.2338    8.4274    0.0477 C.3       3 RES3    0.0000
     76 H34        6.1682    8.3107   -0.2212 H         3 RES3    0.0000
     77 C32        5.1524    8.7964    1.6216 C.2       3 RES3    0.0000
     78 C33        4.7390    9.8663   -0.3431 C.3       3 RES3    0.0000
     79 O3         4.9092   10.7860    0.7637 O.3       3 RES3    0.0000
     80 H35        2.4119    8.4406    3.6160 H         2 RES2    0.0000
     81 H36        5.6087    5.4895    0.0795 H         3 RES3    0.0000
     82 H37        1.0966    8.1679    4.0133 H         2 RES2    0.0000
     83 H38        5.2841   10.1252   -1.0066 H         3 RES3    0.0000
     84 H39        4.1076    5.6296    0.5166 H         3 RES3    0.0000
     85 H40        3.8208    9.9774   -0.6888 H         3 RES3    0.0000
     86 H41       -0.0879   11.7511    1.2186 H         2 RES2    0.0000
     87 H42        1.1257   12.2455    1.0331 H         2 RES2    0.0000
@<TRIPOS>BOND
     1    1   10 1
     2    2    3 1
     3    4    5 1
     4    6    4 1
     5    7    4 1
     6    8    2 1
     7    9    2 1
     8   10   26 2
     9   11    9 2
    10   12    8 2
    11   13   11 1
    12   14   13 1
    13   15   13 1
    14   19   13 1
    15   20   19 1
    16   21   19 1
    17   24   19 1
    18   25   24 1
    19   26   12 1
    20   27    1 1
    21   28   27 1
    22   29   27 1
    23   30   39 1
    24   31   32 1
    25   33   34 1
    26   35   33 1
    27   36   33 1
    28   37   31 1
    29   38   31 1
    30   39   53 2
    31   40   38 2
    32   41   37 2
    33   42   40 1
    34   48   49 1
    35   50   42 1
    36   51   50 1
    37   52   50 1
    38   53   41 1
    39   54   30 1
    40   55   56 1
    41   57   58 1
    42   59   57 1
    43   60   57 1
    44   61   55 1
    45   62   55 1
    46   63   77 2
    47   64   62 2
    48   65   61 2
    49   66   64 1
    50   72   66 1
    51   73   72 1
    52   74   72 1
    53   75   72 1
    54   76   75 1
    55   77   65 1
    56   78   75 1
    57   79   63 1
    58   80   42 1
    59   81   66 1
    60   82   42 1
    61   83   78 1
    62   84   66 1
    63   85   78 1
    64   86   54 1
    65   87   54 1
    66    4    9 1
    67   11   12 1
    68   24   26 1
    69   24   27 1
    70   33   38 1
    71   40   41 1
    72   48   50 1
    73   48   53 1
    74   48   54 1
    75   57   62 1
    76   64   65 1
    77   75   77 1
    78   78   79 1
@<TRIPOS>SUBSTRUCTURE
     1 RES1 1
     2 RES2 30
     3 RES3 55
     4 SUP4 16

@<TRIPOS>CRYSIN
   7.7566   25.4850   13.4743  90.0000 100.5780  90.0000  14 1

