# MOL2 file generated by ConQuest
# Please check atom types

@<TRIPOS>MOLECULE
DABFAO
    64    58     3
SMALL
NO_CHARGES
****
Generated from CSD

@<TRIPOS>ATOM
      1 O1        -0.1050    2.4181    6.3178 O.3       1 RES1    0.0000
      2 N1         0.7712    3.2045    1.9984 N.pl3     1 RES1    0.0000
      3 C1        -0.4164    4.0432    2.0275 C.3       1 RES1    0.0000
      4 H1        -0.5966    4.3724    1.1458 H         1 RES1    0.0000
      5 H2        -0.2717    4.7832    2.6212 H         1 RES1    0.0000
      6 H3        -1.1645    3.5276    2.3364 H         1 RES1    0.0000
      7 N2         1.5061    3.0813    0.8712 N.2       1 RES1    0.0000
      8 C2         3.5667    1.9237    0.1728 C.3       1 RES1    0.0000
      9 H4         3.2766    2.2148   -0.6945 H         1 RES1    0.0000
     10 H5         3.6943    0.9725    0.1664 H         1 RES1    0.0000
     11 H6         4.3947    2.3550    0.3969 H         1 RES1    0.0000
     12 N3        -0.1212    2.8466    4.9547 N.2       1 RES1    0.0000
     13 C3         2.5265    2.2811    1.1938 C.2       1 RES1    0.0000
     14 C4         2.4599    1.8836    2.5322 C.2       1 RES1    0.0000
     15 C5         1.3160    2.4969    3.0114 C.2       1 RES1    0.0000
     16 C6         3.3492    1.0165    3.3733 C.3       1 RES1    0.0000
     17 H7         3.3353    0.1608    3.0661 H         1 RES1    0.0000
     18 H8         4.2650    1.3664    3.3477 H         1 RES1    0.0000
     19 C7         3.0349    1.2244    4.8670 C.3       1 RES1    0.0000
     20 H9         3.4582    0.5171    5.3800 H         1 RES1    0.0000
     21 H10        3.4172    2.0674    5.1560 H         1 RES1    0.0000
     22 C8         1.5455    1.2280    5.1726 C.3       1 RES1    0.0000
     23 H11        1.1523    0.3670    4.9224 H         1 RES1    0.0000
     24 C9         0.8907    2.3481    4.3764 C.2       1 RES1    0.0000
     25 C10        1.0859    1.6209    6.5316 C.3       1 RES1    0.0000
     26 H12        0.7905    0.8038    6.9515 H         1 RES1    0.0000
     27 H13        1.6246    2.0451    7.2427 H         1 RES1    0.0000
     28 O2         9.9164    3.7572    8.1747 O.3       2 RES2    0.0000
     29 N4         7.0284    2.6835    4.9422 N.pl3     2 RES2    0.0000
     30 C11        6.4233    1.8048    5.9260 C.3       2 RES2    0.0000
     31 H14        6.2842    0.9377    5.5369 H         2 RES2    0.0000
     32 H15        5.5811    2.1692    6.2058 H         2 RES2    0.0000
     33 H16        7.0050    1.7254    6.6858 H         2 RES2    0.0000
     34 N5         6.5736    2.7053    3.6697 N.2       2 RES2    0.0000
     35 C12        7.1081    3.8750    1.5766 C.3       2 RES2    0.0000
     36 H17        6.1709    4.0223    1.4338 H         2 RES2    0.0000
     37 H18        7.4010    3.1329    1.0434 H         2 RES2    0.0000
     38 H19        7.5976    4.6627    1.3250 H         2 RES2    0.0000
     39 N6         8.8390    3.2445    7.3944 N.2       2 RES2    0.0000
     40 C13        7.3510    3.5759    3.0197 C.2       2 RES2    0.0000
     41 C14        8.3190    4.1205    3.8694 C.2       2 RES2    0.0000
     42 C15        8.0720    3.5343    5.0965 C.2       2 RES2    0.0000
     43 C16        9.4547    5.0770    3.6460 C.3       2 RES2    0.0000
     44 C17        8.8884    3.7996    6.2515 C.2       2 RES2    0.0000
     45 C18       10.7827    4.5126    7.2959 C.3       2 RES2    0.0000
     46 H20        9.8270    4.9386    2.8068 H         2 RES2    0.0000
     47 H21       11.5704    3.8937    7.0891 H         2 RES2    0.0000
     48 H22        9.1567    6.0371    3.5974 H         2 RES2    0.0000
     49 H23       11.1458    5.2780    7.7708 H         2 RES2    0.0000
     50 C19       10.5301    4.9074    4.7217 C.3       2 RES2    0.0000
     51 H24       11.0011    4.0724    4.5767 H         2 RES2    0.0000
     52 H25       11.1731    5.6299    4.6503 H         2 RES2    0.0000
     53 C20        9.9222    4.9074    6.1216 C.3       2 RES2    0.0000
     54 H26        9.5007    5.7745    6.2986 H         2 RES2    0.0000
     55 C21        2.7059    0.6582    4.6676 Du        3 SUP3    0.0000
     56 H27        3.3803    0.3045    5.2680 Du        3 SUP3    0.0000
     57 H28        2.0506   -0.0402    4.5127 Du        3 SUP3    0.0000
     58 C22        2.0137    1.8585    5.3391 Du        3 SUP3    0.0000
     59 H29        2.6554    2.5756    5.5273 Du        3 SUP3    0.0000
     60 C23       10.1246    5.3914    4.8904 Du        3 SUP3    0.0000
     61 H30        9.6113    6.0773    5.3448 Du        3 SUP3    0.0000
     62 H31       10.9915    5.7710    4.6791 Du        3 SUP3    0.0000
     63 C24       10.3362    4.2331    5.8633 Du        3 SUP3    0.0000
     64 H32       10.8441    3.4990    5.4569 Du        3 SUP3    0.0000
@<TRIPOS>BOND
     1    1   12 1
     2    2    3 1
     3    3    4 1
     4    5    3 1
     5    6    3 1
     6    7    2 1
     7    8    9 1
     8   10    8 1
     9   11    8 1
    10   12   24 2
    11   13    7 2
    12   14   13 1
    13   15    2 1
    14   16   14 1
    15   17   16 1
    16   18   16 1
    17   19   16 1
    18   20   19 1
    19   21   19 1
    20   22   19 1
    21   23   22 1
    22   24   15 1
    23   25    1 1
    24   26   25 1
    25   27   25 1
    26   28   39 1
    27   29   30 1
    28   30   31 1
    29   32   30 1
    30   33   30 1
    31   34   29 1
    32   35   36 1
    33   37   35 1
    34   38   35 1
    35   39   44 2
    36   40   34 2
    37   41   40 1
    38   42   29 1
    39   43   41 1
    40   44   42 1
    41   45   28 1
    42   46   43 1
    43   47   45 1
    44   48   43 1
    45   49   45 1
    46   50   43 1
    47   51   50 1
    48   52   50 1
    49   53   44 1
    50   54   53 1
    51    8   13 1
    52   14   15 2
    53   22   24 1
    54   22   25 1
    55   35   40 1
    56   41   42 2
    57   45   53 1
    58   50   53 1
@<TRIPOS>SUBSTRUCTURE
     1 RES1 1
     2 RES2 28
     3 SUP3 55

@<TRIPOS>CRYSIN
  13.6524    8.9306   32.0050  90.0000  90.0000  90.0000  60 1

