# MOL2 file generated by ConQuest
# Please check atom types

@<TRIPOS>MOLECULE
DABFES
    41    38     2
SMALL
NO_CHARGES
****
Generated from CSD

@<TRIPOS>ATOM
      1 N1        -0.0688    2.3777    0.3164 N.pl3     1 RES1    0.0000
      2 O1         1.3607    4.8999    3.7283 O.3       1 RES1    0.0000
      3 C1         1.2153    1.6980    0.4009 C.3       1 RES1    0.0000
      4 H1         1.0704    0.7480    0.5938 H         1 RES1    0.0000
      5 H2         1.7503    2.0994    1.1169 H         1 RES1    0.0000
      6 H3         1.6899    1.7894   -0.4510 H         1 RES1    0.0000
      7 N2        -1.0099    1.9407   -0.5566 N.2       1 RES1    0.0000
      8 N3         1.1876    3.9339    2.6951 N.2       1 RES1    0.0000
      9 C2        -2.0532    2.7778   -0.4305 C.2       1 RES1    0.0000
     10 C3        -1.7613    3.7870    0.5219 C.2       1 RES1    0.0000
     11 C4        -0.4961    3.4791    0.9847 C.2       1 RES1    0.0000
     12 C5        -2.5358    4.9801    1.0310 C.3       1 RES1    0.0000
     13 C6        -1.9589    5.5232    2.3642 C.3       1 RES1    0.0000
     14 H4        -2.3359    6.4220    2.5369 H         1 RES1    0.0000
     15 H5        -2.2441    4.9302    3.1046 H         1 RES1    0.0000
     16 C7        -0.4361    5.6147    2.3580 C.3       1 RES1    0.0000
     17 H6        -0.1226    6.2764    1.6759 H         1 RES1    0.0000
     18 C8        -1.6967    5.8342    1.8983 Du        2 SUP2    0.0000
     19 H7        -2.2851    6.4470    2.4064 Du        2 SUP2    0.0000
     20 H8        -1.1079    6.3877    1.3256 Du        2 SUP2    0.0000
     21 C9        -0.8436    5.0654    2.8698 Du        2 SUP2    0.0000
     22 H9        -1.4028    4.5026    3.4785 Du        2 SUP2    0.0000
     23 C10        0.1317    4.2094    2.0572 C.2       1 RES1    0.0000
     24 C11        0.2496    5.8342    3.6601 C.3       1 RES1    0.0000
     25 C12       -3.3468    2.5148   -1.1798 C.3       1 RES1    0.0000
     26 C13       -3.1579    1.4117   -2.2061 C.3       1 RES1    0.0000
     27 H10       -2.4315    1.6552   -2.8176 H         1 RES1    0.0000
     28 H11       -3.9867    1.2942   -2.7158 H         1 RES1    0.0000
     29 H12       -2.9342    0.5743   -1.7480 H         1 RES1    0.0000
     30 C14       -3.8049    3.7764   -1.9221 C.3       1 RES1    0.0000
     31 H13       -3.1305    4.0282   -2.5865 H         1 RES1    0.0000
     32 H14       -3.9203    4.5088   -1.2809 H         1 RES1    0.0000
     33 H15       -4.6571    3.5996   -2.3716 H         1 RES1    0.0000
     34 C15       -4.4268    2.1077   -0.1765 C.3       1 RES1    0.0000
     35 H16       -4.1450    1.2963    0.2957 H         1 RES1    0.0000
     36 H17       -5.2659    1.9340   -0.6522 H         1 RES1    0.0000
     37 H18       -4.5610    2.8318    0.4696 H         1 RES1    0.0000
     38 H19       -3.4185    4.7419    1.2635 H         1 RES1    0.0000
     39 H20       -2.5816    5.7531    0.3069 H         1 RES1    0.0000
     40 H21       -0.2245    5.7739    4.4600 H         1 RES1    0.0000
     41 H22        0.6041    6.7414    3.6028 H         1 RES1    0.0000
@<TRIPOS>BOND
     1    1    3 1
     2    2    8 1
     3    3    4 1
     4    5    3 1
     5    6    3 1
     6    7    1 1
     7    8   23 2
     8    9    7 2
     9   10    9 1
    10   11    1 1
    11   12   10 1
    12   13   12 1
    13   14   13 1
    14   15   13 1
    15   16   13 1
    16   17   16 1
    17   23   11 1
    18   24    2 1
    19   25    9 1
    20   26   25 1
    21   27   26 1
    22   28   26 1
    23   29   26 1
    24   30   25 1
    25   31   30 1
    26   32   30 1
    27   33   30 1
    28   34   25 1
    29   35   34 1
    30   36   34 1
    31   37   34 1
    32   38   12 1
    33   39   12 1
    34   40   24 1
    35   41   24 1
    36   10   11 2
    37   16   24 1
    38   16   23 1
@<TRIPOS>SUBSTRUCTURE
     1 RES1 1
     2 SUP2 18

@<TRIPOS>CRYSIN
   9.6755   10.4034   12.8949  90.0000 105.5420  90.0000  14 1

