# MOL2 file generated by ConQuest
# Please check atom types

@<TRIPOS>MOLECULE
DABQEF
    65    70     1
SMALL
NO_CHARGES
****
Generated from CSD

@<TRIPOS>ATOM
      1 C1         3.4959    1.2276   -1.6761 C.2       1 RES1    0.0000
      2 C2         2.9405    1.3375   -0.3379 C.2       1 RES1    0.0000
      3 C3         1.6026    1.4020   -0.2112 C.2       1 RES1    0.0000
      4 C4         0.6245    1.1384   -1.3031 C.3       1 RES1    0.0000
      5 H1         0.1848    1.9699   -1.5407 H         1 RES1    0.0000
      6 H2        -0.0547    0.5273   -0.9775 H         1 RES1    0.0000
      7 C5         1.2661    0.5476   -2.5399 C.3       1 RES1    0.0000
      8 H3         1.4814   -0.3786   -2.3036 H         1 RES1    0.0000
      9 C6         2.5573    1.1789   -2.8438 C.3       1 RES1    0.0000
     10 H4         2.3976    2.0834   -3.1536 H         1 RES1    0.0000
     11 H5         2.9817    0.6909   -3.5659 H         1 RES1    0.0000
     12 C7         0.2997    0.4489   -3.7068 C.ar      1 RES1    0.0000
     13 C8         0.4406    1.1776   -4.8656 C.ar      1 RES1    0.0000
     14 H6         1.1252    1.8022   -4.9387 H         1 RES1    0.0000
     15 C9        -0.4334    0.9856   -5.9239 C.ar      1 RES1    0.0000
     16 H7        -0.3275    1.4831   -6.7026 H         1 RES1    0.0000
     17 C10       -1.4384    0.0825   -5.8376 C.ar      1 RES1    0.0000
     18 H8        -2.0171   -0.0446   -6.5538 H         1 RES1    0.0000
     19 C11       -1.5954   -0.6354   -4.6922 C.ar      1 RES1    0.0000
     20 H9        -2.2845   -1.2560   -4.6242 H         1 RES1    0.0000
     21 C12       -0.7322   -0.4448   -3.6339 C.ar      1 RES1    0.0000
     22 H10       -0.8542   -0.9356   -2.8519 H         1 RES1    0.0000
     23 C13        3.9015    1.5034    0.8277 C.3       1 RES1    0.0000
     24 H11        4.3941    2.3403    0.6992 H         1 RES1    0.0000
     25 C14        3.1073    1.6156    2.1311 C.3       1 RES1    0.0000
     26 H12        2.8561    0.7098    2.4077 H         1 RES1    0.0000
     27 C15        3.8790    2.2565    3.2814 C.2       1 RES1    0.0000
     28 C16        3.0912    2.3890    4.5588 C.3       1 RES1    0.0000
     29 H13        3.6251    2.8622    5.2171 H         1 RES1    0.0000
     30 H14        2.8983    1.5061    4.9090 H         1 RES1    0.0000
     31 C17        1.7784    3.1434    4.3367 C.3       1 RES1    0.0000
     32 H15        2.0091    4.0506    4.0483 H         1 RES1    0.0000
     33 C18        0.9825    2.4890    3.1981 C.3       1 RES1    0.0000
     34 H16        0.7134    1.5954    3.4618 H         1 RES1    0.0000
     35 H17        0.1813    3.0055    3.0219 H         1 RES1    0.0000
     36 C19        1.8269    2.4133    1.9360 C.3       1 RES1    0.0000
     37 C20        0.9242    3.2691    5.5837 C.ar      1 RES1    0.0000
     38 C21        0.7932    2.2727    6.5156 C.ar      1 RES1    0.0000
     39 H18        1.2831    1.4886    6.4136 H         1 RES1    0.0000
     40 C22       -0.0404    2.4025    7.5930 C.ar      1 RES1    0.0000
     41 H19       -0.1077    1.7076    8.2071 H         1 RES1    0.0000
     42 C23       -0.7636    3.5193    7.7779 C.ar      1 RES1    0.0000
     43 H20       -1.3361    3.5977    8.5068 H         1 RES1    0.0000
     44 C24       -0.6443    4.5373    6.8747 C.ar      1 RES1    0.0000
     45 H21       -1.1414    5.3147    6.9895 H         1 RES1    0.0000
     46 C25        0.2127    4.4237    5.7903 C.ar      1 RES1    0.0000
     47 H22        0.3060    5.1349    5.1980 H         1 RES1    0.0000
     48 C26        4.9082    0.3732    0.9129 C.ar      1 RES1    0.0000
     49 C27        6.2703    0.6314    1.0619 C.ar      1 RES1    0.0000
     50 H23        6.5718    1.5102    1.0668 H         1 RES1    0.0000
     51 C28        7.1739   -0.3975    1.2030 C.ar      1 RES1    0.0000
     52 H24        8.0775   -0.2028    1.3112 H         1 RES1    0.0000
     53 C29        6.7612   -1.7062    1.1845 C.ar      1 RES1    0.0000
     54 H25        7.3704   -2.4025    1.2729 H         1 RES1    0.0000
     55 C30        5.4251   -1.9523    1.0317 C.ar      1 RES1    0.0000
     56 C31        4.4847   -0.9505    0.9010 C.ar      1 RES1    0.0000
     57 H26        3.5829   -1.1573    0.8054 H         1 RES1    0.0000
     58 N1         4.9513   -3.3516    1.0228 N.pl3     1 RES1    0.0000
     59 O1         4.7099    1.3033   -1.8875 O.2       1 RES1    0.0000
     60 O2         5.0096    2.6425    3.1500 O.2       1 RES1    0.0000
     61 O3         0.9834    1.7403    0.9495 O.3       1 RES1    0.0000
     62 O4         2.2100    3.6586    1.4548 O.3       1 RES1    0.0000
     63 H27        1.6080    4.1993    1.5853 H         1 RES1    0.0000
     64 O5         5.7607   -4.2358    0.8097 O.2       1 RES1    0.0000
     65 O6         3.7821   -3.5652    1.2368 O.2       1 RES1    0.0000
@<TRIPOS>BOND
     1    1    2 1
     2    2    3 2
     3    3    4 1
     4    4    5 1
     5    6    4 1
     6    7    4 1
     7    8    7 1
     8    9    1 1
     9   10    9 1
    10   11    9 1
    11   12    7 1
    12   13   12 ar
    13   14   13 1
    14   15   13 ar
    15   16   15 1
    16   17   15 ar
    17   18   17 1
    18   19   17 ar
    19   20   19 1
    20   21   12 ar
    21   22   21 1
    22   23    2 1
    23   24   23 1
    24   25   23 1
    25   26   25 1
    26   27   25 1
    27   28   27 1
    28   29   28 1
    29   30   28 1
    30   31   28 1
    31   32   31 1
    32   33   31 1
    33   34   33 1
    34   35   33 1
    35   36   25 1
    36   37   31 1
    37   38   37 ar
    38   39   38 1
    39   40   38 ar
    40   41   40 1
    41   42   40 ar
    42   43   42 1
    43   44   42 ar
    44   45   44 1
    45   46   37 ar
    46   47   46 1
    47   48   23 1
    48   49   48 ar
    49   50   49 1
    50   51   49 ar
    51   52   51 1
    52   53   51 ar
    53   54   53 1
    54   55   53 ar
    55   56   48 ar
    56   57   56 1
    57   58   55 1
    58   59    1 2
    59   60   27 2
    60   61    3 1
    61   62   36 1
    62   63   62 1
    63   64   58 2
    64   65   58 2
    65    7    9 1
    66   19   21 ar
    67   33   36 1
    68   36   61 1
    69   44   46 ar
    70   55   56 ar
@<TRIPOS>SUBSTRUCTURE
     1 RES1 1

@<TRIPOS>CRYSIN
   8.9730   13.5200   21.2510  90.0000  90.0000  90.0000  19 1

