# MOL2 file generated by ConQuest
# Please check atom types

@<TRIPOS>MOLECULE
DABRIK
    58    60     2
SMALL
NO_CHARGES
****
Generated from CSD

@<TRIPOS>ATOM
      1 O1         5.7382   14.9036    3.6269 O.2       1 RES1    0.0000
      2 O2         7.6442   14.0013    3.5094 O.2       1 RES1    0.0000
      3 O3         5.4322   10.1014   10.5166 O.3       1 RES1    0.0000
      4 O4         7.3726   10.3966    9.4096 O.2       1 RES1    0.0000
      5 N1         6.5799   14.1444    4.0445 N.pl3     1 RES1    0.0000
      6 N2         5.4563   11.4778    8.8193 N.am      1 RES1    0.0000
      7 H1         4.6578   11.6187    9.1053 H         1 RES1    0.0000
      8 C1         7.0045   11.9231    6.9723 C.ar      1 RES1    0.0000
      9 H2         7.6348   11.3345    7.3225 H         1 RES1    0.0000
     10 C2         7.2511   12.5691    5.7894 C.ar      1 RES1    0.0000
     11 H3         8.0459   12.4193    5.3302 H         1 RES1    0.0000
     12 C3         6.3179   13.4348    5.2886 C.ar      1 RES1    0.0000
     13 C4         5.1443   13.6741    5.9437 C.ar      1 RES1    0.0000
     14 H4         4.5207   14.2654    5.5898 H         1 RES1    0.0000
     15 C5         4.8973   13.0330    7.1241 C.ar      1 RES1    0.0000
     16 H5         4.1023   13.1945    7.5784 H         1 RES1    0.0000
     17 C6         5.8180   12.1485    7.6481 C.ar      1 RES1    0.0000
     18 C7         6.2089   10.6357    9.5547 C.2       1 RES1    0.0000
     19 C8         5.9351    9.0392   11.2813 C.ar      1 RES1    0.0000
     20 C9         5.8768    9.1707   12.6417 C.ar      1 RES1    0.0000
     21 H6         5.6048    9.9702   13.0298 H         1 RES1    0.0000
     22 C10        6.2287    8.0924   13.4229 C.ar      1 RES1    0.0000
     23 H7         6.1820    8.1588   14.3498 H         1 RES1    0.0000
     24 C11        6.6492    6.9219   12.8437 C.ar      1 RES1    0.0000
     25 H8         6.8769    6.1932   13.3739 H         1 RES1    0.0000
     26 C12        6.7289    6.8347   11.4857 C.ar      1 RES1    0.0000
     27 H9         7.0392    6.0490   11.0951 H         1 RES1    0.0000
     28 C13        6.3596    7.8856   10.6825 C.ar      1 RES1    0.0000
     29 H10        6.3979    7.8152    9.7568 H         1 RES1    0.0000
     30 O5        10.9141    6.9571   15.2847 O.2       2 RES2    0.0000
     31 O6        12.7816    6.4571   14.3866 O.2       2 RES2    0.0000
     32 O7        10.1687   11.4296    8.2424 O.3       2 RES2    0.0000
     33 O8        12.1758   10.6990    8.9617 O.2       2 RES2    0.0000
     34 N3        11.7079    7.0066   14.3682 N.pl3     2 RES2    0.0000
     35 N4        10.2118    9.9799    9.8703 N.am      2 RES2    0.0000
     36 H11        9.3639   10.0100    9.7310 H         2 RES2    0.0000
     37 C14        9.7347    9.0267   11.9878 C.ar      2 RES2    0.0000
     38 H12        8.8822    9.3910   11.9229 H         2 RES2    0.0000
     39 C15       10.0874    8.3167   13.1033 C.ar      2 RES2    0.0000
     40 H13        9.4848    8.2076   13.8037 H         2 RES2    0.0000
     41 C16       11.3358    7.7691   13.1719 C.ar      2 RES2    0.0000
     42 C17       12.2351    7.9018   12.1494 C.ar      2 RES2    0.0000
     43 H14       13.0736    7.5040   12.2082 H         2 RES2    0.0000
     44 C18       11.8884    8.6281   11.0376 C.ar      2 RES2    0.0000
     45 H15       12.4946    8.7293   10.3396 H         2 RES2    0.0000
     46 C19       10.6374    9.2081   10.9580 C.ar      2 RES2    0.0000
     47 C20       10.9819   10.6782    9.0221 C.2       2 RES2    0.0000
     48 C21       10.6948   12.1418    7.1657 C.ar      2 RES2    0.0000
     49 C22       10.3681   13.4631    7.0874 C.ar      2 RES2    0.0000
     50 H16        9.8970   13.8758    7.7755 H         2 RES2    0.0000
     51 C23       10.7497   14.1750    5.9706 C.ar      2 RES2    0.0000
     52 H17       10.5256   15.0744    5.8984 H         2 RES2    0.0000
     53 C24       11.4532   13.5709    4.9702 C.ar      2 RES2    0.0000
     54 H18       11.7092   14.0561    4.2184 H         2 RES2    0.0000
     55 C25       11.7776   12.2513    5.0780 C.ar      2 RES2    0.0000
     56 H19       12.2634   11.8402    4.3996 H         2 RES2    0.0000
     57 C26       11.3971   11.5224    6.1776 C.ar      2 RES2    0.0000
     58 H20       11.6152   10.6207    6.2461 H         2 RES2    0.0000
@<TRIPOS>BOND
     1    1    5 2
     2    2    5 2
     3    3   18 1
     4    4   18 2
     5    5   12 1
     6    6    7 1
     7    8    9 1
     8   10    8 ar
     9   11   10 1
    10   12   10 ar
    11   13   12 ar
    12   14   13 1
    13   15   13 ar
    14   16   15 1
    15   17    6 1
    16   18    6 1
    17   19    3 1
    18   20   19 ar
    19   21   20 1
    20   22   20 ar
    21   23   22 1
    22   24   22 ar
    23   25   24 1
    24   26   24 ar
    25   27   26 1
    26   28   19 ar
    27   29   28 1
    28   30   34 2
    29   31   34 2
    30   32   47 1
    31   33   47 2
    32   34   41 1
    33   35   36 1
    34   37   38 1
    35   39   37 ar
    36   40   39 1
    37   41   39 ar
    38   42   41 ar
    39   43   42 1
    40   44   42 ar
    41   45   44 1
    42   46   35 1
    43   47   35 1
    44   48   32 1
    45   49   48 ar
    46   50   49 1
    47   51   49 ar
    48   52   51 1
    49   53   51 ar
    50   54   53 1
    51   55   53 ar
    52   56   55 1
    53   57   48 ar
    54   58   57 1
    55    8   17 ar
    56   15   17 ar
    57   26   28 ar
    58   37   46 ar
    59   44   46 ar
    60   55   57 ar
@<TRIPOS>SUBSTRUCTURE
     1 RES1 1
     2 RES2 30

@<TRIPOS>CRYSIN
   9.6722   10.2543   12.4787  84.6250  79.3860  77.9550   2 1

