# MOL2 file generated by ConQuest
# Please check atom types

@<TRIPOS>MOLECULE
DABTUY
    59    63     1
SMALL
NO_CHARGES
****
Generated from CSD

@<TRIPOS>ATOM
      1 C1         8.1842    9.4626    6.2535 C.3       1 RES1    0.0000
      2 H1         8.2171    8.9564    5.4378 H         1 RES1    0.0000
      3 H2         8.4214   10.3755    6.0740 H         1 RES1    0.0000
      4 H3         8.8034    9.0894    6.8851 H         1 RES1    0.0000
      5 C2         6.7863    9.4077    6.8249 C.ar      1 RES1    0.0000
      6 C3         5.7824    8.7032    6.1873 C.ar      1 RES1    0.0000
      7 H4         5.9659    8.2849    5.3777 H         1 RES1    0.0000
      8 C4         4.5150    8.6059    6.7223 C.ar      1 RES1    0.0000
      9 H5         3.8618    8.1183    6.2746 H         1 RES1    0.0000
     10 C5         4.2081    9.2310    7.9262 C.ar      1 RES1    0.0000
     11 C6         5.1978    9.9677    8.5514 C.ar      1 RES1    0.0000
     12 H6         5.0098   10.4078    9.3493 H         1 RES1    0.0000
     13 C7         6.4670   10.0551    8.0001 C.ar      1 RES1    0.0000
     14 H7         7.1169   10.5615    8.4319 H         1 RES1    0.0000
     15 C8         2.8666    9.1249    8.5214 C.2       1 RES1    0.0000
     16 C9         0.9883    9.2713    9.9312 C.3       1 RES1    0.0000
     17 C10        2.5282    9.4702    9.9499 C.3       1 RES1    0.0000
     18 H8         2.7107   10.4233   10.0833 H         1 RES1    0.0000
     19 C11        3.3081    8.6913   10.9899 C.ar      1 RES1    0.0000
     20 C12        3.7889    7.4008   10.7493 C.ar      1 RES1    0.0000
     21 H9         3.6356    7.0001    9.9238 H         1 RES1    0.0000
     22 C13        4.4861    6.7150   11.7172 C.ar      1 RES1    0.0000
     23 H10        4.8043    5.8599   11.5375 H         1 RES1    0.0000
     24 C14        4.7179    7.2860   12.9577 C.ar      1 RES1    0.0000
     25 C15        4.2507    8.5632   13.2177 C.ar      1 RES1    0.0000
     26 H11        4.3974    8.9577   14.0463 H         1 RES1    0.0000
     27 C16        3.5633    9.2462   12.2285 C.ar      1 RES1    0.0000
     28 H12        3.2631   10.1082   12.4052 H         1 RES1    0.0000
     29 C17        5.7546    7.1083   15.0963 C.3       1 RES1    0.0000
     30 H13        6.2453    6.4771   15.6273 H         1 RES1    0.0000
     31 H14        6.2932    7.8898   14.9500 H         1 RES1    0.0000
     32 H15        4.9488    7.3565   15.5570 H         1 RES1    0.0000
     33 C18        0.2820   10.6298    9.8689 C.2       1 RES1    0.0000
     34 C19       -1.0276   10.7918   10.5181 C.ar      1 RES1    0.0000
     35 C20       -1.7113    9.7100   11.0866 C.ar      1 RES1    0.0000
     36 C21       -1.1232    8.3056   11.0914 C.3       1 RES1    0.0000
     37 C22        0.4118    8.3846   11.0079 C.3       1 RES1    0.0000
     38 H16        0.7448    8.6943   11.8650 H         1 RES1    0.0000
     39 H17        0.7533    7.4869   10.8738 H         1 RES1    0.0000
     40 C23       -1.7210    7.5104    9.9219 C.3       1 RES1    0.0000
     41 H18       -1.3546    6.6230    9.9186 H         1 RES1    0.0000
     42 H19       -2.6742    7.4624   10.0215 H         1 RES1    0.0000
     43 H20       -1.5079    7.9479    9.0955 H         1 RES1    0.0000
     44 C24       -1.4645    7.5697   12.4041 C.3       1 RES1    0.0000
     45 H21       -1.0848    6.6889   12.3846 H         1 RES1    0.0000
     46 H22       -1.1037    8.0576   13.1477 H         1 RES1    0.0000
     47 H23       -2.4178    7.5050   12.4960 H         1 RES1    0.0000
     48 C25       -1.6010   12.0663   10.5267 C.ar      1 RES1    0.0000
     49 H24       -1.1367   12.7825   10.1587 H         1 RES1    0.0000
     50 C26       -2.8448   12.2715   11.0738 C.ar      1 RES1    0.0000
     51 H25       -3.2177   13.1234   11.0864 H         1 RES1    0.0000
     52 C27       -3.5314   11.2061   11.6023 C.ar      1 RES1    0.0000
     53 H26       -4.3800   11.3375   11.9627 H         1 RES1    0.0000
     54 C28       -2.9815    9.9522   11.6054 C.ar      1 RES1    0.0000
     55 H27       -3.4677    9.2443   11.9627 H         1 RES1    0.0000
     56 N1         1.8793    8.7109    7.8212 N.2       1 RES1    0.0000
     57 O1         5.4225    6.5191   13.8434 O.3       1 RES1    0.0000
     58 O2         0.7189    8.6670    8.6167 O.3       1 RES1    0.0000
     59 O3         0.8075   11.5444    9.2598 O.2       1 RES1    0.0000
@<TRIPOS>BOND
     1    1    2 1
     2    3    1 1
     3    4    1 1
     4    5    1 1
     5    6    5 ar
     6    7    6 1
     7    8    6 ar
     8    9    8 1
     9   10    8 ar
    10   11   10 ar
    11   12   11 1
    12   13    5 ar
    13   14   13 1
    14   15   10 1
    15   16   17 1
    16   17   15 1
    17   18   17 1
    18   19   17 1
    19   20   19 ar
    20   21   20 1
    21   22   20 ar
    22   23   22 1
    23   24   22 ar
    24   25   24 ar
    25   26   25 1
    26   27   19 ar
    27   28   27 1
    28   29   30 1
    29   31   29 1
    30   32   29 1
    31   33   16 1
    32   34   33 1
    33   35   34 ar
    34   36   35 1
    35   37   16 1
    36   38   37 1
    37   39   37 1
    38   40   36 1
    39   41   40 1
    40   42   40 1
    41   43   40 1
    42   44   36 1
    43   45   44 1
    44   46   44 1
    45   47   44 1
    46   48   34 ar
    47   49   48 1
    48   50   48 ar
    49   51   50 1
    50   52   50 ar
    51   53   52 1
    52   54   35 ar
    53   55   54 1
    54   56   15 2
    55   57   24 1
    56   58   16 1
    57   59   33 2
    58   11   13 ar
    59   25   27 ar
    60   29   57 1
    61   36   37 1
    62   52   54 ar
    63   56   58 1
@<TRIPOS>SUBSTRUCTURE
     1 RES1 1

@<TRIPOS>CRYSIN
  10.2158   12.9129   17.6582  90.0000 103.8010  90.0000 231 1

