# MOL2 file generated by ConQuest
# Please check atom types

@<TRIPOS>MOLECULE
DACKAW
    51    53     1
SMALL
NO_CHARGES
****
Generated from CSD

@<TRIPOS>ATOM
      1 O1         2.1711    6.3115    3.3056 O.3       1 RES1    0.0000
      2 O2         3.2460    4.7143    1.9740 O.3       1 RES1    0.0000
      3 O3         7.9685    5.5255    0.8436 O.3       1 RES1    0.0000
      4 O4         4.0046    7.6580    1.7411 O.2       1 RES1    0.0000
      5 C1         4.4329    6.0156    5.1870 C.2       1 RES1    0.0000
      6 C2         7.7210    5.2944    3.1750 C.ar      1 RES1    0.0000
      7 O5         3.0120    6.3706    9.0970 O.2       1 RES1    0.0000
      8 C3         3.3881    5.6750    2.9961 C.3       1 RES1    0.0000
      9 C4         6.2245    5.3336    2.9506 C.3       1 RES1    0.0000
     10 C5         4.3258    6.8311    2.5502 C.2       1 RES1    0.0000
     11 O6        10.2822    5.2081    5.8387 O.3       1 RES1    0.0000
     12 C6         3.9347    6.0708    6.5401 C.2       1 RES1    0.0000
     13 C7         9.6494    5.2840    4.6229 C.ar      1 RES1    0.0000
     14 C8         3.0940    5.2121    7.0953 C.2       1 RES1    0.0000
     15 C9         4.0527    4.9602    4.1786 C.3       1 RES1    0.0000
     16 N1         2.7010    5.3528    8.4774 N.pl3     1 RES1    0.0000
     17 O7         2.0675    4.4301    8.9769 O.2       1 RES1    0.0000
     18 C10        8.2742    5.2177    4.4436 C.ar      1 RES1    0.0000
     19 C11        5.3834    4.3014    3.7200 C.3       1 RES1    0.0000
     20 C12        9.9450    5.4831    2.2671 C.ar      1 RES1    0.0000
     21 C13        8.5721    5.4231    2.0790 C.ar      1 RES1    0.0000
     22 C14        5.3103    6.9126    4.6974 C.2       1 RES1    0.0000
     23 C15        5.6550    6.7695    3.2546 C.3       1 RES1    0.0000
     24 C16       10.4708    5.4279    3.5290 C.ar      1 RES1    0.0000
     25 C17        1.1357    5.4575    3.8051 C.3       1 RES1    0.0000
     26 C18        2.5292    5.1265    0.8058 C.3       1 RES1    0.0000
     27 C19        8.7714    5.4527   -0.3135 C.3       1 RES1    0.0000
     28 C20        9.4820    5.1841    6.9994 C.3       1 RES1    0.0000
     29 H1        11.3781    5.5167    3.6890 H         1 RES1    0.0000
     30 H2         7.6801    5.1169    5.2155 H         1 RES1    0.0000
     31 H3         8.1687    5.4607   -1.0438 H         1 RES1    0.0000
     32 H4         8.9864    6.0444    7.0290 H         1 RES1    0.0000
     33 H5        10.0691    5.1489    7.7368 H         1 RES1    0.0000
     34 H6         9.2845    4.6052   -0.2724 H         1 RES1    0.0000
     35 H7         6.2525    7.4355    2.9078 H         1 RES1    0.0000
     36 H8         5.8292    3.9576    4.4930 H         1 RES1    0.0000
     37 H9         6.0945    5.1809    1.9913 H         1 RES1    0.0000
     38 H10        5.1999    3.4699    3.1117 H         1 RES1    0.0000
     39 H11        3.4730    4.2774    4.5306 H         1 RES1    0.0000
     40 H12        5.6283    7.6194    5.2335 H         1 RES1    0.0000
     41 H13       10.5064    5.5806    1.5020 H         1 RES1    0.0000
     42 H14        2.7202    4.4293    6.7371 H         1 RES1    0.0000
     43 H15        4.2834    6.8039    7.0682 H         1 RES1    0.0000
     44 H16        1.2781    4.5093    3.5781 H         1 RES1    0.0000
     45 H17        1.0442    5.5167    4.7458 H         1 RES1    0.0000
     46 H18        1.6390    5.3248    1.0601 H         1 RES1    0.0000
     47 H19        0.3100    5.7805    3.5325 H         1 RES1    0.0000
     48 H20        2.5495    4.2934    0.2283 H         1 RES1    0.0000
     49 H21        9.3171    6.1483   -0.2446 H         1 RES1    0.0000
     50 H22        2.9029    5.9804    0.3588 H         1 RES1    0.0000
     51 H23        8.8636    4.4453    7.0111 H         1 RES1    0.0000
@<TRIPOS>BOND
     1    1    8 1
     2    2    8 1
     3    3   21 1
     4    4   10 2
     5    5   12 1
     6    6    9 1
     7    7   16 2
     8    8   10 1
     9    9   19 1
    10   10   23 1
    11   11   13 1
    12   12   14 2
    13   13   18 ar
    14   14   16 1
    15   15    5 1
    16   16   17 2
    17   18    6 ar
    18   19   15 1
    19   20   21 ar
    20   21    6 ar
    21   22    5 2
    22   23    9 1
    23   24   13 ar
    24   25    1 1
    25   26    2 1
    26   27    3 1
    27   28   11 1
    28   29   24 1
    29   30   18 1
    30   31   27 1
    31   32   28 1
    32   33   28 1
    33   34   27 1
    34   35   23 1
    35   36   19 1
    36   37    9 1
    37   38   19 1
    38   39   15 1
    39   40   22 1
    40   41   20 1
    41   42   14 1
    42   43   12 1
    43   44   25 1
    44   45   25 1
    45   46   26 1
    46   47   25 1
    47   48   26 1
    48   49   27 1
    49   50   26 1
    50   51   28 1
    51    8   15 1
    52   20   24 ar
    53   22   23 1
@<TRIPOS>SUBSTRUCTURE
     1 RES1 1

@<TRIPOS>CRYSIN
  14.4111    7.9952   17.4713  90.0000 111.0200  90.0000 231 1

