# MOL2 file generated by ConQuest
# Please check atom types

@<TRIPOS>MOLECULE
DACNCP
    22    22     1
SMALL
NO_CHARGES
****
Generated from CSD

@<TRIPOS>ATOM
      1 C1        -0.4669   -5.3609    6.1954 C.2       1 RES1    0.0000
      2 C2         0.5897   -5.6304    5.3104 C.2       1 RES1    0.0000
      3 C3         0.7281   -7.0135    5.2539 C.2       1 RES1    0.0000
      4 C4        -0.2844   -7.5956    6.1567 C.2       1 RES1    0.0000
      5 C5        -1.0168   -6.5294    6.7081 C.2       1 RES1    0.0000
      6 C6         1.6859   -7.6807    4.4156 C.2       1 RES1    0.0000
      7 C7         2.5625   -6.9262    3.4645 C.3       1 RES1    0.0000
      8 C8        -0.5248   -8.9549    6.4775 C.2       1 RES1    0.0000
      9 C9        -1.5812   -9.3764    7.4577 C.3       1 RES1    0.0000
     10 H1         1.1563   -4.9696    4.8686 H         1 RES1    0.0000
     11 H2        -1.7258   -6.5219    7.3030 H         1 RES1    0.0000
     12 H3         2.0623   -6.3602    2.9341 H         1 RES1    0.0000
     13 H4         3.0381   -7.4705    2.9824 H         1 RES1    0.0000
     14 H5         2.9907   -6.2308    3.8852 H         1 RES1    0.0000
     15 H6        -2.1655   -8.6779    7.7221 H         1 RES1    0.0000
     16 H7        -1.2022   -9.5080    8.2864 H         1 RES1    0.0000
     17 H8        -1.9733  -10.1655    7.1740 H         1 RES1    0.0000
     18 N1        -0.9291   -4.0447    6.5275 N.pl3     1 RES1    0.0000
     19 O1        -0.2727   -3.0809    6.1406 O.2       1 RES1    0.0000
     20 O2        -1.9621   -3.9336    7.1982 O.2       1 RES1    0.0000
     21 O3         1.8395   -8.9377    4.4301 O.3       1 RES1    0.0000
     22 O4         0.1634   -9.8993    5.9584 O.2       1 RES1    0.0000
@<TRIPOS>BOND
     1    1    2 2
     2    2    3 1
     3    3    4 1
     4    4    5 2
     5    5    1 1
     6    6    3 2
     7    7    6 1
     8    8    4 1
     9    9    8 1
    10   10    2 1
    11   11    5 1
    12   12    7 1
    13   13    7 1
    14   14    7 1
    15   15    9 1
    16   16    9 1
    17   17    9 1
    18   18    1 1
    19   19   18 2
    20   20   18 2
    21   21    6 1
    22   22    8 2
@<TRIPOS>SUBSTRUCTURE
     1 RES1 1

@<TRIPOS>CRYSIN
   5.1150   10.7800   16.1260  90.0000  91.3800  90.0000  14 1

