# MOL2 file generated by ConQuest
# Please check atom types

@<TRIPOS>MOLECULE
DACPUS
    45    47     1
SMALL
NO_CHARGES
****
Generated from CSD

@<TRIPOS>ATOM
      1 C1         0.8730    5.6480    1.8055 C.3       1 RES1    0.0000
      2 C2        -0.1100    4.4597    1.6298 C.3       1 RES1    0.0000
      3 C3         0.0406    3.9702    0.2135 C.3       1 RES1    0.0000
      4 C4         1.3659    4.5846   -0.2929 C.3       1 RES1    0.0000
      5 C5         2.5932    3.8183    0.1965 C.2       1 RES1    0.0000
      6 C6         3.9183    4.5238    0.0994 C.3       1 RES1    0.0000
      7 C7         3.8532    5.8844    0.8142 C.3       1 RES1    0.0000
      8 C8         2.6747    6.7081    0.3040 C.3       1 RES1    0.0000
      9 C9         1.3597    5.9654    0.3856 C.3       1 RES1    0.0000
     10 C10        1.4057    4.6454   -1.8285 C.3       1 RES1    0.0000
     11 O1         0.3499    6.7415   -0.3003 O.3       1 RES1    0.0000
     12 N1         2.3859    2.6188    0.6258 N.2       1 RES1    0.0000
     13 N2         3.4922    1.8872    1.0292 N.3       1 RES1    0.0000
     14 C11        3.2964    0.6448    1.5356 C.ar      1 RES1    0.0000
     15 C12        4.3653   -0.1722    1.9686 C.ar      1 RES1    0.0000
     16 C13        4.1579   -1.4213    2.5233 C.ar      1 RES1    0.0000
     17 C14        2.8896   -1.8906    2.4803 C.ar      1 RES1    0.0000
     18 C15        1.7854   -1.1343    2.1807 C.ar      1 RES1    0.0000
     19 C16        1.9916    0.1114    1.6461 C.ar      1 RES1    0.0000
     20 N3         5.7486    0.2498    1.8797 N.pl3     1 RES1    0.0000
     21 O2         6.6165   -0.5300    2.1941 O.2       1 RES1    0.0000
     22 O3         6.0051    1.3808    1.4830 O.2       1 RES1    0.0000
     23 N4         2.6417   -3.1701    3.2625 N.pl3     1 RES1    0.0000
     24 O4         3.6034   -3.8095    3.6585 O.2       1 RES1    0.0000
     25 O5         1.4974   -3.5684    3.3634 O.2       1 RES1    0.0000
     26 H1         1.6666    5.4421    2.3965 H         1 RES1    0.0000
     27 H2         0.4574    6.6203    2.2764 H         1 RES1    0.0000
     28 H3        -1.1168    4.6724    1.9360 H         1 RES1    0.0000
     29 H4         0.1225    3.9702    2.6790 H         1 RES1    0.0000
     30 H5        -0.7356    4.5644   -0.1846 H         1 RES1    0.0000
     31 H6         0.0434    2.6907    0.0690 H         1 RES1    0.0000
     32 H7         4.7999    4.0107    0.5754 H         1 RES1    0.0000
     33 H8         4.0574    4.7230   -0.9009 H         1 RES1    0.0000
     34 H9         3.8514    5.4725    1.8567 H         1 RES1    0.0000
     35 H10        4.8702    6.2287    0.5257 H         1 RES1    0.0000
     36 H11        2.9445    6.9107   -0.7763 H         1 RES1    0.0000
     37 H12        2.7163    7.5150    0.9521 H         1 RES1    0.0000
     38 H13        2.1942    4.7973   -2.1577 H         1 RES1    0.0000
     39 H14        0.5837    4.9526   -2.1822 H         1 RES1    0.0000
     40 H15        1.2690    3.4908   -2.0791 H         1 RES1    0.0000
     41 H16        0.1454    7.4306    0.3240 H         1 RES1    0.0000
     42 H17        4.5250    2.1201    0.9113 H         1 RES1    0.0000
     43 H18        5.0141   -1.9952    2.7568 H         1 RES1    0.0000
     44 H19        0.7504   -1.3977    2.2638 H         1 RES1    0.0000
     45 H20        1.1805    0.7157    1.3332 H         1 RES1    0.0000
@<TRIPOS>BOND
     1    1    2 1
     2    2    3 1
     3    3    4 1
     4    4    5 1
     5    5    6 1
     6    6    7 1
     7    7    8 1
     8    8    9 1
     9    9    1 1
    10   10    4 1
    11   11    9 1
    12   12    5 2
    13   13   12 1
    14   14   13 1
    15   15   14 ar
    16   16   15 ar
    17   17   16 ar
    18   18   17 ar
    19   19   14 ar
    20   20   15 1
    21   21   20 2
    22   22   20 2
    23   23   17 1
    24   24   23 2
    25   25   23 2
    26   26    1 1
    27   27    1 1
    28   28    2 1
    29   29    2 1
    30   30    3 1
    31   31    3 1
    32   32    6 1
    33   33    6 1
    34   34    7 1
    35   35    7 1
    36   36    8 1
    37   37    8 1
    38   38   10 1
    39   39   10 1
    40   40   10 1
    41   41   11 1
    42   42   13 1
    43   43   16 1
    44   44   18 1
    45   45   19 1
    46    4    9 1
    47   18   19 ar
@<TRIPOS>SUBSTRUCTURE
     1 RES1 1

@<TRIPOS>CRYSIN
   7.9150   33.7600    7.4870  90.0000  97.9600  90.0000  14 1

