# MOL2 file generated by ConQuest
# Please check atom types

@<TRIPOS>MOLECULE
DACPOM
    37    38     1
SMALL
NO_CHARGES
****
Generated from CSD

@<TRIPOS>ATOM
      1 C1        11.9795    0.6575    2.2519 C.2       1 RES1    0.0000
      2 C2        11.4733   -0.6451    1.7459 C.2       1 RES1    0.0000
      3 N1        10.6798   -0.7890    0.7543 N.2       1 RES1    0.0000
      4 C3         9.9874    0.2539    0.1509 C.2       1 RES1    0.0000
      5 N2         9.0161    0.8965    0.6605 N.2       1 RES1    0.0000
      6 C4         8.7732    0.6368    2.0587 C.3       1 RES1    0.0000
      7 C5         9.7463    1.3174    2.9657 C.2       1 RES1    0.0000
      8 C6        11.1659    1.4754    2.8994 C.2       1 RES1    0.0000
      9 C7        13.4200    1.0164    1.9501 C.3       1 RES1    0.0000
     10 N3        11.9773   -1.7615    2.3622 N.3       1 RES1    0.0000
     11 C8        12.7507   -1.6788    3.6850 C.3       1 RES1    0.0000
     12 C9        14.1189   -2.3230    3.5158 C.3       1 RES1    0.0000
     13 C10       11.3349   -3.1252    2.0145 C.3       1 RES1    0.0000
     14 C11       12.1553   -3.5743    0.8849 C.3       1 RES1    0.0000
     15 C12       10.3620    0.5251   -1.3007 C.3       1 RES1    0.0000
     16 C13        7.6808    1.5382    2.7339 C.3       1 RES1    0.0000
     17 C14        6.6323    0.8427    3.5930 C.2       1 RES1    0.0000
     18 O1         6.6053    1.0354    4.8036 O.2       1 RES1    0.0000
     19 N4         5.7391    0.0289    2.9859 N.am      1 RES1    0.0000
     20 C15        4.6825   -0.6186    3.8304 C.3       1 RES1    0.0000
     21 C16        3.3270   -0.0190    3.4974 C.3       1 RES1    0.0000
     22 C17        5.7835   -0.3250    1.5509 C.3       1 RES1    0.0000
     23 C18        5.9253   -1.8244    1.4166 C.3       1 RES1    0.0000
     24 C19        7.0945    2.6778    1.9189 C.3       1 RES1    0.0000
     25 N5         8.8434    2.0708    3.5434 N.pl3     1 RES1    0.0000
     26 O2         8.8966    3.0491    4.3602 O.2       1 RES1    0.0000
     27 H1         8.7861   -0.2969    2.2831 H         1 RES1    0.0000
     28 H2        11.3886    2.2131    3.2085 H         1 RES1    0.0000
     29 H3        13.7792    1.9112    2.3862 H         1 RES1    0.0000
     30 H4        13.6239    1.0329    1.1296 H         1 RES1    0.0000
     31 H5        14.0068    0.3002    2.3475 H         1 RES1    0.0000
     32 H6        11.3105    0.7493   -1.1498 H         1 RES1    0.0000
     33 H7        10.4175   -0.3308   -1.7330 H         1 RES1    0.0000
     34 H8         9.3807    1.0065   -1.7570 H         1 RES1    0.0000
     35 H9         6.7700    3.4626    2.5793 H         1 RES1    0.0000
     36 H10        6.2955    2.3512    1.4166 H         1 RES1    0.0000
     37 H11        7.7427    3.1773    1.5344 H         1 RES1    0.0000
@<TRIPOS>BOND
     1    1    2 1
     2    2    3 2
     3    3    4 1
     4    4    5 2
     5    5    6 1
     6    6    7 1
     7    7    8 1
     8    8    1 2
     9    9    1 1
    10   10    2 1
    11   11   10 1
    12   12   11 1
    13   13   10 1
    14   14   13 1
    15   15    4 1
    16   16    6 1
    17   17   16 1
    18   18   17 2
    19   19   17 1
    20   20   19 1
    21   21   20 1
    22   22   19 1
    23   23   22 1
    24   24   16 1
    25   25    7 2
    26   26   25 1
    27   27    6 1
    28   28    8 1
    29   29    9 1
    30   30    9 1
    31   31    9 1
    32   32   15 1
    33   33   15 1
    34   34   15 1
    35   35   24 1
    36   36   24 1
    37   37   24 1
    38   16   25 1
@<TRIPOS>SUBSTRUCTURE
     1 RES1 1

@<TRIPOS>CRYSIN
  27.4240    8.2700   21.1400  90.0000 119.5100  90.0000  15 1

