# MOL2 file generated by ConQuest
# Please check atom types

@<TRIPOS>MOLECULE
DACVEK
    50    55     1
SMALL
NO_CHARGES
****
Generated from CSD

@<TRIPOS>ATOM
      1 O1        -1.4165    8.3418    7.2892 O.3       1 RES1    0.0000
      2 O2        -1.0350    7.9333    5.1601 O.2       1 RES1    0.0000
      3 O3         5.3058    5.4498    6.0302 O.3       1 RES1    0.0000
      4 O4         5.8396   12.2368   10.1747 O.2       1 RES1    0.0000
      5 O5         6.3720   10.8740   11.7591 O.2       1 RES1    0.0000
      6 N1         1.3631    6.7586    5.5999 N.3       1 RES1    0.0000
      7 N2         5.7840   11.1412   10.7255 N.pl3     1 RES1    0.0000
      8 C1        -0.6140    7.8759    6.3004 C.2       1 RES1    0.0000
      9 C2         0.6923    7.3429    6.6558 C.2       1 RES1    0.0000
     10 C3         2.4302    5.8479    5.9949 C.3       1 RES1    0.0000
     11 H1         2.0365    5.0747    6.4923 H         1 RES1    0.0000
     12 C4         3.2098    5.3311    4.7995 C.ar      1 RES1    0.0000
     13 C5         2.5960    4.9897    3.6024 C.ar      1 RES1    0.0000
     14 H2         1.6513    5.0558    3.5301 H         1 RES1    0.0000
     15 C6         3.3349    4.5539    2.5069 C.ar      1 RES1    0.0000
     16 H3         2.8964    4.3178    1.6979 H         1 RES1    0.0000
     17 C7         4.7057    4.4702    2.6024 C.ar      1 RES1    0.0000
     18 H4         5.2163    4.1963    1.8511 H         1 RES1    0.0000
     19 C8         5.3376    4.7846    3.7926 C.ar      1 RES1    0.0000
     20 H5         6.2829    4.7145    3.8615 H         1 RES1    0.0000
     21 C9         4.5905    5.2016    4.8864 C.ar      1 RES1    0.0000
     22 C10        4.5734    5.7642    7.2126 C.3       1 RES1    0.0000
     23 H6         5.1667    6.2446    7.8434 H         1 RES1    0.0000
     24 H7         4.2824    4.9249    7.6481 H         1 RES1    0.0000
     25 C11        3.3557    6.6224    6.9217 C.3       1 RES1    0.0000
     26 H8         3.6596    7.4481    6.4450 H         1 RES1    0.0000
     27 C12        2.6221    7.0501    8.2109 C.3       1 RES1    0.0000
     28 H9         2.5932    6.2621    8.8245 H         1 RES1    0.0000
     29 C13        1.1908    7.4643    7.9114 C.2       1 RES1    0.0000
     30 C14        0.3156    7.9744    8.9450 C.ar      1 RES1    0.0000
     31 C15        0.6410    8.0445   10.3064 C.ar      1 RES1    0.0000
     32 H10        1.5069    7.7814   10.5904 H         1 RES1    0.0000
     33 C16       -0.2637    8.4830   11.2384 C.ar      1 RES1    0.0000
     34 H11       -0.0135    8.5249   12.1541 H         1 RES1    0.0000
     35 C17       -1.5385    8.8676   10.8589 C.ar      1 RES1    0.0000
     36 H12       -2.1573    9.1658   11.5155 H         1 RES1    0.0000
     37 C18       -1.9177    8.8190    9.5327 C.ar      1 RES1    0.0000
     38 H13       -2.7873    9.0821    9.2591 H         1 RES1    0.0000
     39 C19       -0.9765    8.3697    8.6119 C.ar      1 RES1    0.0000
     40 C20        3.4377    8.1498    8.8933 C.ar      1 RES1    0.0000
     41 C21        3.3332    9.4694    8.4777 C.ar      1 RES1    0.0000
     42 H14        2.7268    9.6947    7.7823 H         1 RES1    0.0000
     43 C22        4.1033   10.4679    9.0629 C.ar      1 RES1    0.0000
     44 H15        4.0346   11.3719    8.7780 H         1 RES1    0.0000
     45 C23        4.9714   10.0995   10.0715 C.ar      1 RES1    0.0000
     46 C24        5.1090    8.8082   10.5078 C.ar      1 RES1    0.0000
     47 H16        5.7187    8.5896   11.2032 H         1 RES1    0.0000
     48 C25        4.3337    7.8313    9.9054 C.ar      1 RES1    0.0000
     49 H17        4.4144    6.9287   10.1894 H         1 RES1    0.0000
     50 H18        0.8678    6.5306    4.9140 H         1 RES1    0.0000
@<TRIPOS>BOND
     1    1    8 1
     2    2    8 2
     3    3   21 1
     4    4    7 2
     5    5    7 2
     6    6    9 1
     7    7   45 1
     8    8    9 1
     9    9   29 2
    10   10    6 1
    11   11   10 1
    12   12   10 1
    13   13   12 ar
    14   14   13 1
    15   15   13 ar
    16   16   15 1
    17   17   15 ar
    18   18   17 1
    19   19   17 ar
    20   20   19 1
    21   21   12 ar
    22   22    3 1
    23   23   22 1
    24   24   22 1
    25   25   10 1
    26   26   25 1
    27   27   25 1
    28   28   27 1
    29   29   27 1
    30   30   29 1
    31   31   30 ar
    32   32   31 1
    33   33   31 ar
    34   34   33 1
    35   35   33 ar
    36   36   35 1
    37   37   35 ar
    38   38   37 1
    39   39    1 1
    40   40   27 1
    41   41   40 ar
    42   42   41 1
    43   43   41 ar
    44   44   43 1
    45   45   43 ar
    46   46   45 ar
    47   47   46 1
    48   48   40 ar
    49   49   48 1
    50   50    6 1
    51   19   21 ar
    52   22   25 1
    53   30   39 ar
    54   37   39 ar
    55   46   48 ar
@<TRIPOS>SUBSTRUCTURE
     1 RES1 1

@<TRIPOS>CRYSIN
  16.8140   13.4930    8.7591  90.0000 100.7320  90.0000  14 1

