# MOL2 file generated by ConQuest
# Please check atom types

@<TRIPOS>MOLECULE
DACWUB
    82    84     2
SMALL
NO_CHARGES
****
Generated from CSD

@<TRIPOS>ATOM
      1 O1         6.4163    5.6498    0.9373 O.2       1 RES1    0.0000
      2 O2         6.5101    3.8403   -0.2514 O.2       1 RES1    0.0000
      3 O3         4.3469    3.3256    2.2994 O.2       1 RES1    0.0000
      4 N1         6.8543    4.5296    0.7029 N.pl3     1 RES1    0.0000
      5 N2         6.1200    4.0624    3.4816 N.am      1 RES1    0.0000
      6 C1         7.8416    3.9229    1.6674 C.3       1 RES1    0.0000
      7 H1         8.3813    3.2418    1.1712 H         1 RES1    0.0000
      8 C2         7.0638    3.1965    2.7795 C.3       1 RES1    0.0000
      9 H2         6.5474    2.4507    2.3591 H         1 RES1    0.0000
     10 C3         4.8038    4.0614    3.1751 C.2       1 RES1    0.0000
     11 C4         3.9392    5.0269    3.9300 C.3       1 RES1    0.0000
     12 H3         3.7465    5.8038    3.3651 H         1 RES1    0.0000
     13 H4         4.4067    5.3212    4.7393 H         1 RES1    0.0000
     14 H5         3.0995    4.5874    4.1787 H         1 RES1    0.0000
     15 C5         8.0404    2.5965    3.7531 C.2       1 RES1    0.0000
     16 C6         9.2764    3.0680    3.8454 C.2       1 RES1    0.0000
     17 H6         9.8529    2.6355    4.4636 H         1 RES1    0.0000
     18 C7         9.8545    4.2124    3.0757 C.3       1 RES1    0.0000
     19 H7        10.5280    3.8339    2.4409 H         1 RES1    0.0000
     20 C8         8.7993    4.9658    2.2316 C.3       1 RES1    0.0000
     21 H8         8.2811    5.5616    2.8454 H         1 RES1    0.0000
     22 C9         9.4677    5.8384    1.1801 C.ar      1 RES1    0.0000
     23 C10       10.2697    5.2741    0.1862 C.ar      1 RES1    0.0000
     24 H9        10.3538    4.3290    0.1273 H         1 RES1    0.0000
     25 C11       10.9455    6.0836   -0.7167 C.ar      1 RES1    0.0000
     26 H10       11.4968    5.6871   -1.3818 H         1 RES1    0.0000
     27 C12       10.8254    7.4546   -0.6588 C.ar      1 RES1    0.0000
     28 H11       11.2903    8.0051   -1.2788 H         1 RES1    0.0000
     29 C13       10.0190    8.0216    0.3120 C.ar      1 RES1    0.0000
     30 H12        9.9195    8.9649    0.3545 H         1 RES1    0.0000
     31 C14        9.3546    7.2123    1.2239 C.ar      1 RES1    0.0000
     32 H13        8.8104    7.6139    1.8924 H         1 RES1    0.0000
     33 C15       10.5884    5.1710    3.9943 C.3       1 RES1    0.0000
     34 H14        9.9520    5.5759    4.6196 H         1 RES1    0.0000
     35 H15       11.0148    5.8737    3.4606 H         1 RES1    0.0000
     36 H16       11.2733    4.6825    4.4969 H         1 RES1    0.0000
     37 C16        7.5096    1.4937    4.6230 C.3       1 RES1    0.0000
     38 H17        8.2245    1.1679    5.2090 H         1 RES1    0.0000
     39 H18        7.1886    0.7589    4.0590 H         1 RES1    0.0000
     40 H19        6.7703    1.8353    5.1681 H         1 RES1    0.0000
     41 O4         0.6758    3.0099    1.7879 O.2       2 RES2    0.0000
     42 O5        -0.6420    1.9121    0.4648 O.2       2 RES2    0.0000
     43 O6         1.7095    3.3795   -1.7626 O.2       2 RES2    0.0000
     44 N3         0.3980    2.0262    1.1182 N.pl3     2 RES2    0.0000
     45 N4         2.8856    2.5962    0.0006 N.am      2 RES2    0.0000
     46 C17        1.3913    0.9033    1.0433 C.3       2 RES2    0.0000
     47 H20        0.9026    0.0682    0.7879 H         2 RES2    0.0000
     48 C18        2.3970    1.2356   -0.0768 C.3       2 RES2    0.0000
     49 H21        1.9233    1.1320   -0.9515 H         2 RES2    0.0000
     50 C19        2.4529    3.5901   -0.7927 C.2       2 RES2    0.0000
     51 C20        2.9207    4.9618   -0.4135 C.3       2 RES2    0.0000
     52 H22        3.3588    5.3822   -1.1833 H         2 RES2    0.0000
     53 H23        3.5572    4.8960    0.3288 H         2 RES2    0.0000
     54 H24        2.1530    5.5041   -0.1379 H         2 RES2    0.0000
     55 C21        3.5364    0.2452   -0.0520 C.2       2 RES2    0.0000
     56 C22        3.7529   -0.5379    0.9898 C.2       2 RES2    0.0000
     57 H25        4.4769   -1.1500    0.9227 H         2 RES2    0.0000
     58 C23        2.9699   -0.5567    2.2663 C.3       2 RES2    0.0000
     59 H26        2.3876   -1.3707    2.2575 H         2 RES2    0.0000
     60 C24        2.0584    0.6728    2.3983 C.3       2 RES2    0.0000
     61 H27        2.6282    1.4675    2.6091 H         2 RES2    0.0000
     62 C25        1.0387    0.5045    3.5162 C.ar      2 RES2    0.0000
     63 C26        1.0820    1.2887    4.6515 C.ar      2 RES2    0.0000
     64 H28        1.7318    1.9788    4.7166 H         2 RES2    0.0000
     65 C27        0.1936    1.0854    5.6980 C.ar      2 RES2    0.0000
     66 H29        0.2404    1.6308    6.4742 H         2 RES2    0.0000
     67 C28       -0.7595    0.0886    5.6117 C.ar      2 RES2    0.0000
     68 H30       -1.3627   -0.0592    6.3302 H         2 RES2    0.0000
     69 C29       -0.8300   -0.6916    4.4762 C.ar      2 RES2    0.0000
     70 H31       -1.4890   -1.3724    4.4090 H         2 RES2    0.0000
     71 C30        0.0632   -0.4840    3.4271 C.ar      2 RES2    0.0000
     72 H32        0.0053   -1.0208    2.6454 H         2 RES2    0.0000
     73 C31        3.9012   -0.6593    3.4766 C.3       2 RES2    0.0000
     74 H33        4.4539   -1.4657    3.3969 H         2 RES2    0.0000
     75 H34        3.3673   -0.7104    4.2969 H         2 RES2    0.0000
     76 H35        4.4798    0.1310    3.5121 H         2 RES2    0.0000
     77 C32        4.3726    0.2400   -1.3009 C.3       2 RES2    0.0000
     78 H36        5.1244   -0.3785   -1.1879 H         2 RES2    0.0000
     79 H37        4.7140    1.1428   -1.4682 H         2 RES2    0.0000
     80 H38        3.8241   -0.0484   -2.0606 H         2 RES2    0.0000
     81 H39        3.3828    2.8346    0.7364 H         2 RES2    0.0000
     82 H40        6.3981    4.5282    4.2030 H         1 RES1    0.0000
@<TRIPOS>BOND
     1    1    4 2
     2    2    4 2
     3    3   10 2
     4    4    6 1
     5    5    8 1
     6    6    7 1
     7    8    6 1
     8    9    8 1
     9   10    5 1
    10   11   10 1
    11   12   11 1
    12   13   11 1
    13   14   11 1
    14   15    8 1
    15   16   15 2
    16   17   16 1
    17   18   16 1
    18   19   18 1
    19   20    6 1
    20   21   20 1
    21   22   20 1
    22   23   22 ar
    23   24   23 1
    24   25   23 ar
    25   26   25 1
    26   27   25 ar
    27   28   27 1
    28   29   27 ar
    29   30   29 1
    30   31   22 ar
    31   32   31 1
    32   33   18 1
    33   34   33 1
    34   35   33 1
    35   36   33 1
    36   37   15 1
    37   38   37 1
    38   39   37 1
    39   40   37 1
    40   41   44 2
    41   42   44 2
    42   43   50 2
    43   44   46 1
    44   45   48 1
    45   46   47 1
    46   48   46 1
    47   49   48 1
    48   50   45 1
    49   51   50 1
    50   52   51 1
    51   53   51 1
    52   54   51 1
    53   55   48 1
    54   56   55 2
    55   57   56 1
    56   58   56 1
    57   59   58 1
    58   60   46 1
    59   61   60 1
    60   62   60 1
    61   63   62 ar
    62   64   63 1
    63   65   63 ar
    64   66   65 1
    65   67   65 ar
    66   68   67 1
    67   69   67 ar
    68   70   69 1
    69   71   62 ar
    70   72   71 1
    71   73   58 1
    72   74   73 1
    73   75   73 1
    74   76   73 1
    75   77   55 1
    76   78   77 1
    77   79   77 1
    78   80   77 1
    79   81   45 1
    80   82    5 1
    81   18   20 1
    82   29   31 ar
    83   58   60 1
    84   69   71 ar
@<TRIPOS>SUBSTRUCTURE
     1 RES1 1
     2 RES2 41

@<TRIPOS>CRYSIN
  11.9261   17.9405   15.2365  90.0000  96.0610  90.0000 231 1

