# MOL2 file generated by ConQuest
# Please check atom types

@<TRIPOS>MOLECULE
DACXIO
    48    46     2
SMALL
NO_CHARGES
****
Generated from CSD

@<TRIPOS>ATOM
      1 O1         2.5487    3.7226    6.4768 O.3       1 RES1    0.0000
      2 N1         1.1508    3.6220    6.6849 N.2       1 RES1    0.0000
      3 C1         0.7706    4.2216    7.7389 C.2       1 RES1    0.0000
      4 C2        -0.7187    4.2236    8.0297 C.3       1 RES1    0.0000
      5 C3        -0.9507    3.6441    9.4193 C.2       1 RES1    0.0000
      6 O2        -0.2354    2.5394    9.6204 O.3       1 RES1    0.0000
      7 C4        -0.4035    1.8975   10.9054 C.3       1 RES1    0.0000
      8 C5         1.6957    4.9198    8.6814 C.3       1 RES1    0.0000
      9 C6        -1.2459    5.6603    7.9998 C.3       1 RES1    0.0000
     10 C7        -1.5101    3.3604    7.0412 C.3       1 RES1    0.0000
     11 O3        -1.7069    4.0888   10.2319 O.2       1 RES1    0.0000
     12 O4         0.6553    1.8532    4.5953 O.3       2 RES2    0.0000
     13 N2         2.0575    1.8049    4.4378 N.2       2 RES2    0.0000
     14 C8         2.4046    1.0524    3.4712 C.2       2 RES2    0.0000
     15 C9         3.8920    0.8713    3.2344 C.3       2 RES2    0.0000
     16 C10        4.2279    1.2818    1.8045 C.2       2 RES2    0.0000
     17 O5         3.5624    2.3704    1.4367 O.3       2 RES2    0.0000
     18 C11        3.8605    2.8996    0.1253 C.3       2 RES2    0.0000
     19 C12        1.4250    0.3300    2.6011 C.3       2 RES2    0.0000
     20 C13        4.7412    1.7446    4.1562 C.3       2 RES2    0.0000
     21 C14        4.2611   -0.5996    3.4378 C.3       2 RES2    0.0000
     22 O6         5.0225    0.7405    1.0965 O.2       2 RES2    0.0000
     23 H1         2.6148    3.1612    5.8136 H         1 RES1    0.0000
     24 H2         0.1221    1.0966   10.8779 H         1 RES1    0.0000
     25 H3        -0.0582    2.4992   11.6250 H         1 RES1    0.0000
     26 H4        -1.3640    1.7084   11.0698 H         1 RES1    0.0000
     27 H5         2.5048    4.4107    8.8285 H         1 RES1    0.0000
     28 H6         1.2661    5.0989    9.5204 H         1 RES1    0.0000
     29 H7         2.0213    5.7267    8.3170 H         1 RES1    0.0000
     30 H8        -1.1093    6.0104    7.0998 H         1 RES1    0.0000
     31 H9        -2.2247    5.6281    8.2159 H         1 RES1    0.0000
     32 H10       -0.7507    6.2217    8.6699 H         1 RES1    0.0000
     33 H11       -1.1904    2.4066    7.0021 H         1 RES1    0.0000
     34 H12       -2.4532    3.3805    7.3193 H         1 RES1    0.0000
     35 H13       -1.4587    3.7709    6.1332 H         1 RES1    0.0000
     36 H14        0.6486    2.4126    5.3067 H         2 RES2    0.0000
     37 H15        4.8008    3.0585    0.0460 H         2 RES2    0.0000
     38 H16        3.4007    3.7286    0.0609 H         2 RES2    0.0000
     39 H17        3.5751    2.2436   -0.5724 H         2 RES2    0.0000
     40 H18        0.9938   -0.3481    3.1034 H         2 RES2    0.0000
     41 H19        1.8367   -0.0342    1.8563 H         2 RES2    0.0000
     42 H20        0.6654    0.9135    2.3310 H         2 RES2    0.0000
     43 H21        4.5920    1.4629    5.1033 H         2 RES2    0.0000
     44 H22        4.5069    2.6984    4.0654 H         2 RES2    0.0000
     45 H23        5.7035    1.5917    3.9401 H         2 RES2    0.0000
     46 H24        5.2038   -0.7204    3.2608 H         2 RES2    0.0000
     47 H25        4.1034   -0.8310    4.3872 H         2 RES2    0.0000
     48 H26        3.7199   -1.1852    2.8379 H         2 RES2    0.0000
@<TRIPOS>BOND
     1    1    2 1
     2    2    3 2
     3    3    4 1
     4    4    5 1
     5    5    6 1
     6    6    7 1
     7    7   24 1
     8    8    3 1
     9    9    4 1
    10   10    4 1
    11   11    5 2
    12   12   13 1
    13   13   14 2
    14   14   15 1
    15   15   16 1
    16   16   17 1
    17   17   18 1
    18   18   37 1
    19   19   14 1
    20   20   15 1
    21   21   15 1
    22   22   16 2
    23   23    1 1
    24   25    7 1
    25   26    7 1
    26   27    8 1
    27   28    8 1
    28   29    8 1
    29   30    9 1
    30   31    9 1
    31   32    9 1
    32   33   10 1
    33   34   10 1
    34   35   10 1
    35   36   12 1
    36   38   18 1
    37   39   18 1
    38   40   19 1
    39   41   19 1
    40   42   19 1
    41   43   20 1
    42   44   20 1
    43   45   20 1
    44   46   21 1
    45   47   21 1
    46   48   21 1
@<TRIPOS>SUBSTRUCTURE
     1 RES1 1
     2 RES2 12

@<TRIPOS>CRYSIN
   7.5210   20.1220   11.5290  90.0000  94.4700  90.0000  14 1

