# MOL2 file generated by ConQuest
# Please check atom types

@<TRIPOS>MOLECULE
DACYEL
    25    25     1
SMALL
NO_CHARGES
****
Generated from CSD

@<TRIPOS>ATOM
      1 C1         3.0986    3.5806    5.8394 C.ar      1 RES1    0.0000
      2 C2         2.3736    4.0053    4.7404 C.ar      1 RES1    0.0000
      3 C3         1.2111    3.2909    4.2840 C.ar      1 RES1    0.0000
      4 C4         0.7666    2.2156    5.1076 C.ar      1 RES1    0.0000
      5 C5         1.3995    1.8712    6.3410 C.ar      1 RES1    0.0000
      6 C6         2.6460    2.5248    6.6042 C.ar      1 RES1    0.0000
      7 C7         4.3507    4.3167    6.2670 C.2       1 RES1    0.0000
      8 N1         2.7582    5.2569    4.1237 N.pl3     1 RES1    0.0000
      9 N2         0.5543    3.6826    3.2068 N.3       1 RES1    0.0000
     10 N3        -0.3954    1.4712    4.7006 N.pl3     1 RES1    0.0000
     11 N4         0.9114    0.9701    7.1839 N.3       1 RES1    0.0000
     12 N5         3.4903    2.0650    7.6895 N.pl3     1 RES1    0.0000
     13 O1         4.3423    4.9641    7.3072 O.2       1 RES1    0.0000
     14 O2         5.3561    4.1569    5.4694 O.3       1 RES1    0.0000
     15 O3         3.4181    6.0446    4.7869 O.2       1 RES1    0.0000
     16 O4         2.4066    5.5219    2.9711 O.2       1 RES1    0.0000
     17 O5        -0.8008    1.5547    3.5453 O.2       1 RES1    0.0000
     18 O6        -0.9704    0.7227    5.5023 O.2       1 RES1    0.0000
     19 O7         2.9983    1.5042    8.6680 O.2       1 RES1    0.0000
     20 O8         4.6985    2.2382    7.5840 O.2       1 RES1    0.0000
     21 H1         0.7887    4.4641    2.7957 H         1 RES1    0.0000
     22 H2        -0.0839    3.1445    2.9602 H         1 RES1    0.0000
     23 H3         1.3165    0.8660    7.9349 H         1 RES1    0.0000
     24 H4         0.0767    0.5980    6.9344 H         1 RES1    0.0000
     25 H5         6.1195    4.6806    5.7833 H         1 RES1    0.0000
@<TRIPOS>BOND
     1    1    2 ar
     2    2    3 ar
     3    3    4 ar
     4    4    5 ar
     5    5    6 ar
     6    6    1 ar
     7    7    1 1
     8    8    2 1
     9    9    3 1
    10   10    4 1
    11   11    5 1
    12   12    6 1
    13   13    7 2
    14   14    7 1
    15   15    8 2
    16   16    8 2
    17   17   10 2
    18   18   10 2
    19   19   12 2
    20   20   12 2
    21   21    9 1
    22   22    9 1
    23   23   11 1
    24   24   11 1
    25   25   14 1
@<TRIPOS>SUBSTRUCTURE
     1 RES1 1

@<TRIPOS>CRYSIN
   7.2461   10.3097   13.9620  90.0000 101.0230  90.0000  14 1

