# MOL2 file generated by ConQuest
# Please check atom types

@<TRIPOS>MOLECULE
DACYUC
    38    38     2
SMALL
NO_CHARGES
****
Generated from CSD

@<TRIPOS>ATOM
      1 O1        -0.6365    2.1239    1.8066 O.2       1 RES1    0.0000
      2 O2        -0.2192    2.0226    3.9382 O.2       1 RES1    0.0000
      3 N1         2.4128    5.9251    2.4794 N.ar      1 RES1    0.0000
      4 N2        -0.0842    2.5339    2.8265 N.pl3     1 RES1    0.0000
      5 C1         0.7976    3.7142    2.7095 C.ar      1 RES1    0.0000
      6 C2         1.3283    4.2723    3.8547 C.ar      1 RES1    0.0000
      7 C3         2.7847    6.0622    4.8734 C.3       1 RES1    0.0000
      8 C4         1.0645    4.2225    1.4527 C.ar      1 RES1    0.0000
      9 C5         1.8830    5.3513    1.3799 C.ar      1 RES1    0.0000
     10 C6         2.1517    5.3941    3.6883 C.ar      1 RES1    0.0000
     11 C7         2.2196    5.9755    0.0576 C.3       1 RES1    0.0000
     12 O3         3.2086    3.2997    7.0501 O.2       2 RES2    0.0000
     13 O4         5.3415    3.3352    6.6616 O.2       2 RES2    0.0000
     14 N3         4.8410   -0.5403    9.6592 N.ar      2 RES2    0.0000
     15 N4         4.3481    2.8634    7.2061 N.pl3     2 RES2    0.0000
     16 C8         4.5241    1.6886    8.0902 C.ar      2 RES2    0.0000
     17 C9         5.7954    1.1976    8.2986 C.ar      2 RES2    0.0000
     18 C10        3.4080    1.1131    8.6605 C.ar      2 RES2    0.0000
     19 C11        7.2511   -0.5397    9.4056 C.3       2 RES2    0.0000
     20 C12        3.6179   -0.0206    9.4547 C.ar      2 RES2    0.0000
     21 C13        2.4656   -0.7175   10.1197 C.3       2 RES2    0.0000
     22 C14        5.9134    0.0650    9.1035 C.ar      2 RES2    0.0000
     23 H1         1.1483    3.9396    4.7307 H         1 RES1    0.0000
     24 H2         6.5538    1.6094    7.8973 H         2 RES2    0.0000
     25 H3         2.5356    1.4523    8.5578 H         2 RES2    0.0000
     26 H4         0.7063    3.8204    0.6791 H         1 RES1    0.0000
     27 H5         7.9493   -0.1572    8.8423 H         2 RES2    0.0000
     28 H6         1.6667    5.5924   -0.6562 H         1 RES1    0.0000
     29 H7         2.4088   -1.6311    9.8059 H         2 RES2    0.0000
     30 H8         2.5768    5.6195    5.6800 H         1 RES1    0.0000
     31 H9         3.1527    5.7929   -0.1558 H         1 RES1    0.0000
     32 H10        7.2288   -1.5119    9.2712 H         2 RES2    0.0000
     33 H11        2.1092    6.9201    0.0829 H         1 RES1    0.0000
     34 H12        2.5442    6.9417    4.9123 H         1 RES1    0.0000
     35 H13        1.6176   -0.2709    9.8803 H         2 RES2    0.0000
     36 H14        7.4328   -0.3143   10.3306 H         2 RES2    0.0000
     37 H15        2.5912   -0.6991   11.1055 H         2 RES2    0.0000
     38 H16        3.7253    6.0368    4.8122 H         1 RES1    0.0000
@<TRIPOS>BOND
     1    1    4 2
     2    2    4 2
     3    3    9 ar
     4    4    5 1
     5    5    6 ar
     6    6   10 ar
     7    7   10 1
     8    8    5 ar
     9    9    8 ar
    10   10    3 ar
    11   11    9 1
    12   12   15 2
    13   13   15 2
    14   14   20 ar
    15   15   16 1
    16   16   17 ar
    17   17   22 ar
    18   18   16 ar
    19   19   22 1
    20   20   18 ar
    21   21   20 1
    22   22   14 ar
    23   23    6 1
    24   24   17 1
    25   25   18 1
    26   26    8 1
    27   27   19 1
    28   28   11 1
    29   29   21 1
    30   30    7 1
    31   31   11 1
    32   32   19 1
    33   33   11 1
    34   34    7 1
    35   35   21 1
    36   36   19 1
    37   37   21 1
    38   38    7 1
@<TRIPOS>SUBSTRUCTURE
     1 RES1 1
     2 RES2 12

@<TRIPOS>CRYSIN
  19.0750    5.4190   15.0450  90.0000 108.1500  90.0000  14 1

