# MOL2 file generated by ConQuest
# Please check atom types

@<TRIPOS>MOLECULE
DACZIT
    68    70     2
SMALL
NO_CHARGES
****
Generated from CSD

@<TRIPOS>ATOM
      1 N1         6.7760   11.4156   13.9397 N.ar      1 RES1    0.0000
      2 O1         8.6598    9.6817   11.5316 O.2       1 RES1    0.0000
      3 N2         4.7918    6.4427   10.1721 N.pl3     1 RES1    0.0000
      4 C1         6.1971    8.8978    9.5842 C.ar      1 RES1    0.0000
      5 C2         5.1039    9.6471    9.1920 C.ar      1 RES1    0.0000
      6 H1         4.4214    9.8128    9.8014 H         1 RES1    0.0000
      7 O2         3.6894    6.4586    9.6664 O.2       1 RES1    0.0000
      8 O3         5.6664    5.6986    9.8141 O.2       1 RES1    0.0000
      9 C3         5.0039   10.1550    7.9117 C.ar      1 RES1    0.0000
     10 H2         4.2530   10.6435    7.6633 H         1 RES1    0.0000
     11 C4         7.7114    9.9991   12.2143 C.2       1 RES1    0.0000
     12 C5         6.2891    8.2838   10.9702 C.3       1 RES1    0.0000
     13 H3         7.0899    7.7205   11.0034 H         1 RES1    0.0000
     14 C6         5.0670    7.4055   11.2793 C.3       1 RES1    0.0000
     15 H4         5.2247    6.9135   12.1009 H         1 RES1    0.0000
     16 H5         4.2911    7.9714   11.4133 H         1 RES1    0.0000
     17 C7         7.2085    8.6857    8.6512 C.ar      1 RES1    0.0000
     18 H6         7.9558    8.1844    8.8869 H         1 RES1    0.0000
     19 C8         7.8537   11.1032   13.2227 C.ar      1 RES1    0.0000
     20 C9         6.3803    9.3179   12.1018 C.3       1 RES1    0.0000
     21 H7         5.6980    9.9927   11.9610 H         1 RES1    0.0000
     22 H8         6.1863    8.8755   12.9420 H         1 RES1    0.0000
     23 C10        6.0180    9.9387    6.9992 C.ar      1 RES1    0.0000
     24 H9         5.9572   10.2838    6.1375 H         1 RES1    0.0000
     25 C11        9.0561   11.7609   13.3509 C.ar      1 RES1    0.0000
     26 H10        9.7923   11.5122   12.8403 H         1 RES1    0.0000
     27 C12        8.0589   13.1209   14.9989 C.ar      1 RES1    0.0000
     28 H11        8.0952   13.8151   15.6171 H         1 RES1    0.0000
     29 C13        7.1107    9.2128    7.3787 C.ar      1 RES1    0.0000
     30 H12        7.7996    9.0720    6.7703 H         1 RES1    0.0000
     31 C14        6.9138   12.4073   14.8238 C.ar      1 RES1    0.0000
     32 H13        6.1810   12.6246   15.3540 H         1 RES1    0.0000
     33 C15        9.1400   12.8014   14.2585 C.ar      1 RES1    0.0000
     34 H14        9.9338   13.2754   14.3573 H         1 RES1    0.0000
     35 N3         3.2292    1.9479    8.5211 N.ar      2 RES2    0.0000
     36 C16        2.1077    2.6442    8.3196 C.ar      2 RES2    0.0000
     37 C17        2.7880    5.0489    3.6121 C.ar      2 RES2    0.0000
     38 H15        2.0078    5.5123    3.8136 H         2 RES2    0.0000
     39 O4         1.1768    4.1864    6.8241 O.2       2 RES2    0.0000
     40 C18        4.6547    6.4363    6.3262 C.3       2 RES2    0.0000
     41 H16        4.4500    6.8685    7.1703 H         2 RES2    0.0000
     42 H17        5.5016    5.9715    6.4201 H         2 RES2    0.0000
     43 N4         4.7602    7.4597    5.2523 N.pl3     2 RES2    0.0000
     44 C19        4.8958    4.1746    4.2449 C.ar      2 RES2    0.0000
     45 H18        5.5586    4.0425    4.8836 H         2 RES2    0.0000
     46 C20        3.7392    4.8628    4.5892 C.ar      2 RES2    0.0000
     47 C21        3.5500    5.4314    5.9771 C.3       2 RES2    0.0000
     48 H19        2.6903    5.9005    6.0015 H         2 RES2    0.0000
     49 C22        0.9232    2.3895    8.9837 C.ar      2 RES2    0.0000
     50 H20        0.1621    2.8993    8.8213 H         2 RES2    0.0000
     51 O5         3.7882    8.1442    5.0166 O.2       2 RES2    0.0000
     52 O6         5.8225    7.5409    4.6801 O.2       2 RES2    0.0000
     53 C23        2.1871    3.7710    7.3347 C.2       2 RES2    0.0000
     54 C24        3.5347    4.3474    7.0657 C.3       2 RES2    0.0000
     55 H21        4.1318    3.6307    6.7996 H         2 RES2    0.0000
     56 H22        3.8804    4.7289    7.8883 H         2 RES2    0.0000
     57 C25        0.9069    1.3460    9.9051 C.ar      2 RES2    0.0000
     58 H23        0.1375    1.1597   10.3931 H         2 RES2    0.0000
     59 C26        3.1476    0.9297    9.3818 C.ar      2 RES2    0.0000
     60 H24        3.9079    0.4095    9.5099 H         2 RES2    0.0000
     61 C27        5.0753    3.6835    2.9616 C.ar      2 RES2    0.0000
     62 H25        5.8538    3.2260    2.7406 H         2 RES2    0.0000
     63 C28        2.0334    0.6009   10.0801 C.ar      2 RES2    0.0000
     64 H26        2.0385   -0.1207   10.6680 H         2 RES2    0.0000
     65 C29        2.9766    4.5563    2.3396 C.ar      2 RES2    0.0000
     66 H27        2.3237    4.6910    1.6921 H         2 RES2    0.0000
     67 C30        4.1042    3.8761    2.0227 C.ar      2 RES2    0.0000
     68 H28        4.2162    3.5407    1.1629 H         2 RES2    0.0000
@<TRIPOS>BOND
     1    1   19 ar
     2    2   11 2
     3    3    7 2
     4    4    5 ar
     5    5    6 1
     6    8    3 2
     7    9    5 ar
     8   10    9 1
     9   11   19 1
    10   12    4 1
    11   13   12 1
    12   14    3 1
    13   15   14 1
    14   16   14 1
    15   17    4 ar
    16   18   17 1
    17   19   25 ar
    18   20   11 1
    19   21   20 1
    20   22   20 1
    21   23    9 ar
    22   24   23 1
    23   25   26 1
    24   27   28 1
    25   29   17 ar
    26   30   29 1
    27   31    1 ar
    28   32   31 1
    29   33   25 ar
    30   34   33 1
    31   35   36 ar
    32   36   49 ar
    33   37   38 1
    34   39   53 2
    35   40   41 1
    36   42   40 1
    37   43   40 1
    38   44   45 1
    39   46   37 ar
    40   47   40 1
    41   48   47 1
    42   49   50 1
    43   51   43 2
    44   52   43 2
    45   53   36 1
    46   54   47 1
    47   55   54 1
    48   56   54 1
    49   57   49 ar
    50   58   57 1
    51   59   35 ar
    52   60   59 1
    53   61   44 ar
    54   62   61 1
    55   63   57 ar
    56   64   63 1
    57   65   37 ar
    58   66   65 1
    59   67   61 ar
    60   68   67 1
    61   12   14 1
    62   12   20 1
    63   23   29 ar
    64   27   31 ar
    65   27   33 ar
    66   44   46 ar
    67   46   47 1
    68   53   54 1
    69   59   63 ar
    70   65   67 ar
@<TRIPOS>SUBSTRUCTURE
     1 RES1 1
     2 RES2 35

@<TRIPOS>CRYSIN
   5.9914   23.6681    9.8280  90.0000  95.6150  90.0000   4 1

