# MOL2 file generated by ConQuest
# Please check atom types

@<TRIPOS>MOLECULE
DADBAM
    44    45     1
SMALL
NO_CHARGES
****
Generated from CSD

@<TRIPOS>ATOM
      1 O1         2.0019    8.2378   13.3486 O.2       1 RES1    0.0000
      2 O2         0.8090    7.3171   14.8945 O.2       1 RES1    0.0000
      3 O3         4.0473    1.6562   14.9457 O.3       1 RES1    0.0000
      4 O4         2.8041    2.8322   16.4314 O.3       1 RES1    0.0000
      5 N1         1.5727    7.2588   13.9334 N.pl3     1 RES1    0.0000
      6 C1         0.0327    6.0108   11.7749 C.3       1 RES1    0.0000
      7 C2         0.7226    5.2091   12.8718 C.3       1 RES1    0.0000
      8 C3         1.9725    5.8747   13.4443 C.3       1 RES1    0.0000
      9 C4         2.6130    5.1291   14.6270 C.3       1 RES1    0.0000
     10 C5         3.7740    5.9125   15.2153 C.ar      1 RES1    0.0000
     11 C6         3.7866    6.2226   16.5781 C.ar      1 RES1    0.0000
     12 C7         4.8789    6.8947   17.1320 C.ar      1 RES1    0.0000
     13 C8         5.9486    7.2588   16.3414 C.ar      1 RES1    0.0000
     14 C9         5.9385    6.9638   14.9944 C.ar      1 RES1    0.0000
     15 C10        4.8605    6.2896   14.4325 C.ar      1 RES1    0.0000
     16 C11        3.0581    3.7137   14.2052 C.3       1 RES1    0.0000
     17 C12        3.7128    2.9703   15.3441 C.3       1 RES1    0.0000
     18 C13        4.1898    0.9584   16.2003 C.3       1 RES1    0.0000
     19 C14        4.1295   -0.5273   15.9514 C.3       1 RES1    0.0000
     20 C15        3.0531    1.5430   17.0358 C.3       1 RES1    0.0000
     21 C16        3.3968    1.6813   18.4999 C.3       1 RES1    0.0000
     22 H1        -0.7394    5.5268   11.4755 H         1 RES1    0.0000
     23 H2         0.6229    6.1362   11.0544 H         1 RES1    0.0000
     24 H3        -0.2448    6.8460   12.1264 H         1 RES1    0.0000
     25 H4         0.9691    4.3631   12.5075 H         1 RES1    0.0000
     26 H5         0.1014    5.0729   13.5796 H         1 RES1    0.0000
     27 H6         2.6281    5.9698   12.7564 H         1 RES1    0.0000
     28 H7         1.9415    5.0351   15.2972 H         1 RES1    0.0000
     29 H8         3.0657    5.9503   17.1246 H         1 RES1    0.0000
     30 H9         4.8630    7.1151   18.0626 H         1 RES1    0.0000
     31 H10        6.7165    7.6996   16.7069 H         1 RES1    0.0000
     32 H11        6.6645    7.2307   14.4427 H         1 RES1    0.0000
     33 H12        4.8688    6.0767   13.4978 H         1 RES1    0.0000
     34 H13        3.6927    3.7926   13.4908 H         1 RES1    0.0000
     35 H14        2.3095    3.2210   13.8998 H         1 RES1    0.0000
     36 H15        4.4874    3.4403   15.6401 H         1 RES1    0.0000
     37 H16        5.0197    1.1799   16.5990 H         1 RES1    0.0000
     38 H17        4.2301   -1.0049   16.7678 H         1 RES1    0.0000
     39 H18        4.8437   -0.7855   15.3599 H         1 RES1    0.0000
     40 H19        3.3037   -0.7650   15.5461 H         1 RES1    0.0000
     41 H20        2.2768    0.9865   16.9436 H         1 RES1    0.0000
     42 H21        3.5645    0.8190   18.8770 H         1 RES1    0.0000
     43 H22        2.6817    2.0918   18.9658 H         1 RES1    0.0000
     44 H23        4.1823    2.2129   18.5916 H         1 RES1    0.0000
@<TRIPOS>BOND
     1    1    5 2
     2    2    5 2
     3    3   17 1
     4    4   17 1
     5    5    8 1
     6    6    7 1
     7    7    8 1
     8    8    9 1
     9    9   10 1
    10   10   11 ar
    11   11   12 ar
    12   12   13 ar
    13   13   14 ar
    14   14   15 ar
    15   15   10 ar
    16   16    9 1
    17   17   16 1
    18   18    3 1
    19   19   18 1
    20   20    4 1
    21   21   20 1
    22   22    6 1
    23   23    6 1
    24   24    6 1
    25   25    7 1
    26   26    7 1
    27   27    8 1
    28   28    9 1
    29   29   11 1
    30   30   12 1
    31   31   13 1
    32   32   14 1
    33   33   15 1
    34   34   16 1
    35   35   16 1
    36   36   17 1
    37   37   18 1
    38   38   19 1
    39   39   19 1
    40   40   19 1
    41   41   20 1
    42   42   21 1
    43   43   21 1
    44   44   21 1
    45   18   20 1
@<TRIPOS>SUBSTRUCTURE
     1 RES1 1

@<TRIPOS>CRYSIN
   8.3830   10.8050   17.4030  90.0000  90.0000  90.0000  19 1

