# MOL2 file generated by ConQuest
# Please check atom types

@<TRIPOS>MOLECULE
DADQIJ
    39    40     1
SMALL
NO_CHARGES
****
Generated from CSD

@<TRIPOS>ATOM
      1 N1         2.7042    1.9010   12.2240 N.2       1 RES1    0.0000
      2 N2         2.9998    3.1315   11.6571 N.pl3     1 RES1    0.0000
      3 H1         3.4421    3.7157   12.1073 H         1 RES1    0.0000
      4 C1         3.1807    1.7442   13.4016 C.2       1 RES1    0.0000
      5 H2         3.6689    2.4389   13.7815 H         1 RES1    0.0000
      6 C2         2.5991    3.4146   10.4029 C.ar      1 RES1    0.0000
      7 C3         2.2674   -0.5642   13.6945 C.ar      1 RES1    0.0000
      8 H3         1.8863   -0.5242   12.8473 H         1 RES1    0.0000
      9 C4         2.9878    0.5263   14.1714 C.ar      1 RES1    0.0000
     10 O1         4.0715    5.5177   11.5414 O.2       1 RES1    0.0000
     11 N3         2.5087   -2.9578   16.4839 N.3       1 RES1    0.0000
     12 C5         2.1052   -1.6968   14.4498 C.ar      1 RES1    0.0000
     13 H4         1.6158   -2.4073   14.1023 H         1 RES1    0.0000
     14 C6         2.6621   -1.8105   15.7361 C.ar      1 RES1    0.0000
     15 C7         3.5310    0.4210   15.4391 C.ar      1 RES1    0.0000
     16 H5         4.0105    1.1400   15.7843 H         1 RES1    0.0000
     17 C8         2.8987    4.6399    9.7578 C.ar      1 RES1    0.0000
     18 N4         3.6973    5.6609   10.3739 N.pl3     1 RES1    0.0000
     19 C9         2.4366    4.9104    8.4787 C.ar      1 RES1    0.0000
     20 H6         2.6233    5.7272    8.0758 H         1 RES1    0.0000
     21 C10        3.3843   -0.7073   16.2073 C.ar      1 RES1    0.0000
     22 H7         3.7701   -0.7400   17.0522 H         1 RES1    0.0000
     23 N5         1.2082    4.2546    6.4829 N.pl3     1 RES1    0.0000
     24 C11        1.7037    3.9641    7.8171 C.ar      1 RES1    0.0000
     25 O2         1.3643    5.3946    6.0410 O.2       1 RES1    0.0000
     26 C12        2.9011   -2.9652   17.8763 C.3       1 RES1    0.0000
     27 H8         3.8125   -2.6715   17.9526 H         1 RES1    0.0000
     28 H9         2.8213   -3.8557   18.2269 H         1 RES1    0.0000
     29 H10        2.3311   -2.3736   18.3718 H         1 RES1    0.0000
     30 C13        1.8396    2.4778    9.6651 C.ar      1 RES1    0.0000
     31 H11        1.6346    1.6568   10.0502 H         1 RES1    0.0000
     32 O3         3.9959    6.6619    9.7278 O.2       1 RES1    0.0000
     33 O4         0.6896    3.3620    5.8459 O.2       1 RES1    0.0000
     34 C14        1.4026    2.7441    8.4133 C.ar      1 RES1    0.0000
     35 H12        0.9009    2.1115    7.9516 H         1 RES1    0.0000
     36 C15        1.5986   -3.9915   16.0660 C.3       1 RES1    0.0000
     37 H13        0.7228   -3.6157   15.9421 H         1 RES1    0.0000
     38 H14        1.5601   -4.6756   16.7391 H         1 RES1    0.0000
     39 H15        1.9035   -4.3714   15.2383 H         1 RES1    0.0000
@<TRIPOS>BOND
     1    1    2 1
     2    2    3 1
     3    4    1 2
     4    5    4 1
     5    6    2 1
     6    7    8 1
     7    9    4 1
     8   10   18 2
     9   11   14 1
    10   12    7 ar
    11   13   12 1
    12   14   12 ar
    13   15    9 ar
    14   16   15 1
    15   17    6 ar
    16   18   17 1
    17   19   17 ar
    18   20   19 1
    19   21   14 ar
    20   22   21 1
    21   23   24 1
    22   24   19 ar
    23   25   23 2
    24   26   11 1
    25   27   26 1
    26   28   26 1
    27   29   26 1
    28   30    6 ar
    29   31   30 1
    30   32   18 2
    31   33   23 2
    32   34   24 ar
    33   35   34 1
    34   36   11 1
    35   37   36 1
    36   38   36 1
    37   39   36 1
    38    7    9 ar
    39   15   21 ar
    40   30   34 ar
@<TRIPOS>SUBSTRUCTURE
     1 RES1 1

@<TRIPOS>CRYSIN
  11.2430   10.5260   26.0290  90.0000  96.2190  90.0000  15 1

