# MOL2 file generated by ConQuest
# Please check atom types

@<TRIPOS>MOLECULE
DADSIN
    58    60     1
SMALL
NO_CHARGES
****
Generated from CSD

@<TRIPOS>ATOM
      1 O1        10.2692    2.1531    4.2414 O.3       1 RES1    0.0000
      2 O2         7.4993    1.7474    7.2907 O.3       1 RES1    0.0000
      3 O3         9.3290    0.0977    4.3956 O.2       1 RES1    0.0000
      4 O4         7.9714   -2.0490   -1.4549 O.2       1 RES1    0.0000
      5 O5         8.3258   -0.1567   -2.4288 O.2       1 RES1    0.0000
      6 N1         6.7450    1.3492    4.6559 N.3       1 RES1    0.0000
      7 N2         8.0314   -0.8222   -1.4405 N.pl3     1 RES1    0.0000
      8 C1        12.4094    2.9624    3.7586 C.3       1 RES1    0.0000
      9 H1        12.0044    3.5001    3.0452 H         1 RES1    0.0000
     10 H2        13.3400    2.7595    3.5260 H         1 RES1    0.0000
     11 H3        12.3846    3.4647    4.6003 H         1 RES1    0.0000
     12 C2         9.1843    0.3800    8.1588 C.3       1 RES1    0.0000
     13 H4         9.6120    0.3145    7.2794 H         1 RES1    0.0000
     14 H5         9.4142   -0.4089    8.6943 H         1 RES1    0.0000
     15 H6         9.5002    1.1871    8.6173 H         1 RES1    0.0000
     16 C3         4.1111    3.1695    7.3872 C.ar      1 RES1    0.0000
     17 H7         3.5292    3.6053    7.9997 H         1 RES1    0.0000
     18 C4         5.3690    2.7584    7.8012 C.ar      1 RES1    0.0000
     19 H8         5.6501    2.9151    8.6943 H         1 RES1    0.0000
     20 C5         6.9805    0.4766    9.3427 C.3       1 RES1    0.0000
     21 H9         7.2960    1.2493    9.8559 H         1 RES1    0.0000
     22 H10        7.1898   -0.3478    9.8302 H         1 RES1    0.0000
     23 H11        6.0110    0.5431    9.2144 H         1 RES1    0.0000
     24 C6         7.1422    1.2311    2.1411 C.ar      1 RES1    0.0000
     25 C7         7.2874   -0.1589    2.1471 C.ar      1 RES1    0.0000
     26 H12        7.1852   -0.6408    2.9597 H         1 RES1    0.0000
     27 C8         7.2449    1.9159    0.9338 C.ar      1 RES1    0.0000
     28 H13        7.1104    2.8561    0.9170 H         1 RES1    0.0000
     29 C9         7.6721    0.4519    7.9858 C.3       1 RES1    0.0000
     30 C10        5.8265    1.9481    5.5753 C.ar      1 RES1    0.0000
     31 C11        7.9853    2.0940    4.4731 C.3       1 RES1    0.0000
     32 H14        8.0518    2.9624    4.9647 H         1 RES1    0.0000
     33 C12        7.7061   -0.1159   -0.1950 C.ar      1 RES1    0.0000
     34 C13       11.6319    1.6647    3.9194 C.3       1 RES1    0.0000
     35 C14        7.5417    1.2504   -0.2395 C.ar      1 RES1    0.0000
     36 H15        7.6290    1.7248   -1.0573 H         1 RES1    0.0000
     37 C15       12.1842    0.8468    5.0725 C.3       1 RES1    0.0000
     38 H16       12.1132    1.3642    5.9023 H         1 RES1    0.0000
     39 H17       13.1244    0.6322    4.8997 H         1 RES1    0.0000
     40 H18       11.6701    0.0172    5.1598 H         1 RES1    0.0000
     41 C16       11.5860    0.8887    2.6124 C.3       1 RES1    0.0000
     42 H19       11.1063    0.0451    2.7510 H         1 RES1    0.0000
     43 H20       12.4981    0.7009    2.3130 H         1 RES1    0.0000
     44 H21       11.1212    1.4211    1.9332 H         1 RES1    0.0000
     45 C17        6.9366    2.0296    3.3766 C.3       1 RES1    0.0000
     46 H22        6.3992    2.8636    3.2556 H         1 RES1    0.0000
     47 C18        3.6993    2.9484    6.0853 C.ar      1 RES1    0.0000
     48 H23        2.8283    3.2124    5.8133 H         1 RES1    0.0000
     49 C19        4.5494    2.3452    5.1837 C.ar      1 RES1    0.0000
     50 H24        4.2624    2.1982    4.2907 H         1 RES1    0.0000
     51 C20        6.2179    2.1177    6.9096 C.ar      1 RES1    0.0000
     52 C21        9.2450    1.2944    4.3779 C.2       1 RES1    0.0000
     53 C22        7.1561   -0.6730    7.1135 C.3       1 RES1    0.0000
     54 H25        6.1955   -0.5538    6.9595 H         1 RES1    0.0000
     55 H26        7.3107   -1.5316    7.5617 H         1 RES1    0.0000
     56 H27        7.6277   -0.6644    6.2547 H         1 RES1    0.0000
     57 C23        7.5783   -0.8383    0.9734 C.ar      1 RES1    0.0000
     58 H28        7.6884   -1.7817    0.9752 H         1 RES1    0.0000
@<TRIPOS>BOND
     1    1   34 1
     2    2   29 1
     3    3   52 2
     4    4    7 2
     5    5    7 2
     6    6   30 1
     7    7   33 1
     8    8    9 1
     9   10    8 1
    10   11    8 1
    11   12   13 1
    12   14   12 1
    13   15   12 1
    14   16   17 1
    15   18   16 ar
    16   19   18 1
    17   20   21 1
    18   22   20 1
    19   23   20 1
    20   24   25 ar
    21   25   26 1
    22   27   24 ar
    23   28   27 1
    24   29   12 1
    25   30   49 ar
    26   31    6 1
    27   32   31 1
    28   33   35 ar
    29   34    8 1
    30   35   27 ar
    31   36   35 1
    32   37   34 1
    33   38   37 1
    34   39   37 1
    35   40   37 1
    36   41   34 1
    37   42   41 1
    38   43   41 1
    39   44   41 1
    40   45    6 1
    41   46   45 1
    42   47   16 ar
    43   48   47 1
    44   49   47 ar
    45   50   49 1
    46   51    2 1
    47   52    1 1
    48   53   29 1
    49   54   53 1
    50   55   53 1
    51   56   53 1
    52   57   25 ar
    53   58   57 1
    54   18   51 ar
    55   20   29 1
    56   24   45 1
    57   30   51 ar
    58   31   45 1
    59   31   52 1
    60   33   57 ar
@<TRIPOS>SUBSTRUCTURE
     1 RES1 1

@<TRIPOS>CRYSIN
  11.8592   10.7332   17.2217  90.0000  96.5880  90.0000 231 1

