# MOL2 file generated by ConQuest
# Please check atom types

@<TRIPOS>MOLECULE
DADYIS
    36    36     1
SMALL
NO_CHARGES
****
Generated from CSD

@<TRIPOS>ATOM
      1 C1         7.1866   14.1210    4.0754 C.2       1 RES1    0.0000
      2 H1         7.2529   13.7180    4.9328 H         1 RES1    0.0000
      3 C2         8.2320   14.4248    3.2472 C.2       1 RES1    0.0000
      4 H2         9.1524   14.2710    3.4229 H         1 RES1    0.0000
      5 C3         7.6897   15.0109    2.0822 C.2       1 RES1    0.0000
      6 H3         8.1785   15.3257    1.3312 H         1 RES1    0.0000
      7 C4         6.3208   15.0424    2.2363 C.2       1 RES1    0.0000
      8 C5         5.2844   15.5875    1.3033 C.3       1 RES1    0.0000
      9 H4         5.7586   15.9114    0.4851 H         1 RES1    0.0000
     10 C6         4.4725   16.7766    1.8721 C.3       1 RES1    0.0000
     11 H5         3.9202   16.4597    2.6427 H         1 RES1    0.0000
     12 C7         3.5681   17.4041    0.8360 C.3       1 RES1    0.0000
     13 H6         3.1336   18.1958    1.2178 H         1 RES1    0.0000
     14 H7         2.8852   16.7561    0.5629 H         1 RES1    0.0000
     15 H8         4.0986   17.6684    0.0558 H         1 RES1    0.0000
     16 C8         4.2876   14.5111    0.8604 C.2       1 RES1    0.0000
     17 C9         2.4525   13.1211    1.7496 C.3       1 RES1    0.0000
     18 C10        1.3662   13.7544    0.8977 C.3       1 RES1    0.0000
     19 H9         1.1326   14.6327    1.2659 H         1 RES1    0.0000
     20 H10        0.5737   13.1790    0.8977 H         1 RES1    0.0000
     21 H11        1.6925   13.8627   -0.0202 H         1 RES1    0.0000
     22 C11        2.9706   11.8095    1.1928 C.3       1 RES1    0.0000
     23 H12        3.2824   11.9446    0.2737 H         1 RES1    0.0000
     24 H13        2.2504   11.1443    1.1988 H         1 RES1    0.0000
     25 H14        3.7142   11.4896    1.7462 H         1 RES1    0.0000
     26 C12        1.9984   12.9683    3.1967 C.3       1 RES1    0.0000
     27 H15        2.7354   12.6096    3.7340 H         1 RES1    0.0000
     28 H16        1.2361   12.3530    3.2365 H         1 RES1    0.0000
     29 H17        1.7319   13.8440    3.5494 H         1 RES1    0.0000
     30 H18        5.3318   14.4297    3.7940 H         1 RES1    0.0000
     31 N1         6.0336   14.4971    3.4559 N.pl3     1 RES1    0.0000
     32 N2         5.4738   17.7954    2.3643 N.pl3     1 RES1    0.0000
     33 O1         3.5683   14.0990    1.9019 O.3       1 RES1    0.0000
     34 O2         4.1852   14.1133   -0.2723 O.2       1 RES1    0.0000
     35 O3         6.1415   18.3883    1.5419 O.2       1 RES1    0.0000
     36 O4         5.5668   17.9638    3.5639 O.2       1 RES1    0.0000
@<TRIPOS>BOND
     1    1    2 1
     2    3    1 2
     3    4    3 1
     4    5    3 1
     5    6    5 1
     6    7    5 2
     7    8    7 1
     8    9    8 1
     9   10    8 1
    10   11   10 1
    11   12   10 1
    12   13   12 1
    13   14   12 1
    14   15   12 1
    15   16    8 1
    16   17   18 1
    17   18   19 1
    18   20   18 1
    19   21   18 1
    20   22   17 1
    21   23   22 1
    22   24   22 1
    23   25   22 1
    24   26   17 1
    25   27   26 1
    26   28   26 1
    27   29   26 1
    28   30   31 1
    29   31    1 1
    30   32   10 1
    31   33   16 1
    32   34   16 2
    33   35   32 2
    34   36   32 2
    35    7   31 1
    36   17   33 1
@<TRIPOS>SUBSTRUCTURE
     1 RES1 1

@<TRIPOS>CRYSIN
   9.8572   23.3339    5.9374  90.0000  90.0000  90.0000  18 1

