# MOL2 file generated by ConQuest
# Please check atom types

@<TRIPOS>MOLECULE
DADYEO
    45    46     1
SMALL
NO_CHARGES
****
Generated from CSD

@<TRIPOS>ATOM
      1 C1         4.5914    8.6963    5.5856 C.3       1 RES1    0.0000
      2 H1         4.2814    8.2613    4.7887 H         1 RES1    0.0000
      3 H2         5.0953    9.4782    5.3489 H         1 RES1    0.0000
      4 H3         3.8388    8.9520    6.1234 H         1 RES1    0.0000
      5 C2         5.4557    7.7656    6.3534 C.2       1 RES1    0.0000
      6 C3         5.7370    6.4302    6.1874 C.2       1 RES1    0.0000
      7 C4         6.6815    6.0553    7.2130 C.ar      1 RES1    0.0000
      8 C5         7.3669    4.8808    7.5487 C.ar      1 RES1    0.0000
      9 C6         8.2433    4.9032    8.6212 C.ar      1 RES1    0.0000
     10 C7         8.4427    6.0678    9.3685 C.ar      1 RES1    0.0000
     11 C8         7.7886    7.2339    9.0661 C.ar      1 RES1    0.0000
     12 H4         7.9211    8.0045    9.5692 H         1 RES1    0.0000
     13 C9         6.9170    7.2238    7.9759 C.ar      1 RES1    0.0000
     14 C10        3.1312    3.8734    4.8294 C.3       1 RES1    0.0000
     15 C11        3.9715    4.6367    5.8355 C.3       1 RES1    0.0000
     16 H5         4.3997    4.0014    6.4466 H         1 RES1    0.0000
     17 C12        5.0545    5.5310    5.1902 C.3       1 RES1    0.0000
     18 H6         4.6218    6.0960    4.5159 H         1 RES1    0.0000
     19 C13        6.0611    4.6296    4.4788 C.2       1 RES1    0.0000
     20 C14        7.6799    4.6378    2.6257 C.3       1 RES1    0.0000
     21 C15        7.1242    3.4029    1.9595 C.3       1 RES1    0.0000
     22 H7         6.9354    2.7380    2.6257 H         1 RES1    0.0000
     23 H8         7.7679    3.0588    1.3364 H         1 RES1    0.0000
     24 H9         6.3159    3.6274    1.4923 H         1 RES1    0.0000
     25 C16        7.9731    5.7195    1.6006 C.3       1 RES1    0.0000
     26 H10        7.1743    5.9148    1.1042 H         1 RES1    0.0000
     27 H11        8.6564    5.4136    1.0003 H         1 RES1    0.0000
     28 H12        8.2730    6.5125    2.0493 H         1 RES1    0.0000
     29 C17        8.8862    4.3547    3.4883 C.3       1 RES1    0.0000
     30 H13        9.1635    5.1626    3.9264 H         1 RES1    0.0000
     31 H14        9.6022    4.0263    2.9391 H         1 RES1    0.0000
     32 H15        8.6604    3.6947    4.1472 H         1 RES1    0.0000
     33 H16        7.2498    4.0563    7.0506 H         1 RES1    0.0000
     34 H17        8.6723    4.1061    8.8839 H         1 RES1    0.0000
     35 H18        9.0209    5.9763   10.1164 H         1 RES1    0.0000
     36 H19        6.0953    9.0185    7.7326 H         1 RES1    0.0000
     37 H20        2.4049    3.4162    5.2709 H         1 RES1    0.0000
     38 H21        2.7353    4.5051    4.2171 H         1 RES1    0.0000
     39 H22        3.7057    3.2749    4.3502 H         1 RES1    0.0000
     40 N1         6.1712    8.2301    7.4363 N.pl3     1 RES1    0.0000
     41 N2         3.0854    5.5662    6.6281 N.pl3     1 RES1    0.0000
     42 O1         2.2623    6.2343    6.0366 O.2       1 RES1    0.0000
     43 O2         3.2684    5.6427    7.8356 O.2       1 RES1    0.0000
     44 O3         6.3025    3.4984    4.8197 O.2       1 RES1    0.0000
     45 O4         6.6210    5.2810    3.4639 O.3       1 RES1    0.0000
@<TRIPOS>BOND
     1    1    2 1
     2    3    1 1
     3    4    1 1
     4    5    1 1
     5    6    5 2
     6    7    6 1
     7    8    7 ar
     8    9    8 ar
     9   10    9 ar
    10   11   10 ar
    11   12   11 1
    12   13    7 ar
    13   14   15 1
    14   15   16 1
    15   17    6 1
    16   18   17 1
    17   19   17 1
    18   20   21 1
    19   21   22 1
    20   23   21 1
    21   24   21 1
    22   25   20 1
    23   26   25 1
    24   27   25 1
    25   28   25 1
    26   29   20 1
    27   30   29 1
    28   31   29 1
    29   32   29 1
    30   33    8 1
    31   34    9 1
    32   35   10 1
    33   36   40 1
    34   37   14 1
    35   38   14 1
    36   39   14 1
    37   40    5 1
    38   41   15 1
    39   42   41 2
    40   43   41 2
    41   44   19 2
    42   45   19 1
    43   11   13 ar
    44   13   40 1
    45   15   17 1
    46   20   45 1
@<TRIPOS>SUBSTRUCTURE
     1 RES1 1

@<TRIPOS>CRYSIN
  13.2520    8.3120   16.8890  90.0000 105.9570  90.0000 231 1

