# MOL2 file generated by ConQuest
# Please check atom types

@<TRIPOS>MOLECULE
DAFGAS
    60    68     2
SMALL
NO_CHARGES
****
Generated from CSD

@<TRIPOS>ATOM
      1 C1        -0.6944    5.5166    4.7026 C.3       1 RES1    0.0000
      2 C2        -1.3203    6.6102    6.6238 C.3       1 RES1    0.0000
      3 C3         0.1482    7.0702    6.4438 C.3       1 RES1    0.0000
      4 C4         0.6204    6.0674    5.3493 C.3       1 RES1    0.0000
      5 C5         0.7917    4.7185    6.1327 C.3       1 RES1    0.0000
      6 C6        -0.6792    4.4114    5.7579 C.3       1 RES1    0.0000
      7 C7        -1.0826    5.1486    7.0743 C.3       1 RES1    0.0000
      8 C8         0.4003    5.1014    7.5721 C.3       1 RES1    0.0000
      9 C9        -1.7471    6.4883    5.1477 C.3       1 RES1    0.0000
     10 C10        0.8453    6.5343    7.6912 C.3       1 RES1    0.0000
     11 N1        -1.6894    7.8200    4.4172 N.pl3     1 RES1    0.0000
     12 N2        -3.1659    5.9834    4.9272 N.pl3     1 RES1    0.0000
     13 N3         2.3502    6.6850    7.6195 N.pl3     1 RES1    0.0000
     14 N4         0.4473    7.2416    8.9845 N.pl3     1 RES1    0.0000
     15 O1        -1.0660    7.8522    3.3876 O.2       1 RES1    0.0000
     16 O2        -2.2389    8.7515    4.9191 O.2       1 RES1    0.0000
     17 O3        -3.4929    5.0359    5.5793 O.2       1 RES1    0.0000
     18 O4        -3.8446    6.5217    4.0857 O.2       1 RES1    0.0000
     19 O5         2.8120    7.5452    6.9173 O.2       1 RES1    0.0000
     20 O6         3.0104    5.9053    8.2743 O.2       1 RES1    0.0000
     21 O7         1.1846    8.0903    9.4080 O.2       1 RES1    0.0000
     22 O8        -0.6026    6.9069    9.4675 O.2       1 RES1    0.0000
     23 C11       -2.0514   -1.2409   -0.6440 C.3       2 RES2    0.0000
     24 C12       -2.7837    0.3289    0.8537 C.3       2 RES2    0.0000
     25 C13       -1.3669    0.8499    0.4979 C.3       2 RES2    0.0000
     26 C14       -0.7947   -0.4025   -0.2395 C.3       2 RES2    0.0000
     27 C15       -0.4959   -1.4064    0.9321 C.3       2 RES2    0.0000
     28 C16       -1.9260   -1.9538    0.7035 C.3       2 RES2    0.0000
     29 C17       -2.4057   -0.8843    1.7466 C.3       2 RES2    0.0000
     30 C18       -0.9239   -0.6394    2.1903 C.3       2 RES2    0.0000
     31 C19       -3.2189   -0.2898   -0.4708 C.3       2 RES2    0.0000
     32 C20       -0.6540    0.7970    1.8386 C.3       2 RES2    0.0000
     33 N5        -3.3748    0.7544   -1.5599 N.pl3     2 RES2    0.0000
     34 N6        -4.5397   -1.0431   -0.4180 N.pl3     2 RES2    0.0000
     35 N7         0.8438    1.1132    1.7398 N.pl3     2 RES2    0.0000
     36 N8        -1.2066    1.8228    2.8032 N.pl3     2 RES2    0.0000
     37 O9        -2.4709    0.8786   -2.3351 O.2       2 RES2    0.0000
     38 O10       -4.3881    1.3995   -1.5355 O.2       2 RES2    0.0000
     39 O11       -4.9395   -1.4019    0.6413 O.2       2 RES2    0.0000
     40 O12       -5.0266   -1.3593   -1.4395 O.2       2 RES2    0.0000
     41 O13        1.2401    1.6341    0.7576 O.2       2 RES2    0.0000
     42 O14        1.5175    0.7579    2.6490 O.2       2 RES2    0.0000
     43 O15       -0.8385    2.9590    2.6598 O.2       2 RES2    0.0000
     44 O16       -2.0265    1.4513    3.6055 O.2       2 RES2    0.0000
     45 H1        -0.7017    5.3210    3.8219 H         1 RES1    0.0000
     46 H2        -1.8428    7.0748    7.1744 H         1 RES1    0.0000
     47 H3         0.2713    7.9822    6.2422 H         1 RES1    0.0000
     48 H4         1.3425    6.3722    4.7405 H         1 RES1    0.0000
     49 H5         1.5259    4.1883    5.9324 H         1 RES1    0.0000
     50 H6        -1.0369    3.5984    5.5644 H         1 RES1    0.0000
     51 H7        -1.7249    4.8346    7.5708 H         1 RES1    0.0000
     52 H8         0.5476    4.5897    8.2702 H         1 RES1    0.0000
     53 H9        -2.0743   -1.7871   -1.4395 H         2 RES2    0.0000
     54 H10       -3.3647    0.9580    1.2325 H         2 RES2    0.0000
     55 H11       -1.3177    1.6514    0.0203 H         2 RES2    0.0000
     56 H12       -0.1023   -0.2611   -0.8983 H         2 RES2    0.0000
     57 H13        0.2079   -1.8941    0.9511 H         2 RES2    0.0000
     58 H14       -2.1302   -2.7646    0.7522 H         2 RES2    0.0000
     59 H15       -3.0738   -1.0879    2.3310 H         2 RES2    0.0000
     60 H16       -0.7156   -0.9533    3.1333 H         2 RES2    0.0000
@<TRIPOS>BOND
     1    1    4 1
     2    2    3 1
     3    3    4 1
     4    4    5 1
     5    5    6 1
     6    6    1 1
     7    7    2 1
     8    8    5 1
     9    9    1 1
    10   10    3 1
    11   11    9 1
    12   12    9 1
    13   13   10 1
    14   14   10 1
    15   15   11 2
    16   16   11 2
    17   17   12 2
    18   18   12 2
    19   19   13 2
    20   20   13 2
    21   21   14 2
    22   22   14 2
    23   23   26 1
    24   24   25 1
    25   25   26 1
    26   26   27 1
    27   27   28 1
    28   28   23 1
    29   29   24 1
    30   30   27 1
    31   31   23 1
    32   32   25 1
    33   33   31 1
    34   34   31 1
    35   35   32 1
    36   36   32 1
    37   37   33 2
    38   38   33 2
    39   39   34 2
    40   40   34 2
    41   41   35 2
    42   42   35 2
    43   43   36 2
    44   44   36 2
    45   45    1 1
    46   46    2 1
    47   47    3 1
    48   48    4 1
    49   49    5 1
    50   50    6 1
    51   51    7 1
    52   52    8 1
    53   53   23 1
    54   54   24 1
    55   55   25 1
    56   56   26 1
    57   57   27 1
    58   58   28 1
    59   59   29 1
    60   60   30 1
    61    2    9 1
    62    6    7 1
    63    7    8 1
    64    8   10 1
    65   24   31 1
    66   28   29 1
    67   29   30 1
    68   30   32 1
@<TRIPOS>SUBSTRUCTURE
     1 RES1 1
     2 RES2 23

@<TRIPOS>CRYSIN
   7.7610   11.5000   14.2770  90.0000 108.6300  90.0000   7 1

