# MOL2 file generated by ConQuest
# Please check atom types

@<TRIPOS>MOLECULE
DAFHEY
    52    54     1
SMALL
NO_CHARGES
****
Generated from CSD

@<TRIPOS>ATOM
      1 C1         4.7729    9.1040   -1.8716 C.ar      1 RES1    0.0000
      2 C2         4.7967    8.4212   -3.0664 C.ar      1 RES1    0.0000
      3 H1         4.4602    8.8048   -3.8439 H         1 RES1    0.0000
      4 C3         5.3314    7.1560   -3.0773 C.ar      1 RES1    0.0000
      5 H2         5.3763    6.6818   -3.8766 H         1 RES1    0.0000
      6 C4         5.8062    6.5806   -1.9093 C.ar      1 RES1    0.0000
      7 H3         6.1615    5.7212   -1.9319 H         1 RES1    0.0000
      8 C5         5.7589    7.2695   -0.7057 C.ar      1 RES1    0.0000
      9 C6         5.2424    8.5574   -0.6961 C.ar      1 RES1    0.0000
     10 H4         5.2139    9.0461    0.0942 H         1 RES1    0.0000
     11 C7         6.2147    6.6887    0.5848 C.2       1 RES1    0.0000
     12 C8         7.3177    4.8580    1.7175 C.2       1 RES1    0.0000
     13 C9         7.0850    5.5986    2.9273 C.2       1 RES1    0.0000
     14 C10        6.4282    6.7762    2.8533 C.2       1 RES1    0.0000
     15 C11        6.1588    7.5511    4.1245 C.2       1 RES1    0.0000
     16 C12        4.7730    7.4560    6.1572 C.3       1 RES1    0.0000
     17 C13        3.5683    6.6217    6.4102 C.3       1 RES1    0.0000
     18 H5         2.9144    6.7891    5.7269 H         1 RES1    0.0000
     19 H6         3.1993    6.8432    7.2674 H         1 RES1    0.0000
     20 H7         3.8144    5.6938    6.3975 H         1 RES1    0.0000
     21 C14        5.9148    7.1895    7.0807 C.3       1 RES1    0.0000
     22 H8         6.1700    6.2662    7.0155 H         1 RES1    0.0000
     23 H9         5.6506    7.3859    7.9815 H         1 RES1    0.0000
     24 H10        6.6586    7.7444    6.8361 H         1 RES1    0.0000
     25 C15        4.4280    8.9274    6.1945 C.3       1 RES1    0.0000
     26 H11        5.2121    9.4442    5.9933 H         1 RES1    0.0000
     27 H12        4.1107    9.1588    7.0717 H         1 RES1    0.0000
     28 H13        3.7455    9.1138    5.5475 H         1 RES1    0.0000
     29 C16        8.1443    4.0587    4.4492 C.3       1 RES1    0.0000
     30 H14        8.9410    3.9894    3.9001 H         1 RES1    0.0000
     31 H15        7.5813    3.2907    4.2626 H         1 RES1    0.0000
     32 C17        8.5310    4.0602    5.9029 C.ar      1 RES1    0.0000
     33 C18        8.3716    2.9146    6.6384 C.ar      1 RES1    0.0000
     34 H16        8.0000    2.1595    6.2434 H         1 RES1    0.0000
     35 C19        8.7576    2.8758    7.9615 C.ar      1 RES1    0.0000
     36 H17        8.6412    2.0963    8.4563 H         1 RES1    0.0000
     37 C20        9.3113    3.9757    8.5478 C.ar      1 RES1    0.0000
     38 H18        9.5648    3.9476    9.4422 H         1 RES1    0.0000
     39 C21        9.4889    5.0985    7.8383 C.ar      1 RES1    0.0000
     40 H19        9.8788    5.8422    8.2370 H         1 RES1    0.0000
     41 C22        9.0953    5.1564    6.5086 C.ar      1 RES1    0.0000
     42 H20        9.2145    5.9419    6.0260 H         1 RES1    0.0000
     43 N1         4.2399   10.4749   -1.8393 N.pl3     1 RES1    0.0000
     44 N2         5.9940    7.3540    1.6922 N.2       1 RES1    0.0000
     45 N3         6.8370    5.4822    0.5879 N.am      1 RES1    0.0000
     46 H21        6.9378    5.0810   -0.1667 H         1 RES1    0.0000
     47 O1         4.2134   11.0701   -0.7760 O.2       1 RES1    0.0000
     48 O2         3.8566   10.9697   -2.8852 O.2       1 RES1    0.0000
     49 O3         7.9003    3.7717    1.6296 O.2       1 RES1    0.0000
     50 O4         6.8015    8.5011    4.4467 O.2       1 RES1    0.0000
     51 O5         7.4847    5.1822    4.1442 O.3       1 RES1    0.0000
     52 O6         5.1652    7.0342    4.7780 O.3       1 RES1    0.0000
@<TRIPOS>BOND
     1    1    2 ar
     2    2    3 1
     3    4    2 ar
     4    5    4 1
     5    6    4 ar
     6    7    6 1
     7    8    6 ar
     8    9    1 ar
     9   10    9 1
    10   11    8 1
    11   12   13 1
    12   13   14 2
    13   14   15 1
    14   15   50 2
    15   16   17 1
    16   17   18 1
    17   19   17 1
    18   20   17 1
    19   21   16 1
    20   22   21 1
    21   23   21 1
    22   24   21 1
    23   25   16 1
    24   26   25 1
    25   27   25 1
    26   28   25 1
    27   29   30 1
    28   31   29 1
    29   32   29 1
    30   33   32 ar
    31   34   33 1
    32   35   33 ar
    33   36   35 1
    34   37   35 ar
    35   38   37 1
    36   39   37 ar
    37   40   39 1
    38   41   32 ar
    39   42   41 1
    40   43    1 1
    41   44   11 2
    42   45   11 1
    43   46   45 1
    44   47   43 2
    45   48   43 2
    46   49   12 2
    47   51   13 1
    48   52   15 1
    49    8    9 ar
    50   12   45 1
    51   14   44 1
    52   16   52 1
    53   29   51 1
    54   39   41 ar
@<TRIPOS>SUBSTRUCTURE
     1 RES1 1

@<TRIPOS>CRYSIN
  15.3560    7.6120   18.1300  90.0000  91.5680  90.0000 231 1

