# MOL2 file generated by ConQuest
# Please check atom types

@<TRIPOS>MOLECULE
DAFPUV
    22    22     2
SMALL
NO_CHARGES
****
Generated from CSD

@<TRIPOS>ATOM
      1 O1         0.7239    0.9316    0.0000 O.3       1 RES1    0.0000
      2 O2        -0.8562    3.9057    2.7610 O.2       1 RES1    0.0000
      3 O3        -1.4388    4.1965    0.6990 O.2       1 RES1    0.0000
      4 N1         0.0045    2.0603   -0.0163 N.2       1 RES1    0.0000
      5 N2         1.0717    0.5573    1.3154 N.2       1 RES1    0.0000
      6 N3        -0.8695    3.5934    1.5887 N.pl3     1 RES1    0.0000
      7 N4         0.6674    1.4965    3.4157 N.3       1 RES1    0.0000
      8 C1        -0.1189    2.3979    1.2270 C.2       1 RES1    0.0000
      9 C2         0.5559    1.4733    2.0853 C.2       1 RES1    0.0000
     10 H1         0.8472    0.6893    3.7216 H         1 RES1    0.0000
     11 H2         0.3270    2.0732    3.8263 H         1 RES1    0.0000
     12 O4         2.9446    4.2482    5.3893 O.3       2 RES2    0.0000
     13 O5         4.7089    1.3775    2.6016 O.2       2 RES2    0.0000
     14 O6         5.1236    0.9925    4.7276 O.2       2 RES2    0.0000
     15 N5         3.6922    3.1351    5.4161 N.2       2 RES2    0.0000
     16 N6         2.6205    4.6424    4.0612 N.2       2 RES2    0.0000
     17 N7         4.6286    1.6273    3.8298 N.pl3     2 RES2    0.0000
     18 N8         3.0962    3.6823    1.9527 N.3       2 RES2    0.0000
     19 C3         3.8527    2.8094    4.1659 C.2       2 RES2    0.0000
     20 C4         3.1898    3.7291    3.2983 C.2       2 RES2    0.0000
     21 H3         2.7944    4.3457    1.6282 H         2 RES2    0.0000
     22 H4         3.7160    3.0102    1.4538 H         2 RES2    0.0000
@<TRIPOS>BOND
     1    1    4 1
     2    2    6 2
     3    3    6 2
     4    4    8 2
     5    5    1 1
     6    6    8 1
     7    7    9 1
     8    8    9 1
     9    9    5 2
    10   10    7 1
    11   11    7 1
    12   12   15 1
    13   13   17 2
    14   14   17 2
    15   15   19 2
    16   16   12 1
    17   17   19 1
    18   18   20 1
    19   19   20 1
    20   20   16 2
    21   21   18 1
    22   22   18 1
@<TRIPOS>SUBSTRUCTURE
     1 RES1 1
     2 RES2 12

@<TRIPOS>CRYSIN
  14.8640    5.3850   11.6300  90.0000  90.0000  90.0000  33 1

