# MOL2 file generated by ConQuest
# Please check atom types

@<TRIPOS>MOLECULE
DAFPAB
    21    20     1
SMALL
NO_CHARGES
****
Generated from CSD

@<TRIPOS>ATOM
      1 O1         3.3368    3.7078    3.6230 O.3       1 RES1    0.0000
      2 O2         4.5890    6.2779    0.4165 O.3       1 RES1    0.0000
      3 N1         2.5254    7.8249    2.8012 N.pl3     1 RES1    0.0000
      4 N2         3.8914    7.3537    1.0385 N.2       1 RES1    0.0000
      5 N3         3.5338    5.0875    3.3903 N.2       1 RES1    0.0000
      6 C1         2.6890    9.2294    2.4391 C.3       1 RES1    0.0000
      7 C2         1.2614    7.4898    3.4260 C.3       1 RES1    0.0000
      8 C3         3.1561    6.9193    1.9972 C.2       1 RES1    0.0000
      9 C4         2.9857    5.4629    2.3012 C.2       1 RES1    0.0000
     10 C5         2.2501    4.5928    1.3453 C.3       1 RES1    0.0000
     11 H1         1.4544    4.3430    1.7543 H         1 RES1    0.0000
     12 H2         2.6250    3.8285    1.3040 H         1 RES1    0.0000
     13 H3         1.8589    4.9950    0.5910 H         1 RES1    0.0000
     14 H4         0.3710    7.5433    2.7862 H         1 RES1    0.0000
     15 H5         1.2992    6.6160    3.7337 H         1 RES1    0.0000
     16 H6         1.1038    8.0536    4.1840 H         1 RES1    0.0000
     17 H7         2.2266    9.3687    1.6229 H         1 RES1    0.0000
     18 H8         2.3977    9.7361    3.0582 H         1 RES1    0.0000
     19 H9         3.8691    3.6622    4.2684 H         1 RES1    0.0000
     20 H10        3.8922    9.5044    2.3078 H         1 RES1    0.0000
     21 H11        5.0166    6.6500   -0.1501 H         1 RES1    0.0000
@<TRIPOS>BOND
     1    1    5 1
     2    2    4 1
     3    3    6 1
     4    4    8 2
     5    5    9 2
     6    6   17 1
     7    7    3 1
     8    8    3 1
     9    9    8 1
    10   10    9 1
    11   11   10 1
    12   12   10 1
    13   13   10 1
    14   14    7 1
    15   15    7 1
    16   16    7 1
    17   18    6 1
    18   19    1 1
    19   20    6 1
    20   21    2 1
@<TRIPOS>SUBSTRUCTURE
     1 RES1 1

@<TRIPOS>CRYSIN
   5.3340    8.1280    9.5210  80.4100  85.3300  74.2500   2 1

