# MOL2 file generated by ConQuest
# Please check atom types

@<TRIPOS>MOLECULE
DAFPUV01
    22    22     2
SMALL
NO_CHARGES
****
Generated from CSD

@<TRIPOS>ATOM
      1 O1        -0.7504    0.9438    5.4185 O.3       1 RES1    0.0000
      2 O2         1.4247    4.2090    6.1143 O.2       1 RES1    0.0000
      3 O3         0.8653    3.8993    8.1970 O.2       1 RES1    0.0000
      4 N1        -0.0090    2.0748    5.4080 N.2       1 RES1    0.0000
      5 N2        -1.0875    0.5698    6.7343 N.2       1 RES1    0.0000
      6 N3         0.8578    3.5982    7.0140 N.pl3     1 RES1    0.0000
      7 N4        -0.6683    1.5007    8.8404 N.3       1 RES1    0.0000
      8 C1         0.1089    2.4105    6.6504 C.2       1 RES1    0.0000
      9 C2        -0.5579    1.4899    7.5140 C.2       1 RES1    0.0000
     10 H1        -0.2984    2.1423    9.3008 H         1 RES1    0.0000
     11 H2        -1.1189    0.9443    9.2658 H         1 RES1    0.0000
     12 O4         2.9538    1.1418    4.9686 O.3       2 RES2    0.0000
     13 O5         5.1453    4.3903    4.3054 O.2       2 RES2    0.0000
     14 O6         4.7231    3.9986    2.2121 O.2       2 RES2    0.0000
     15 N5         3.7027    2.2535    4.9907 N.2       2 RES2    0.0000
     16 N6         2.6316    0.7576    3.6504 N.2       2 RES2    0.0000
     17 N7         4.6366    3.7493    3.4126 N.pl3     2 RES2    0.0000
     18 N8         3.1060    1.7106    1.5431 N.3       2 RES2    0.0000
     19 C3         3.8638    2.5756    3.7506 C.2       2 RES2    0.0000
     20 C4         3.2030    1.6653    2.8881 C.2       2 RES2    0.0000
     21 H3         3.6550    2.2556    1.1539 H         2 RES2    0.0000
     22 H4         2.8345    0.9983    1.2238 H         2 RES2    0.0000
@<TRIPOS>BOND
     1    1    4 1
     2    2    6 2
     3    3    6 2
     4    4    8 2
     5    5    1 1
     6    6    8 1
     7    7    9 1
     8    8    9 1
     9    9    5 2
    10   10    7 1
    11   11    7 1
    12   12   15 1
    13   13   17 2
    14   14   17 2
    15   15   19 2
    16   16   12 1
    17   17   19 1
    18   18   20 1
    19   19   20 1
    20   20   16 2
    21   21   18 1
    22   22   18 1
@<TRIPOS>SUBSTRUCTURE
     1 RES1 1
     2 RES2 12

@<TRIPOS>CRYSIN
  14.9183    5.3962   11.6551  90.0000  90.0000  90.0000  33 1

