# MOL2 file generated by ConQuest
# Please check atom types

@<TRIPOS>MOLECULE
DAFQAD
    66    68     1
SMALL
NO_CHARGES
****
Generated from CSD

@<TRIPOS>ATOM
      1 O1         0.0476    3.8231    4.3122 O.3       1 RES1    0.0000
      2 O2        -3.2555    4.0026   16.6786 O.3       1 RES1    0.0000
      3 O3        -3.2639    3.7121    9.8726 O.2       1 RES1    0.0000
      4 N1        -2.0861    3.8889   10.3252 N.3       1 RES1    0.0000
      5 C1        -1.4080    4.5836    5.9833 C.ar      1 RES1    0.0000
      6 C2        -1.7183    4.8426    7.2910 C.ar      1 RES1    0.0000
      7 C3        -3.1446    4.0921   12.9771 C.ar      1 RES1    0.0000
      8 C4        -1.9935    3.3583   12.7447 C.ar      1 RES1    0.0000
      9 C5        -1.1748    4.9310    9.7605 C.3       1 RES1    0.0000
     10 C6        -1.3196    2.8747   13.8471 C.ar      1 RES1    0.0000
     11 C7        -4.5327    4.7688   18.5240 C.3       1 RES1    0.0000
     12 C8         1.2878    3.2231    3.9434 C.3       1 RES1    0.0000
     13 C9        -0.8260    4.5939    8.3163 C.ar      1 RES1    0.0000
     14 C10       -0.0060    4.7933   10.7386 C.3       1 RES1    0.0000
     15 C11       -0.0055    3.3358   11.1574 C.3       1 RES1    0.0000
     16 C12       -1.7594    3.1091   15.1467 C.ar      1 RES1    0.0000
     17 C13       -2.9114    3.8483   15.3561 C.ar      1 RES1    0.0000
     18 C14        0.3938    4.0430    7.9651 C.ar      1 RES1    0.0000
     19 C15        2.6152    2.4643    1.9710 C.3       1 RES1    0.0000
     20 C16        0.7132    3.7524    6.6452 C.ar      1 RES1    0.0000
     21 C17        1.3650    3.1728    2.4465 C.3       1 RES1    0.0000
     22 C18       -3.6059    4.3256   14.2658 C.ar      1 RES1    0.0000
     23 C19       -1.4934    2.9995   11.3424 C.3       1 RES1    0.0000
     24 C20       -0.1875    4.0347    5.6482 C.ar      1 RES1    0.0000
     25 C21       -1.8621    6.2902    9.8699 C.3       1 RES1    0.0000
     26 C22       -1.8275    1.5441   11.0142 C.3       1 RES1    0.0000
     27 C23       -4.4526    4.7167   17.0055 C.3       1 RES1    0.0000
     28 C24       -5.7725    5.5808   20.5463 C.3       1 RES1    0.0000
     29 C25       -5.7615    5.4844   19.0225 C.3       1 RES1    0.0000
     30 C26        2.7231    2.4465    0.4445 C.3       1 RES1    0.0000
     31 H1        -2.0250    4.7793    5.3146 H         1 RES1    0.0000
     32 H2        -2.5537    5.1972    7.4950 H         1 RES1    0.0000
     33 H3        -3.6193    4.4354   12.2557 H         1 RES1    0.0000
     34 H4        -0.5458    2.3757   13.7174 H         1 RES1    0.0000
     35 H5        -4.5319    3.8628   18.8712 H         1 RES1    0.0000
     36 H6        -3.7446    5.2184   18.8658 H         1 RES1    0.0000
     37 H7         1.3439    2.3264    4.3081 H         1 RES1    0.0000
     38 H8         2.0259    3.7435    4.2960 H         1 RES1    0.0000
     39 H9         0.8308    5.0260   10.3063 H         1 RES1    0.0000
     40 H10       -0.1322    5.3706   11.5072 H         1 RES1    0.0000
     41 H11        0.4835    3.2135   11.9855 H         1 RES1    0.0000
     42 H12        0.3929    2.7783   10.4697 H         1 RES1    0.0000
     43 H13       -1.2818    2.7717   15.8694 H         1 RES1    0.0000
     44 H14        1.0169    3.8622    8.6311 H         1 RES1    0.0000
     45 H15        2.6086    1.5516    2.3006 H         1 RES1    0.0000
     46 H16        3.3933    2.9090    2.3412 H         1 RES1    0.0000
     47 H17        1.5344    3.3684    6.4372 H         1 RES1    0.0000
     48 H18        1.3572    4.0768    2.0953 H         1 RES1    0.0000
     49 H19        0.5851    2.7116    2.1007 H         1 RES1    0.0000
     50 H20       -4.3907    4.8084   14.3942 H         1 RES1    0.0000
     51 H21       -2.0632    6.4737   10.7913 H         1 RES1    0.0000
     52 H22       -2.6755    6.2796    9.3606 H         1 RES1    0.0000
     53 H23       -1.2793    6.9717    9.5281 H         1 RES1    0.0000
     54 H24       -2.7757    1.4097   11.0858 H         1 RES1    0.0000
     55 H25       -1.3748    0.9648   11.6315 H         1 RES1    0.0000
     56 H26       -1.5424    1.3444   10.1198 H         1 RES1    0.0000
     57 H27       -5.2281    4.2606   16.6421 H         1 RES1    0.0000
     58 H28       -4.4220    5.6139   16.6381 H         1 RES1    0.0000
     59 H29       -6.5640    6.0429   20.8314 H         1 RES1    0.0000
     60 H30       -4.9971    6.0625   20.8408 H         1 RES1    0.0000
     61 H31       -5.7639    4.6980   20.9219 H         1 RES1    0.0000
     62 H32       -6.5532    5.0093   18.7253 H         1 RES1    0.0000
     63 H33       -5.7891    6.3772   18.6442 H         1 RES1    0.0000
     64 H34        3.5270    1.9896    0.1851 H         1 RES1    0.0000
     65 H35        2.7474    3.3481    0.1148 H         1 RES1    0.0000
     66 H36        1.9631    1.9915    0.0743 H         1 RES1    0.0000
@<TRIPOS>BOND
     1    1   12 1
     2    2   17 1
     3    3    4 1
     4    4    9 1
     5    5    6 ar
     6    6   13 ar
     7    7    8 ar
     8    8   10 ar
     9    9   13 1
    10   10   16 ar
    11   11   27 1
    12   12   21 1
    13   13   18 ar
    14   14    9 1
    15   15   14 1
    16   16   17 ar
    17   17   22 ar
    18   18   20 ar
    19   19   21 1
    20   20   24 ar
    21   21   48 1
    22   22    7 ar
    23   23    4 1
    24   24    1 1
    25   25    9 1
    26   26   23 1
    27   27    2 1
    28   28   29 1
    29   29   11 1
    30   30   19 1
    31   31    5 1
    32   32    6 1
    33   33    7 1
    34   34   10 1
    35   35   11 1
    36   36   11 1
    37   37   12 1
    38   38   12 1
    39   39   14 1
    40   40   14 1
    41   41   15 1
    42   42   15 1
    43   43   16 1
    44   44   18 1
    45   45   19 1
    46   46   19 1
    47   47   20 1
    48   49   21 1
    49   50   22 1
    50   51   25 1
    51   52   25 1
    52   53   25 1
    53   54   26 1
    54   55   26 1
    55   56   26 1
    56   57   27 1
    57   58   27 1
    58   59   28 1
    59   60   28 1
    60   61   28 1
    61   62   29 1
    62   63   29 1
    63   64   30 1
    64   65   30 1
    65   66   30 1
    66    5   24 ar
    67    8   23 1
    68   15   23 1
@<TRIPOS>SUBSTRUCTURE
     1 RES1 1

@<TRIPOS>CRYSIN
   6.3786    7.5419   13.7089  98.4480  90.9590 114.5670   1 1

