# MOL2 file generated by ConQuest
# Please check atom types

@<TRIPOS>MOLECULE
DAFQEH
    75    68     2
SMALL
NO_CHARGES
****
Generated from CSD

@<TRIPOS>ATOM
      1 N1         0.4816    4.6741    2.2396 N.3       1 RES1    0.0000
      2 O1         5.1699    8.1460   -0.4951 O.3       1 RES1    0.0000
      3 C1        -1.6366    3.4177    3.6406 C.ar      1 RES1    0.0000
      4 O2        -5.0061    2.5809    4.8678 O.3       1 RES1    0.0000
      5 O3         1.1028    3.5581    2.2948 O.2       1 RES1    0.0000
      6 C2        -1.9318    4.2219    2.5668 C.ar      1 RES1    0.0000
      7 C3         3.5814    8.2984    1.1986 C.ar      1 RES1    0.0000
      8 C4         2.1394    6.4750    1.8402 C.ar      1 RES1    0.0000
      9 C5         4.1863    7.5244    0.2348 C.ar      1 RES1    0.0000
     10 C6        -4.2737    3.8988    3.0883 C.ar      1 RES1    0.0000
     11 C7         1.0560    5.9368    2.7695 C.3       1 RES1    0.0000
     12 C8         2.7659    5.7154    0.8673 C.ar      1 RES1    0.0000
     13 C9        -3.9448    3.0929    4.1574 C.ar      1 RES1    0.0000
     14 C10       -0.8733    4.8109    1.6399 C.3       1 RES1    0.0000
     15 C11       -2.6108    2.8425    4.4450 C.ar      1 RES1    0.0000
     16 C12       -3.2896    4.4558    2.3023 C.ar      1 RES1    0.0000
     17 C13       -4.7474    1.8029    6.0453 C.3       1 RES1    0.0000
     18 C14        3.7774    6.2208    0.0717 C.ar      1 RES1    0.0000
     19 C15        2.5827    7.7809    1.9862 C.ar      1 RES1    0.0000
     20 C16        5.8470    7.4106   -1.5053 C.3       1 RES1    0.0000
     21 C17        6.8684    8.3014   -2.1390 C.3       1 RES1    0.0000
     22 C18       -0.9622    6.3376    1.5588 C.3       1 RES1    0.0000
     23 C19       -0.9133    4.1022    0.2931 C.3       1 RES1    0.0000
     24 C20       -0.1926    6.8005    2.7723 C.3       1 RES1    0.0000
     25 C21        1.6175    5.6957    4.1695 C.3       1 RES1    0.0000
     26 C22       -6.0653    1.5829    6.7187 C.3       1 RES1    0.0000
     27 C23        7.6789    7.6413   -3.1934 C.3       1 RES1    0.0000
     28 C24       -7.8153    2.8607    8.1214 C.3       1 RES1    0.0000
     29 C25       -6.9366    2.9700    8.2841 Du        2 SUP2    0.0000
     30 C26        8.7371    8.5185   -3.7973 C.3       1 RES1    0.0000
     31 C27       -6.4797    2.9776    7.3739 C.3       1 RES1    0.0000
     32 C28       -7.1626    2.5329    6.9232 Du        2 SUP2    0.0000
     33 H1        -0.7432    3.2508    3.8364 H         1 RES1    0.0000
     34 H2         3.8525    9.1801    1.3169 H         1 RES1    0.0000
     35 H3        -5.1680    4.0688    2.8977 H         1 RES1    0.0000
     36 H4         2.4954    4.8352    0.7453 H         1 RES1    0.0000
     37 H5        -2.3745    2.3022    5.1622 H         1 RES1    0.0000
     38 H6        -3.5284    4.9945    1.5829 H         1 RES1    0.0000
     39 H7        -4.1416    2.2780    6.6352 H         1 RES1    0.0000
     40 H8        -4.3441    0.9546    5.8063 H         1 RES1    0.0000
     41 H9         4.1798    5.6820   -0.5716 H         1 RES1    0.0000
     42 H10        2.1921    8.3212    2.6360 H         1 RES1    0.0000
     43 H11        5.2137    7.1055   -2.1743 H         1 RES1    0.0000
     44 H12        6.2800    6.6351   -1.1169 H         1 RES1    0.0000
     45 H13        6.4169    9.0678   -2.5283 H         1 RES1    0.0000
     46 H14        7.4653    8.6323   -1.4488 H         1 RES1    0.0000
     47 H15       -0.5560    6.6669    0.7409 H         1 RES1    0.0000
     48 H16       -1.8846    6.6351    1.5961 H         1 RES1    0.0000
     49 H17       -1.7691    4.2448   -0.1187 H         1 RES1    0.0000
     50 H18       -0.7733    3.1612    0.4221 H         1 RES1    0.0000
     51 H19       -0.2229    4.4542   -0.2748 H         1 RES1    0.0000
     52 H20       -0.7079    6.6639    3.5814 H         1 RES1    0.0000
     53 H21        0.0364    7.7399    2.6976 H         1 RES1    0.0000
     54 H22        1.9305    6.5243    4.5356 H         1 RES1    0.0000
     55 H23        2.3451    5.0719    4.1201 H         1 RES1    0.0000
     56 H24        0.9277    5.3360    4.7334 H         1 RES1    0.0000
     57 H25       -5.9873    0.8984    7.4025 H         1 RES1    0.0000
     58 H26       -6.7324    1.3006    6.0723 H         1 RES1    0.0000
     59 H27       -6.4642    0.8317    6.2526 Du        2 SUP2    0.0000
     60 H28       -5.8451    1.2596    7.6069 Du        2 SUP2    0.0000
     61 H29        7.0858    7.3393   -3.8980 H         1 RES1    0.0000
     62 H30        8.1058    6.8582   -2.8119 H         1 RES1    0.0000
     63 H31       -8.0594    3.7197    8.4775 H         1 RES1    0.0000
     64 H32       -7.7268    2.2309    8.8381 H         1 RES1    0.0000
     65 H33       -8.4974    2.5618    7.5146 H         1 RES1    0.0000
     66 H34       -7.5082    3.7197    8.4797 Du        2 SUP2    0.0000
     67 H35       -6.0218    3.2295    8.3918 Du        2 SUP2    0.0000
     68 H36       -7.1418    2.2522    8.8887 Du        2 SUP2    0.0000
     69 H37        9.2391    8.0176   -4.4432 H         1 RES1    0.0000
     70 H38        9.3267    8.8311   -3.1065 H         1 RES1    0.0000
     71 H39        8.3225    9.2712   -4.2278 H         1 RES1    0.0000
     72 H40       -5.7893    3.2629    7.9917 H         1 RES1    0.0000
     73 H41       -6.5573    3.6499    6.6791 H         1 RES1    0.0000
     74 H42       -7.1093    3.2750    6.2988 Du        2 SUP2    0.0000
     75 H43       -8.0278    2.1004    6.8286 Du        2 SUP2    0.0000
@<TRIPOS>BOND
     1    1    5 1
     2    2    9 1
     3    3    6 ar
     4    4   13 1
     5    6   14 1
     6    7    9 ar
     7    8   11 1
     8    9   18 ar
     9   10   13 ar
    10   11    1 1
    11   12    8 ar
    12   13   15 ar
    13   14    1 1
    14   15    3 ar
    15   16    6 ar
    16   17    4 1
    17   18   12 ar
    18   19    7 ar
    19   20    2 1
    20   21   20 1
    21   22   14 1
    22   23   14 1
    23   24   11 1
    24   25   11 1
    25   26   17 1
    26   27   21 1
    27   28   31 1
    28   30   27 1
    29   31   26 1
    30   33    3 1
    31   34    7 1
    32   35   10 1
    33   36   12 1
    34   37   15 1
    35   38   16 1
    36   39   17 1
    37   40   17 1
    38   41   18 1
    39   42   19 1
    40   43   20 1
    41   44   20 1
    42   45   21 1
    43   46   21 1
    44   47   22 1
    45   48   22 1
    46   49   23 1
    47   50   23 1
    48   51   23 1
    49   52   24 1
    50   53   24 1
    51   54   25 1
    52   55   25 1
    53   56   25 1
    54   57   26 1
    55   58   26 1
    56   61   27 1
    57   62   27 1
    58   63   28 1
    59   64   28 1
    60   65   28 1
    61   69   30 1
    62   70   30 1
    63   71   30 1
    64   72   31 1
    65   73   31 1
    66    8   19 ar
    67   10   16 ar
    68   22   24 1
@<TRIPOS>SUBSTRUCTURE
     1 RES1 1
     2 SUP2 29

@<TRIPOS>CRYSIN
  14.3630   15.1763   22.2690  90.0000  99.1550  90.0000  15 1

