# MOL2 file generated by ConQuest
# Please check atom types

@<TRIPOS>MOLECULE
DAFQIL
   104    82     2
SMALL
NO_CHARGES
****
Generated from CSD

@<TRIPOS>ATOM
      1 O1        -2.1551    2.0798   22.6411 O.3       1 RES1    0.0000
      2 N1         1.6543    2.6121   17.4159 N.3       1 RES1    0.0000
      3 O2         0.9440    3.6118   17.0555 O.2       1 RES1    0.0000
      4 O3        -6.2782    2.1147   27.3627 O.3       1 RES1    0.0000
      5 C1        -4.2065    1.9722   23.7887 C.ar      1 RES1    0.0000
      6 C2         0.1937    1.6280   19.2081 C.ar      1 RES1    0.0000
      7 C3        -5.5649    1.6842   23.8067 C.ar      1 RES1    0.0000
      8 C4        -3.5025    1.8907   22.5075 C.2       1 RES1    0.0000
      9 O4        -4.0064    1.6561   21.4574 O.2       1 RES1    0.0000
     10 C5        -3.5950    2.3115   24.9773 C.ar      1 RES1    0.0000
     11 C6        -6.2908    1.7104   24.9664 C.ar      1 RES1    0.0000
     12 C7        -4.3122    2.3474   26.1463 C.ar      1 RES1    0.0000
     13 C8         0.0297    2.8671   19.7916 C.ar      1 RES1    0.0000
     14 C9         3.1337    2.5723   17.2238 C.3       1 RES1    0.0000
     15 C10        1.0468    1.3817   17.9602 C.3       1 RES1    0.0000
     16 C11       -5.6700    2.0497   26.1448 C.ar      1 RES1    0.0000
     17 C12       -0.4166    0.5313   19.8017 C.ar      1 RES1    0.0000
     18 C13       -1.3755    1.9208   21.4615 C.ar      1 RES1    0.0000
     19 C14        5.0554    4.2090   14.3458 C.ar      1 RES1    0.0000
     20 C15        2.7060    2.8642   14.7351 C.ar      1 RES1    0.0000
     21 C16        3.4992    3.0979   15.8459 C.ar      1 RES1    0.0000
     22 C17        4.2401    3.9550   13.2845 C.ar      1 RES1    0.0000
     23 C18        0.2025    0.7582   16.8420 C.3       1 RES1    0.0000
     24 C19        4.6925    3.7669   15.6211 C.ar      1 RES1    0.0000
     25 C20       -0.7688    3.0232   20.9180 C.ar      1 RES1    0.0000
     26 C21       -1.1917    0.6836   20.9351 C.ar      1 RES1    0.0000
     27 O5         4.4953    4.3506   11.9861 O.3       1 RES1    0.0000
     28 C22        2.2899    0.5488   18.2920 C.3       1 RES1    0.0000
     29 C23        3.3741    1.0530   17.3558 C.3       1 RES1    0.0000
     30 C24        3.0638    3.2724   13.4757 C.ar      1 RES1    0.0000
     31 C25       -7.6913    1.8287   27.4273 C.3       1 RES1    0.0000
     32 C26        3.7636    3.3529   18.3643 C.3       1 RES1    0.0000
     33 C27        5.5227    5.2552   11.7194 C.3       1 RES1    0.0000
     34 C28        5.8504    4.8984   11.7322 Du        2 SUP2    0.0000
     35 C29        5.5665    5.7614   10.3569 C.3       1 RES1    0.0000
     36 C30        5.9711    4.8305   10.1430 Du        2 SUP2    0.0000
     37 C31        5.6423    4.6541    9.2852 C.3       1 RES1    0.0000
     38 C32        5.0367    5.6819    9.5676 Du        2 SUP2    0.0000
     39 C33        5.6283    5.2038    7.9762 C.3       1 RES1    0.0000
     40 C34        5.1596    5.4298    7.8136 Du        2 SUP2    0.0000
     41 C35       -8.2295    2.4822   28.8311 C.3       1 RES1    0.0000
     42 C36       -8.0824    1.8655   28.8289 Du        2 SUP2    0.0000
     43 C37       -7.5091    1.8102   29.8749 C.3       1 RES1    0.0000
     44 C38       -7.9845    3.2036   29.4792 Du        2 SUP2    0.0000
     45 C39       -7.9696    2.2301   31.1112 C.3       1 RES1    0.0000
     46 C40       -8.2847    3.1231   31.0214 Du        2 SUP2    0.0000
     47 H1        -5.9933    1.4689   23.0088 H         1 RES1    0.0000
     48 H2        -2.6882    2.5181   24.9874 H         1 RES1    0.0000
     49 H3        -7.1963    1.4990   24.9574 H         1 RES1    0.0000
     50 H4        -3.8886    2.5714   26.9424 H         1 RES1    0.0000
     51 H5         0.4582    3.6069   19.4261 H         1 RES1    0.0000
     52 H6        -0.3027   -0.3151   19.4325 H         1 RES1    0.0000
     53 H7         5.8510    4.6754   14.2220 H         1 RES1    0.0000
     54 H8         1.9000    2.4143   14.8465 H         1 RES1    0.0000
     55 H9        -0.2963    0.0165   17.1930 H         1 RES1    0.0000
     56 H10        0.7798    0.4509   16.1385 H         1 RES1    0.0000
     57 H11       -0.4043    1.4156   16.4935 H         1 RES1    0.0000
     58 H12        5.2651    3.9249   16.3374 H         1 RES1    0.0000
     59 H13       -0.8892    3.8629   21.2977 H         1 RES1    0.0000
     60 H14       -1.5852   -0.0582   21.3362 H         1 RES1    0.0000
     61 H15        2.5504    0.6768   19.2164 H         1 RES1    0.0000
     62 H16        2.1201   -0.3946   18.1427 H         1 RES1    0.0000
     63 H17        3.3062    0.6205   16.4914 H         1 RES1    0.0000
     64 H18        4.2535    0.8775   17.7256 H         1 RES1    0.0000
     65 H19        2.5111    3.0872   12.7504 H         1 RES1    0.0000
     66 H20       -7.8446    0.8707   27.4172 H         1 RES1    0.0000
     67 H21       -8.1528    2.2252   26.6707 H         1 RES1    0.0000
     68 H22       -7.8737    0.9531   27.0515 Du        2 SUP2    0.0000
     69 H23       -8.1912    2.4899   26.9231 Du        2 SUP2    0.0000
     70 H24        4.7197    3.2831   18.3095 H         1 RES1    0.0000
     71 H25        3.4636    2.9932   19.2015 H         1 RES1    0.0000
     72 H26        3.5062    4.2759   18.3010 H         1 RES1    0.0000
     73 H27        6.3701    4.8238   11.9140 H         1 RES1    0.0000
     74 H28        5.4330    6.0086   12.3247 H         1 RES1    0.0000
     75 H29        6.5334    4.3574   12.1579 Du        2 SUP2    0.0000
     76 H30        5.9249    5.8118   12.0509 Du        2 SUP2    0.0000
     77 H31        6.3393    6.3402   10.2627 H         1 RES1    0.0000
     78 H32        4.7745    6.2976   10.1964 H         1 RES1    0.0000
     79 H33        6.8646    5.0933    9.8713 Du        2 SUP2    0.0000
     80 H34        5.8175    3.9220    9.8414 Du        2 SUP2    0.0000
     81 H35        6.4561    4.1412    9.4093 H         1 RES1    0.0000
     82 H36        4.8888    4.0529    9.3900 H         1 RES1    0.0000
     83 H37        5.2323    6.6020    9.7965 Du        2 SUP2    0.0000
     84 H38        4.1452    5.4637    9.8799 Du        2 SUP2    0.0000
     85 H39        5.1794    4.5998    7.3816 H         1 RES1    0.0000
     86 H40        6.5301    5.3396    7.6767 H         1 RES1    0.0000
     87 H41        5.1652    6.0455    7.9890 H         1 RES1    0.0000
     88 H42        4.3549    5.7468    7.3923 Du        2 SUP2    0.0000
     89 H43        5.2748    4.4999    7.6297 Du        2 SUP2    0.0000
     90 H44        5.9103    5.9243    7.4735 Du        2 SUP2    0.0000
     91 H45       -8.0503    3.4334   28.8546 H         1 RES1    0.0000
     92 H46       -9.1819    2.3387   28.9295 H         1 RES1    0.0000
     93 H47       -7.5246    1.2430   29.3188 Du        2 SUP2    0.0000
     94 H48       -8.9986    1.5552   28.8995 Du        2 SUP2    0.0000
     95 H49       -7.6328    0.8513   29.7936 H         1 RES1    0.0000
     96 H50       -6.5616    2.0013   29.7958 H         1 RES1    0.0000
     97 H51       -8.6151    3.8105   29.0621 Du        2 SUP2    0.0000
     98 H52       -7.0924    3.5604   29.3466 Du        2 SUP2    0.0000
     99 H53       -7.5305    1.7317   31.8042 H         1 RES1    0.0000
    100 H54       -8.9148    2.0963   31.1647 H         1 RES1    0.0000
    101 H55       -7.7711    3.1677   31.2203 H         1 RES1    0.0000
    102 H56       -8.4302    4.0074   31.3658 Du        2 SUP2    0.0000
    103 H57       -7.5380    2.7226   31.4727 Du        2 SUP2    0.0000
    104 H58       -9.0706    2.5898   31.1668 Du        2 SUP2    0.0000
@<TRIPOS>BOND
     1    1    8 1
     2    2    3 1
     3    4   16 1
     4    5    7 ar
     5    6   13 ar
     6    7   11 ar
     7    8    5 1
     8    9    8 2
     9   10    5 ar
    10   11   16 ar
    11   12   10 ar
    12   13   25 ar
    13   14    2 1
    14   15    2 1
    15   16   12 ar
    16   17    6 ar
    17   18    1 1
    18   19   22 ar
    19   20   21 ar
    20   21   14 1
    21   22   27 1
    22   23   15 1
    23   24   19 ar
    24   25   18 ar
    25   26   17 ar
    26   27   33 1
    27   28   15 1
    28   29   14 1
    29   30   20 ar
    30   31    4 1
    31   32   14 1
    32   33   35 1
    33   35   37 1
    34   37   39 1
    35   39   85 1
    36   41   31 1
    37   43   41 1
    38   45   43 1
    39   47    7 1
    40   48   10 1
    41   49   11 1
    42   50   12 1
    43   51   13 1
    44   52   17 1
    45   53   19 1
    46   54   20 1
    47   55   23 1
    48   56   23 1
    49   57   23 1
    50   58   24 1
    51   59   25 1
    52   60   26 1
    53   61   28 1
    54   62   28 1
    55   63   29 1
    56   64   29 1
    57   65   30 1
    58   66   31 1
    59   67   31 1
    60   70   32 1
    61   71   32 1
    62   72   32 1
    63   73   33 1
    64   74   33 1
    65   77   35 1
    66   78   35 1
    67   81   37 1
    68   82   37 1
    69   86   39 1
    70   87   39 1
    71   91   41 1
    72   92   41 1
    73   95   43 1
    74   96   43 1
    75   99   45 1
    76  100   45 1
    77  101   45 1
    78    6   15 1
    79   18   26 ar
    80   21   24 ar
    81   22   30 ar
    82   28   29 1
@<TRIPOS>SUBSTRUCTURE
     1 RES1 1
     2 SUP2 34

@<TRIPOS>CRYSIN
   7.1625    9.6960   21.6090  90.0000  98.1710  90.0000   4 1

