# MOL2 file generated by ConQuest
# Please check atom types

@<TRIPOS>MOLECULE
DAFRAD
    11    11     1
SMALL
NO_CHARGES
****
Generated from CSD

@<TRIPOS>ATOM
      1 O1        -0.2161    4.2514    2.5732 O.3       1 RES1    0.0000
      2 N1         0.1995    3.4537    1.4997 N.2       1 RES1    0.0000
      3 N2         0.2779    1.1241    1.1404 N.3       1 RES1    0.0000
      4 C1         0.0449    2.2271    1.8990 C.2       1 RES1    0.0000
      5 H1         0.6609    1.2032    0.4117 H         1 RES1    0.0000
      6 H2         0.4613    0.3342    1.5439 H         1 RES1    0.0000
      7 N1B       -0.6316    3.4537    3.6467 N.2       1 RES1    0.0000
      8 C1B       -0.4770    2.2271    3.2474 C.2       1 RES1    0.0000
      9 N2B       -0.7101    1.1241    4.0059 N.3       1 RES1    0.0000
     10 H1B       -1.0931    1.2032    4.7347 H         1 RES1    0.0000
     11 H2B       -0.8935    0.3342    3.6025 H         1 RES1    0.0000
@<TRIPOS>BOND
     1    1    2 1
     2    2    4 2
     3    3    4 1
     4    4    8 1
     5    5    3 1
     6    6    3 1
     7    7    1 1
     8    8    7 2
     9    9    8 1
    10   10    9 1
    11   11    9 1
@<TRIPOS>SUBSTRUCTURE
     1 RES1 1

@<TRIPOS>CRYSIN
   3.6035   11.1410   10.3290  90.0000  94.8000  90.0000  15 1

