# MOL2 file generated by ConQuest
# Please check atom types

@<TRIPOS>MOLECULE
DAFVEL
    44    46     1
SMALL
NO_CHARGES
****
Generated from CSD

@<TRIPOS>ATOM
      1 C1         3.1866   11.7012    0.3559 C.ar      1 RES1    0.0000
      2 C2         1.9863   11.5814   -0.2933 C.ar      1 RES1    0.0000
      3 C3         1.4387   10.3254   -0.4630 C.ar      1 RES1    0.0000
      4 C4         2.0855    9.2239    0.0519 C.ar      1 RES1    0.0000
      5 C5         5.6102    7.1713    2.5739 C.ar      1 RES1    0.0000
      6 C6         6.7295    7.2462    3.3525 C.ar      1 RES1    0.0000
      7 C7         7.3796    8.4456    3.5272 C.ar      1 RES1    0.0000
      8 C8         6.9508    9.5668    2.8713 C.ar      1 RES1    0.0000
      9 C9         5.3492   10.6906    1.2359 C.2       1 RES1    0.0000
     10 N1         3.9594    8.2486    1.2004 N.pl3     1 RES1    0.0000
     11 N2         5.9901   11.6865    0.7341 N.2       1 RES1    0.0000
     12 C10        3.9263   10.5975    0.8354 C.ar      1 RES1    0.0000
     13 C11        3.3229    9.3447    0.7110 C.ar      1 RES1    0.0000
     14 C12        5.1240    8.3282    1.9378 C.ar      1 RES1    0.0000
     15 C13        5.8235    9.5425    2.0252 C.ar      1 RES1    0.0000
     16 C14        7.4142   11.9603    0.8915 C.3       1 RES1    0.0000
     17 C15        7.6118   13.0191    1.9593 C.3       1 RES1    0.0000
     18 C16        7.8932   12.4578   -0.4663 C.3       1 RES1    0.0000
     19 N3         8.0974   11.3790   -1.4336 N.3       1 RES1    0.0000
     20 C17        7.9217   11.8251   -2.8054 C.3       1 RES1    0.0000
     21 C18        9.4414   10.8401   -1.3183 C.3       1 RES1    0.0000
     22 N4         3.6497   13.0789    0.6015 N.pl3     1 RES1    0.0000
     23 O1         3.7536   13.8291   -0.3510 O.2       1 RES1    0.0000
     24 O2         3.8327   13.4111    1.7566 O.2       1 RES1    0.0000
     25 H1         1.4344   12.3390   -0.6097 H         1 RES1    0.0000
     26 H2         0.5298   10.1684   -0.9722 H         1 RES1    0.0000
     27 H3         1.7836    8.2572   -0.0659 H         1 RES1    0.0000
     28 H4         5.0828    6.3541    2.4553 H         1 RES1    0.0000
     29 H5         7.0474    6.3879    3.7735 H         1 RES1    0.0000
     30 H6         8.1060    8.5585    4.1360 H         1 RES1    0.0000
     31 H7         7.3990   10.4187    3.0320 H         1 RES1    0.0000
     32 H8         7.9356   11.1490    1.1123 H         1 RES1    0.0000
     33 H9         8.6438   13.1535    2.1504 H         1 RES1    0.0000
     34 H10        7.2040   13.7985    1.6149 H         1 RES1    0.0000
     35 H11        7.3027   12.6533    2.9166 H         1 RES1    0.0000
     36 H12        7.1145   13.1392   -0.8074 H         1 RES1    0.0000
     37 H13        8.7892   12.8519   -0.3378 H         1 RES1    0.0000
     38 H14        8.4315   12.4821   -2.9578 H         1 RES1    0.0000
     39 H15        7.1571   12.2842   -2.8672 H         1 RES1    0.0000
     40 H16        7.9413   11.1266   -3.4604 H         1 RES1    0.0000
     41 H17       10.0624   11.5156   -1.5572 H         1 RES1    0.0000
     42 H18        9.7004   10.5641   -0.2966 H         1 RES1    0.0000
     43 H19        9.5967   10.1048   -1.9444 H         1 RES1    0.0000
     44 H20        3.5673    7.6078    1.1782 H         1 RES1    0.0000
@<TRIPOS>BOND
     1    1    2 ar
     2    2    3 ar
     3    3    4 ar
     4    4   13 ar
     5    5    6 ar
     6    6    7 ar
     7    7    8 ar
     8    8   15 ar
     9    9   11 2
    10   10   13 1
    11   11   16 1
    12   12    1 ar
    13   13   12 ar
    14   14    5 ar
    15   15    9 1
    16   16   17 1
    17   17   33 1
    18   18   16 1
    19   19   18 1
    20   20   19 1
    21   21   19 1
    22   22    1 1
    23   23   22 2
    24   24   22 2
    25   25    2 1
    26   26    3 1
    27   27    4 1
    28   28    5 1
    29   29    6 1
    30   30    7 1
    31   31    8 1
    32   32   16 1
    33   34   17 1
    34   35   17 1
    35   36   18 1
    36   37   18 1
    37   38   20 1
    38   39   20 1
    39   40   20 1
    40   41   21 1
    41   42   21 1
    42   43   21 1
    43   44   10 1
    44    9   12 1
    45   10   14 1
    46   14   15 ar
@<TRIPOS>SUBSTRUCTURE
     1 RES1 1

@<TRIPOS>CRYSIN
  19.2500   19.2500   19.2500 117.8200 117.8200 117.8200 148 1

