# MOL2 file generated by ConQuest
# Please check atom types

@<TRIPOS>MOLECULE
DAFWAI
    60    70     2
SMALL
NO_CHARGES
****
Generated from CSD

@<TRIPOS>ATOM
      1 H1        -3.7995   -0.4295    4.5054 H         1 RES1    0.0000
      2 H2        -1.7776   -0.7822    5.8830 H         1 RES1    0.0000
      3 H3        -1.8154    0.6825    5.3975 H         1 RES1    0.0000
      4 H4        -4.0412   -0.3911    1.3099 H         1 RES1    0.0000
      5 H5        -3.2334   -2.6918    1.5921 H         1 RES1    0.0000
      6 H6        -3.1459   -2.6841    4.2006 H         1 RES1    0.0000
      7 H7         3.2218    4.1873    5.3636 H         2 RES2    0.0000
      8 H8         5.4694    3.0753    4.8442 H         2 RES2    0.0000
      9 H9         5.7679    4.5400    5.2055 H         2 RES2    0.0000
     10 H10        1.2412    4.1796    2.8794 H         2 RES2    0.0000
     11 H11        2.1280    6.4420    2.6084 H         2 RES2    0.0000
     12 H12        3.4834    6.4343    4.7990 H         2 RES2    0.0000
     13 O1        -3.6108    2.1173    4.0560 O.2       1 RES1    0.0000
     14 O2        -3.4272    2.2775    1.9027 O.2       1 RES1    0.0000
     15 O3         2.6889    1.8030    4.8566 O.2       2 RES2    0.0000
     16 O4         2.4239    1.3903    2.7510 O.2       2 RES2    0.0000
     17 N1        -3.3129    1.6610    2.9576 N.pl3     1 RES1    0.0000
     18 N2         2.7627    2.1160    3.6800 N.pl3     2 RES2    0.0000
     19 C1        -2.7438    0.2685    2.8863 C.3       1 RES1    0.0000
     20 C2        -2.9911   -0.5462    4.1680 C.3       1 RES1    0.0000
     21 C3        -1.7920   -0.2060    5.0633 C.3       1 RES1    0.0000
     22 C4        -3.1761   -0.5322    1.6391 C.3       1 RES1    0.0000
     23 C5        -2.7882   -1.9546    2.1007 C.3       1 RES1    0.0000
     24 C6        -2.6745   -1.9600    3.6565 C.3       1 RES1    0.0000
     25 C7         3.2600    3.4904    3.3199 C.3       2 RES2    0.0000
     26 C8         3.7597    4.3065    4.5220 C.3       2 RES2    0.0000
     27 C9         5.2581    3.9702    4.5941 C.3       2 RES2    0.0000
     28 C10        2.2080    4.2981    2.5216 C.3       2 RES2    0.0000
     29 C11        2.7863    5.7226    2.6849 C.3       2 RES2    0.0000
     30 C12        3.7431    5.7257    3.9154 C.3       2 RES2    0.0000
     31 C1A       -1.1554    0.2685    2.7596 C.3       1 RES1    0.0000
     32 C4A       -0.7231   -0.5322    4.0068 C.3       1 RES1    0.0000
     33 C3A       -2.1072   -0.2060    0.5827 C.3       1 RES1    0.0000
     34 C6A       -1.2247   -1.9600    1.9894 C.3       1 RES1    0.0000
     35 C5A       -1.1110   -1.9546    3.5452 C.3       1 RES1    0.0000
     36 N1A       -0.5863    1.6610    2.6884 N.pl3     1 RES1    0.0000
     37 C2A       -0.9081   -0.5462    1.4779 C.3       1 RES1    0.0000
     38 H4A        0.1419   -0.3911    4.3361 H         1 RES1    0.0000
     39 H2A       -2.1216   -0.7822   -0.2371 H         1 RES1    0.0000
     40 H3A       -2.0838    0.6825    0.2484 H         1 RES1    0.0000
     41 H6A       -0.7533   -2.6842    1.4454 H         1 RES1    0.0000
     42 H5A       -0.6659   -2.6918    4.0538 H         1 RES1    0.0000
     43 O1A       -0.2885    2.1173    1.5899 O.2       1 RES1    0.0000
     44 O2A       -0.4720    2.2775    3.7432 O.2       1 RES1    0.0000
     45 H1A       -0.0997   -0.4295    1.1405 H         1 RES1    0.0000
     46 C7A        4.5008    3.4904    2.3260 C.3       2 RES2    0.0000
     47 C10A       5.5528    4.2981    3.1243 C.3       2 RES2    0.0000
     48 C9A        2.5027    3.9702    1.0518 C.3       2 RES2    0.0000
     49 C12A       4.0177    5.7257    1.7305 C.3       2 RES2    0.0000
     50 C11A       4.9745    5.7226    2.9611 C.3       2 RES2    0.0000
     51 N2A        4.9980    2.1160    1.9659 N.pl3     2 RES2    0.0000
     52 C8A        4.0010    4.3065    1.1239 C.3       2 RES2    0.0000
     53 H10A       6.5196    4.1796    2.7665 H         2 RES2    0.0000
     54 H8A        2.2914    3.0753    0.8017 H         2 RES2    0.0000
     55 H9A        1.9929    4.5400    0.4404 H         2 RES2    0.0000
     56 H12A       4.2773    6.4343    0.8469 H         2 RES2    0.0000
     57 H11A       5.6328    6.4420    3.0375 H         2 RES2    0.0000
     58 O3A        5.0719    1.8030    0.7893 O.2       2 RES2    0.0000
     59 O4A        5.3368    1.3903    2.8949 O.2       2 RES2    0.0000
     60 H7A        4.5390    4.1873    0.2823 H         2 RES2    0.0000
@<TRIPOS>BOND
     1    1   20 1
     2    2   21 1
     3    3   21 1
     4    4   22 1
     5    5   23 1
     6    6   24 1
     7    7   26 1
     8    8   27 1
     9    9   27 1
    10   10   28 1
    11   11   29 1
    12   12   30 1
    13   13   17 2
    14   14   17 2
    15   15   18 2
    16   16   18 2
    17   17   19 1
    18   18   25 1
    19   19   20 1
    20   20   21 1
    21   21   32 1
    22   22   19 1
    23   23   22 1
    24   24   20 1
    25   25   26 1
    26   26   27 1
    27   27   47 1
    28   28   25 1
    29   29   28 1
    30   30   26 1
    31   31   19 1
    32   32   31 1
    33   33   22 1
    34   34   23 1
    35   35   24 1
    36   36   31 1
    37   37   31 1
    38   38   32 1
    39   39   33 1
    40   40   33 1
    41   41   34 1
    42   42   35 1
    43   43   36 2
    44   44   36 2
    45   45   37 1
    46   46   25 1
    47   47   46 1
    48   48   28 1
    49   49   29 1
    50   50   30 1
    51   51   46 1
    52   52   46 1
    53   53   47 1
    54   54   48 1
    55   55   48 1
    56   56   49 1
    57   57   50 1
    58   58   51 2
    59   59   51 2
    60   60   52 1
    61   23   24 1
    62   29   30 1
    63   32   35 1
    64   33   37 1
    65   34   37 1
    66   34   35 1
    67   47   50 1
    68   48   52 1
    69   49   52 1
    70   49   50 1
@<TRIPOS>SUBSTRUCTURE
     1 RES1 1
     2 RES2 7

@<TRIPOS>CRYSIN
  11.6600    7.6690   13.7230  90.0000 124.6300  90.0000  13 1

