# MOL2 file generated by ConQuest
# Please check atom types

@<TRIPOS>MOLECULE
DAFWIQ
    42    44     1
SMALL
NO_CHARGES
****
Generated from CSD

@<TRIPOS>ATOM
      1 O1         2.9676    1.7058   17.2013 O.3       1 RES1    0.0000
      2 O2         1.4481    2.5485   12.2179 O.2       1 RES1    0.0000
      3 O3         1.1283    0.7667   11.0597 O.2       1 RES1    0.0000
      4 N1         1.4502    1.3237   12.0753 N.pl3     1 RES1    0.0000
      5 C1         1.8903    0.8508   16.9305 C.3       1 RES1    0.0000
      6 C2         0.5686    1.6017   16.6113 C.3       1 RES1    0.0000
      7 C3         0.4479    1.6344   15.0469 C.3       1 RES1    0.0000
      8 C4         1.8297    1.1799   14.5899 C.3       1 RES1    0.0000
      9 C5         1.9820    0.4683   13.1948 C.3       1 RES1    0.0000
     10 C6         3.4332    0.1081   12.9360 C.3       1 RES1    0.0000
     11 C7         4.0879   -0.4984   14.1644 C.2       1 RES1    0.0000
     12 C8         3.5413   -0.4392   15.3927 C.2       1 RES1    0.0000
     13 C9         2.1974    0.1336   15.6224 C.3       1 RES1    0.0000
     14 C10        3.0001    2.1562   18.5699 C.3       1 RES1    0.0000
     15 C11        3.4955    1.0666   19.5032 C.ar      1 RES1    0.0000
     16 C12        2.6366    0.5014   20.4390 C.ar      1 RES1    0.0000
     17 C13        3.0502   -0.5111   21.2731 C.ar      1 RES1    0.0000
     18 C14        4.3461   -0.9865   21.1958 C.ar      1 RES1    0.0000
     19 C15        5.2369   -0.4234   20.2455 C.ar      1 RES1    0.0000
     20 C16        4.7750    0.5616   19.4186 C.ar      1 RES1    0.0000
     21 C17        4.2578    1.2972   12.4162 C.3       1 RES1    0.0000
     22 H1         1.7842    0.2964   17.7067 H         1 RES1    0.0000
     23 H2        -0.1785    1.1365   16.9910 H         1 RES1    0.0000
     24 H3         0.6018    2.4954   16.9595 H         1 RES1    0.0000
     25 H4         0.2545    2.5209   14.7326 H         1 RES1    0.0000
     26 H5        -0.2326    1.0309   14.7398 H         1 RES1    0.0000
     27 H6         2.3621    1.9736   14.5005 H         1 RES1    0.0000
     28 H7         1.4606   -0.3372   13.2214 H         1 RES1    0.0000
     29 H8         3.4211   -0.5540   12.2397 H         1 RES1    0.0000
     30 H9         4.9322   -0.9442   14.0604 H         1 RES1    0.0000
     31 H10        4.0379   -0.7789   16.1398 H         1 RES1    0.0000
     32 H11        1.7045   -0.6891   15.6030 H         1 RES1    0.0000
     33 H12        3.5868    2.9132   18.6352 H         1 RES1    0.0000
     34 H13        2.1137    2.4143   18.8358 H         1 RES1    0.0000
     35 H14        1.7349    0.8248   20.5042 H         1 RES1    0.0000
     36 H15        2.4391   -0.8886   21.9091 H         1 RES1    0.0000
     37 H16        4.6401   -1.6895   21.7809 H         1 RES1    0.0000
     38 H17        6.1445   -0.7284   20.1826 H         1 RES1    0.0000
     39 H18        5.3663    0.9172   18.7512 H         1 RES1    0.0000
     40 H19        3.9586    1.5022   11.5264 H         1 RES1    0.0000
     41 H20        5.1592    0.9666   12.3823 H         1 RES1    0.0000
     42 H21        4.2285    2.0914   12.9554 H         1 RES1    0.0000
@<TRIPOS>BOND
     1    1    5 1
     2    2    4 2
     3    3    4 2
     4    4    9 1
     5    5    6 1
     6    6    7 1
     7    7    8 1
     8    8    9 1
     9    9   10 1
    10   10   11 1
    11   11   12 2
    12   12   13 1
    13   13    5 1
    14   14    1 1
    15   15   14 1
    16   16   15 ar
    17   17   16 ar
    18   18   17 ar
    19   19   18 ar
    20   20   15 ar
    21   21   10 1
    22   22    5 1
    23   23    6 1
    24   24    6 1
    25   25    7 1
    26   26    7 1
    27   27    8 1
    28   28    9 1
    29   29   10 1
    30   30   11 1
    31   31   12 1
    32   32   13 1
    33   33   14 1
    34   34   14 1
    35   35   16 1
    36   36   17 1
    37   37   18 1
    38   38   19 1
    39   39   20 1
    40   40   21 1
    41   41   21 1
    42   42   21 1
    43    8   13 1
    44   19   20 ar
@<TRIPOS>SUBSTRUCTURE
     1 RES1 1

@<TRIPOS>CRYSIN
  11.7660    5.1010   24.1800  90.0000  90.3600  90.0000  14 1

