# MOL2 file generated by ConQuest
# Please check atom types

@<TRIPOS>MOLECULE
DAFXAM01
    18    18     1
SMALL
USER_CHARGES
****
Generated from CSD

@<TRIPOS>ATOM
      1 C1         1.4285    0.8362   12.1909 C.ar      1 RES1    0.0000
      2 C2         1.0460    0.6529   10.8899 C.ar      1 RES1    0.0000
      3 H1         1.5599    0.1174   10.3291 H         1 RES1    0.0000
      4 C3        -0.8335    2.0366   11.2076 C.ar      1 RES1    0.0000
      5 H2        -1.5971    2.4391   10.8618 H         1 RES1    0.0000
      6 C4        -0.4845    2.2475   12.5172 C.ar      1 RES1    0.0000
      7 C5         0.6650    1.6545   13.0229 C.ar      1 RES1    0.0000
      8 H3         0.9221    1.8006   13.9046 H         1 RES1    0.0000
      9 C6         2.6689    0.1342   12.6555 C.2       1 RES1    0.0000
     10 C7        -1.3146    3.0933   13.4216 C.2       1 RES1    0.0000
     11 N1        -0.0701    1.2435   10.4134 N.pl3     1 RES1    1.0000
     12 O1         3.3436   -0.5463   11.9251 O.2       1 RES1    0.0000
     13 O2         2.9209    0.3474   13.9381 O.3       1 RES1    0.0000
     14 H4         3.7597   -0.1198   14.2202 H         1 RES1    0.0000
     15 O3        -1.0205    3.2825   14.5854 O.2       1 RES1    0.0000
     16 O4        -2.3906    3.5820   12.8370 O.3       1 RES1    0.0000
     17 H5        -3.0476    4.1451   13.6367 H         1 RES1    0.0000
     18 O5        -0.4109    1.0566    9.1329 O.2       1 RES1   -1.0000
@<TRIPOS>BOND
     1    1    2 ar
     2    2    3 1
     3    4    5 1
     4    6    4 ar
     5    7    1 ar
     6    8    7 1
     7    9    1 1
     8   10    6 1
     9   11    2 ar
    10   12    9 2
    11   13    9 1
    12   14   13 1
    13   15   10 2
    14   16   10 1
    15   17   16 1
    16   18   11 1
    17    4   11 ar
    18    6    7 ar
@<TRIPOS>SUBSTRUCTURE
     1 RES1 1

@<TRIPOS>CRYSIN
   5.8697   11.9801   10.8429  90.0000  94.7540  90.0000   9 1

