# MOL2 file generated by ConQuest
# Please check atom types

@<TRIPOS>MOLECULE
DAFYEO
    47    50     1
SMALL
NO_CHARGES
****
Generated from CSD

@<TRIPOS>ATOM
      1 C1        -4.1482    5.3087    5.7493 C.3       1 RES1    0.0000
      2 C2        -4.6807    3.9227    6.1599 C.3       1 RES1    0.0000
      3 C3        -5.2804    4.2728    7.4956 C.2       1 RES1    0.0000
      4 C4        -5.7891    3.2653    8.5204 C.3       1 RES1    0.0000
      5 C5        -7.2479    2.9327    8.1963 C.ar      1 RES1    0.0000
      6 C6        -7.5982    1.7305    7.5995 C.ar      1 RES1    0.0000
      7 C7        -8.9303    1.4680    7.2901 C.ar      1 RES1    0.0000
      8 C8        -9.9140    2.3891    7.5573 C.ar      1 RES1    0.0000
      9 C9        -9.5750    3.5781    8.1628 C.ar      1 RES1    0.0000
     10 C10       -8.2536    3.8516    8.4770 C.ar      1 RES1    0.0000
     11 C11       -5.6849    3.3156    5.2008 C.ar      1 RES1    0.0000
     12 C12       -5.3557    2.1845    4.4757 C.ar      1 RES1    0.0000
     13 C13       -6.2785    1.6354    3.5885 C.ar      1 RES1    0.0000
     14 C14       -7.5190    2.2042    3.4356 C.ar      1 RES1    0.0000
     15 C15       -7.8526    3.3309    4.1398 C.ar      1 RES1    0.0000
     16 C16       -6.9358    3.8877    5.0162 C.ar      1 RES1    0.0000
     17 C17       -2.6656    5.4914    5.9503 C.ar      1 RES1    0.0000
     18 C18       -1.7863    4.6852    5.2401 C.ar      1 RES1    0.0000
     19 C19       -0.4079    4.8296    5.3833 C.ar      1 RES1    0.0000
     20 C20        0.0965    5.7900    6.2296 C.ar      1 RES1    0.0000
     21 C21       -0.7584    6.5886    6.9326 C.ar      1 RES1    0.0000
     22 C22       -2.1437    6.4420    6.8014 C.ar      1 RES1    0.0000
     23 C23       -5.6281    3.7936    9.9384 C.3       1 RES1    0.0000
     24 N1        -5.3927    5.5319    7.7037 N.2       1 RES1    0.0000
     25 O1        -4.8994    6.2363    6.5649 O.3       1 RES1    0.0000
     26 O2        -4.9466    2.1244    8.3282 O.3       1 RES1    0.0000
     27 H1        -4.4171    5.4804    4.8103 H         1 RES1    0.0000
     28 H2        -3.9571    3.3473    6.2729 H         1 RES1    0.0000
     29 H3        -6.7877    1.1267    7.3756 H         1 RES1    0.0000
     30 H4        -9.2036    0.6126    6.8254 H         1 RES1    0.0000
     31 H5       -10.7720    2.2206    7.3069 H         1 RES1    0.0000
     32 H6       -10.3134    4.2553    8.3663 H         1 RES1    0.0000
     33 H7        -7.9734    4.7256    8.9320 H         1 RES1    0.0000
     34 H8        -4.4453    1.8159    4.5876 H         1 RES1    0.0000
     35 H9        -5.9203    0.8642    3.2261 H         1 RES1    0.0000
     36 H10       -8.2334    1.7612    2.8289 H         1 RES1    0.0000
     37 H11       -8.8808    3.7193    4.0688 H         1 RES1    0.0000
     38 H12       -7.1395    4.7038    5.5374 H         1 RES1    0.0000
     39 H13       -2.1804    3.9818    4.5948 H         1 RES1    0.0000
     40 H14        0.2357    4.2006    4.8753 H         1 RES1    0.0000
     41 H15        1.1300    5.9508    6.3572 H         1 RES1    0.0000
     42 H16       -0.3277    7.3182    7.5718 H         1 RES1    0.0000
     43 H17       -2.7530    7.0010    7.3611 H         1 RES1    0.0000
     44 H18       -4.7098    4.0037   10.0829 H         1 RES1    0.0000
     45 H19       -6.1657    4.5944   10.0877 H         1 RES1    0.0000
     46 H20       -5.9495    3.0848   10.6185 H         1 RES1    0.0000
     47 H21       -5.1649    1.4986    8.9802 H         1 RES1    0.0000
@<TRIPOS>BOND
     1    1    2 1
     2    2    3 1
     3    3    4 1
     4    4    5 1
     5    5    6 ar
     6    6    7 ar
     7    7    8 ar
     8    8    9 ar
     9    9   10 ar
    10   10    5 ar
    11   11    2 1
    12   12   11 ar
    13   13   12 ar
    14   14   13 ar
    15   15   14 ar
    16   16   11 ar
    17   17    1 1
    18   18   17 ar
    19   19   18 ar
    20   20   19 ar
    21   21   20 ar
    22   22   17 ar
    23   23    4 1
    24   24    3 2
    25   25    1 1
    26   26    4 1
    27   27    1 1
    28   28    2 1
    29   29    6 1
    30   30    7 1
    31   31    8 1
    32   32    9 1
    33   33   10 1
    34   34   12 1
    35   35   13 1
    36   36   14 1
    37   37   15 1
    38   38   16 1
    39   39   18 1
    40   40   19 1
    41   41   20 1
    42   42   21 1
    43   43   22 1
    44   44   23 1
    45   45   23 1
    46   46   23 1
    47   47   26 1
    48   15   16 ar
    49   21   22 ar
    50   24   25 1
@<TRIPOS>SUBSTRUCTURE
     1 RES1 1

@<TRIPOS>CRYSIN
  28.4720   10.9390   20.6590  90.0000 144.3600  90.0000  15 1

