# MOL2 file generated by ConQuest
# Please check atom types

@<TRIPOS>MOLECULE
DAGRIN
    50    52     2
SMALL
NO_CHARGES
****
Generated from CSD

@<TRIPOS>ATOM
      1 O1        -3.1969    7.1186   17.7088 O.3       1 RES1    0.0000
      2 O2        -2.7349    6.6507   15.5778 O.2       1 RES1    0.0000
      3 O3         0.9592    8.1134   16.4984 O.2       1 RES1    0.0000
      4 O4         1.2778    6.7441   14.2961 O.3       1 RES1    0.0000
      5 O5         1.1723    5.1854   17.2339 O.2       1 RES1    0.0000
      6 O6         1.8520    3.6989   15.8754 O.2       1 RES1    0.0000
      7 O7         1.2812    3.4106   16.1222 Du        2 SUP2    0.0000
      8 N1        -1.0933    7.3832   17.0395 N.am      1 RES1    0.0000
      9 N2         1.0110    4.5434   16.2196 N.pl3     1 RES1    0.0000
     10 C1        -2.4110    7.3757   18.9030 C.3       1 RES1    0.0000
     11 C2        -2.3824    7.0065   16.6733 C.2       1 RES1    0.0000
     12 C3        -1.1192    7.9723   18.3757 C.3       1 RES1    0.0000
     13 C4        -2.9506    8.3941   19.8966 C.3       1 RES1    0.0000
     14 C5        -1.7432    9.3128   20.0117 C.3       1 RES1    0.0000
     15 C6        -0.5835    8.4955   20.6031 C.3       1 RES1    0.0000
     16 C7        -0.0690    7.6211   19.4107 C.3       1 RES1    0.0000
     17 C8        -1.3143    9.4975   18.5502 C.3       1 RES1    0.0000
     18 C9        -2.3711   10.0875   17.6299 C.3       1 RES1    0.0000
     19 C10       -0.0485   10.3458   18.4300 C.3       1 RES1    0.0000
     20 C11        0.0252    7.4022   16.2178 C.2       1 RES1    0.0000
     21 C12        0.0956    6.4958   14.9914 C.3       1 RES1    0.0000
     22 C13       -0.0923    5.0008   15.2866 C.3       1 RES1    0.0000
     23 C14       -0.1952    4.1394   14.0633 C.ar      1 RES1    0.0000
     24 C15       -1.3814    3.4866   13.8248 C.ar      1 RES1    0.0000
     25 C16       -1.5334    2.7151   12.6760 C.ar      1 RES1    0.0000
     26 C17       -0.5204    2.5993   11.7909 C.ar      1 RES1    0.0000
     27 C18        0.6578    3.2363   12.0097 C.ar      1 RES1    0.0000
     28 C19        0.8331    4.0100   13.1539 C.ar      1 RES1    0.0000
     29 H1        -2.2238    6.4916   19.3877 H         1 RES1    0.0000
     30 H2        -1.8852   10.0971   20.4739 H         1 RES1    0.0000
     31 H3        -0.5842    6.6659   14.4363 H         1 RES1    0.0000
     32 H4        -0.9094    4.8790   15.8360 H         1 RES1    0.0000
     33 H5        -2.1441    3.6244   14.4808 H         1 RES1    0.0000
     34 H6        -2.2835    2.3445   12.6047 H         1 RES1    0.0000
     35 H7        -0.6771    2.1132   11.0062 H         1 RES1    0.0000
     36 H8         1.3475    3.2189   11.3763 H         1 RES1    0.0000
     37 H9         1.6728    4.4846   13.3637 H         1 RES1    0.0000
     38 H10       -3.6709    8.8520   19.5830 H         1 RES1    0.0000
     39 H11        0.0199    9.0769   20.9365 H         1 RES1    0.0000
     40 H12       -0.1062    6.6057   19.5933 H         1 RES1    0.0000
     41 H13       -3.2128    9.6155   17.7155 H         1 RES1    0.0000
     42 H14        0.2390   10.3600   17.4928 H         1 RES1    0.0000
     43 H15        1.8719    6.8592   14.8629 H         1 RES1    0.0000
     44 H16       -3.1863    7.9775   20.7960 H         1 RES1    0.0000
     45 H17       -0.9492    7.9522   21.3820 H         1 RES1    0.0000
     46 H18        0.7833    7.9268   19.0228 H         1 RES1    0.0000
     47 H19       -2.0313   10.1097   16.7218 H         1 RES1    0.0000
     48 H20       -0.2655   11.1837   18.5859 H         1 RES1    0.0000
     49 H21       -2.6220   10.9620   17.8697 H         1 RES1    0.0000
     50 H22        0.7634    9.9006   18.8463 H         1 RES1    0.0000
@<TRIPOS>BOND
     1    1   10 1
     2    2   11 2
     3    3   20 2
     4    4   21 1
     5    5    9 2
     6    6    9 2
     7    8   11 1
     8    9   22 1
     9   10   12 1
    10   11    1 1
    11   12    8 1
    12   13   10 1
    13   14   13 1
    14   15   14 1
    15   16   12 1
    16   17   12 1
    17   18   17 1
    18   19   17 1
    19   20    8 1
    20   21   20 1
    21   22   21 1
    22   23   22 1
    23   24   23 ar
    24   25   24 ar
    25   26   25 ar
    26   27   26 ar
    27   28   23 ar
    28   29   10 1
    29   30   14 1
    30   31   21 1
    31   32   22 1
    32   33   24 1
    33   34   25 1
    34   35   26 1
    35   36   27 1
    36   37   28 1
    37   38   13 1
    38   39   15 1
    39   40   16 1
    40   41   18 1
    41   42   19 1
    42   43    4 1
    43   44   13 1
    44   45   15 1
    45   46   16 1
    46   47   18 1
    47   48   19 1
    48   49   18 1
    49   50   19 1
    50   14   17 1
    51   15   16 1
    52   27   28 ar
@<TRIPOS>SUBSTRUCTURE
     1 RES1 1
     2 SUP2 7

@<TRIPOS>CRYSIN
   6.6381   15.8410   17.1330  90.0000  90.0000  90.0000  19 1

