# MOL2 file generated by ConQuest
# Please check atom types

@<TRIPOS>MOLECULE
DAGROT
    49    52     1
SMALL
NO_CHARGES
****
Generated from CSD

@<TRIPOS>ATOM
      1 C1         3.5570    3.3155    3.9749 C.3       1 RES1    0.0000
      2 C2         3.4957    4.6798    2.1541 C.2       1 RES1    0.0000
      3 C3         4.9902    3.4281    3.4669 C.3       1 RES1    0.0000
      4 C4         3.6468    3.4185    5.4958 C.3       1 RES1    0.0000
      5 C5         5.1771    3.3694    5.6691 C.3       1 RES1    0.0000
      6 C6         5.6451    1.9824    5.2335 C.3       1 RES1    0.0000
      7 C7         5.5999    2.0387    3.6711 C.3       1 RES1    0.0000
      8 C8         5.6867    4.2905    4.5533 C.3       1 RES1    0.0000
      9 C9         7.2097    4.3528    4.4859 C.3       1 RES1    0.0000
     10 C10        5.2049    5.7399    4.6506 C.3       1 RES1    0.0000
     11 C11        5.6838    4.0246    1.1533 C.2       1 RES1    0.0000
     12 C12        5.3297    4.5660   -0.2228 C.3       1 RES1    0.0000
     13 C13        6.2993    5.6836   -0.5392 C.3       1 RES1    0.0000
     14 C14        6.2854    6.8406    0.4250 C.ar      1 RES1    0.0000
     15 C15        5.1910    7.6120    0.5895 C.ar      1 RES1    0.0000
     16 C16        5.2341    8.6673    1.5321 C.ar      1 RES1    0.0000
     17 C17        6.3774    8.8925    2.2126 C.ar      1 RES1    0.0000
     18 C18        7.4697    8.1223    2.0501 C.ar      1 RES1    0.0000
     19 C19        7.4310    7.1018    1.1572 C.ar      1 RES1    0.0000
     20 H1         3.2197    2.5393    3.7513 H         1 RES1    0.0000
     21 H2         5.3662    3.5910    6.5143 H         1 RES1    0.0000
     22 H3         4.3076    4.8391   -0.2947 H         1 RES1    0.0000
     23 H4         7.3229    5.3422   -0.6111 H         1 RES1    0.0000
     24 H5         4.3514    7.4743    0.1560 H         1 RES1    0.0000
     25 H6         4.2711    9.0554    1.5408 H         1 RES1    0.0000
     26 H7         6.3446    9.5824    2.7500 H         1 RES1    0.0000
     27 H8         8.3596    8.3606    2.8606 H         1 RES1    0.0000
     28 H9         8.2939    6.4322    0.9058 H         1 RES1    0.0000
     29 H10        3.0810    2.6951    5.9053 H         1 RES1    0.0000
     30 H11        5.0231    1.2936    5.6128 H         1 RES1    0.0000
     31 H12        5.1107    1.4134    3.1640 H         1 RES1    0.0000
     32 H13        7.6222    3.4616    4.2887 H         1 RES1    0.0000
     33 H14        5.2713    6.1327    3.8228 H         1 RES1    0.0000
     34 H15        4.8406    3.0664   -1.2352 H         1 RES1    0.0000
     35 H16        3.2489    4.3121    5.6930 H         1 RES1    0.0000
     36 H17        6.7169    1.9165    5.5218 H         1 RES1    0.0000
     37 H18        6.5490    2.1201    3.2788 H         1 RES1    0.0000
     38 H19        7.4543    4.6954    3.5107 H         1 RES1    0.0000
     39 H20        4.0448    5.8453    4.5943 H         1 RES1    0.0000
     40 H21        7.6295    4.8152    5.2379 H         1 RES1    0.0000
     41 H22        5.5853    6.0249    5.4741 H         1 RES1    0.0000
     42 N1         4.7508    4.0186    2.1545 N.am      1 RES1    0.0000
     43 N2         6.0000    6.1866   -1.9361 N.pl3     1 RES1    0.0000
     44 O1         2.8503    4.3744    3.2916 O.3       1 RES1    0.0000
     45 O2         3.0679    5.4117    1.3384 O.2       1 RES1    0.0000
     46 O3         6.7907    3.5802    1.3668 O.2       1 RES1    0.0000
     47 O4         5.5933    3.5395   -1.1672 O.3       1 RES1    0.0000
     48 O5         6.9374    6.4789   -2.6172 O.2       1 RES1    0.0000
     49 O6         4.8515    6.2825   -2.2887 O.2       1 RES1    0.0000
@<TRIPOS>BOND
     1    1    3 1
     2    2   42 1
     3    3    7 1
     4    4    1 1
     5    5    4 1
     6    6    5 1
     7    7    6 1
     8    8    3 1
     9    9    8 1
    10   10    8 1
    11   11   12 1
    12   12   13 1
    13   13   14 1
    14   14   15 ar
    15   15   16 ar
    16   16   17 ar
    17   17   18 ar
    18   18   19 ar
    19   19   14 ar
    20   20    1 1
    21   21    5 1
    22   22   12 1
    23   23   13 1
    24   24   15 1
    25   25   16 1
    26   26   17 1
    27   27   18 1
    28   28   19 1
    29   29    4 1
    30   30    6 1
    31   31    7 1
    32   32    9 1
    33   33   10 1
    34   34   47 1
    35   35    4 1
    36   36    6 1
    37   37    7 1
    38   38    9 1
    39   39   10 1
    40   40    9 1
    41   41   10 1
    42   42    3 1
    43   43   13 1
    44   44    1 1
    45   45    2 2
    46   46   11 2
    47   47   12 1
    48   48   43 2
    49   49   43 2
    50    2   44 1
    51    5    8 1
    52   11   42 1
@<TRIPOS>SUBSTRUCTURE
     1 RES1 1

@<TRIPOS>CRYSIN
   7.3010   11.9780   21.6710  90.0000  90.0000  90.0000  19 1

