# MOL2 file generated by ConQuest
# Please check atom types

@<TRIPOS>MOLECULE
DAGREJ
    39    41     1
SMALL
NO_CHARGES
****
Generated from CSD

@<TRIPOS>ATOM
      1 C1         7.7718    2.2569    3.3728 C.3       1 RES1    0.0000
      2 C2         6.1314    3.2283    4.6335 C.2       1 RES1    0.0000
      3 C3         7.7578    3.7459    3.0412 C.3       1 RES1    0.0000
      4 C4         7.8950    1.5490    2.0369 C.3       1 RES1    0.0000
      5 C5         8.2027    2.7263    1.1291 C.3       1 RES1    0.0000
      6 C6         9.5649    3.2994    1.5956 C.3       1 RES1    0.0000
      7 C7         9.2181    4.1213    2.8618 C.3       1 RES1    0.0000
      8 C8         7.2110    3.8014    1.5883 C.3       1 RES1    0.0000
      9 C9         7.4028    5.1438    0.8911 C.3       1 RES1    0.0000
     10 C10        5.7521    3.4356    1.4617 C.3       1 RES1    0.0000
     11 C11        6.7881    5.5985    4.4451 C.2       1 RES1    0.0000
     12 C12        5.7617    6.0294    5.4766 C.3       1 RES1    0.0000
     13 C13        4.3353    6.0627    4.9664 C.3       1 RES1    0.0000
     14 H1         8.4344    2.0214    3.9600 H         1 RES1    0.0000
     15 H2         8.1614    2.6063    0.2340 H         1 RES1    0.0000
     16 H3         5.6303    5.3608    6.1212 H         1 RES1    0.0000
     17 H4         8.6337    0.8515    1.9976 H         1 RES1    0.0000
     18 H5        10.3235    2.5397    1.7737 H         1 RES1    0.0000
     19 H6         9.7701    3.8207    3.6053 H         1 RES1    0.0000
     20 H7         6.6929    5.8125    1.2227 H         1 RES1    0.0000
     21 H8         5.4163    2.6212    1.9347 H         1 RES1    0.0000
     22 H9         6.3830    7.8413    5.2582 H         1 RES1    0.0000
     23 H10        4.1619    5.2349    4.5035 H         1 RES1    0.0000
     24 H11        7.1283    1.1773    1.8215 H         1 RES1    0.0000
     25 H12        9.7996    3.9317    0.9233 H         1 RES1    0.0000
     26 H13        9.3494    5.1757    2.6845 H         1 RES1    0.0000
     27 H14        8.4123    5.5163    0.9787 H         1 RES1    0.0000
     28 H15        5.2171    4.2353    1.8970 H         1 RES1    0.0000
     29 H16        3.8077    6.3308    5.6708 H         1 RES1    0.0000
     30 H17        7.0619    5.0942    0.0377 H         1 RES1    0.0000
     31 H18        5.5934    3.4134    0.5610 H         1 RES1    0.0000
     32 N1         6.8715    4.2635    4.0843 N.am      1 RES1    0.0000
     33 N2         4.1604    7.0490    3.8690 N.pl3     1 RES1    0.0000
     34 O1         6.5668    2.0510    4.1319 O.3       1 RES1    0.0000
     35 O2         5.2296    3.2935    5.3996 O.2       1 RES1    0.0000
     36 O3         7.5216    6.4085    3.9502 O.2       1 RES1    0.0000
     37 O4         6.1336    7.2585    6.0356 O.3       1 RES1    0.0000
     38 O5         4.6762    6.8069    2.7982 O.2       1 RES1    0.0000
     39 O6         3.5627    8.0812    4.0994 O.2       1 RES1    0.0000
@<TRIPOS>BOND
     1    1    3 1
     2    2   32 1
     3    3    7 1
     4    4    1 1
     5    5    4 1
     6    6    5 1
     7    7    6 1
     8    8    3 1
     9    9    8 1
    10   10    8 1
    11   11   12 1
    12   12   13 1
    13   13   23 1
    14   14    1 1
    15   15    5 1
    16   16   12 1
    17   17    4 1
    18   18    6 1
    19   19    7 1
    20   20    9 1
    21   21   10 1
    22   22   37 1
    23   24    4 1
    24   25    6 1
    25   26    7 1
    26   27    9 1
    27   28   10 1
    28   29   13 1
    29   30    9 1
    30   31   10 1
    31   32    3 1
    32   33   13 1
    33   34    1 1
    34   35    2 2
    35   36   11 2
    36   37   12 1
    37   38   33 2
    38   39   33 2
    39    2   34 1
    40    5    8 1
    41   11   32 1
@<TRIPOS>SUBSTRUCTURE
     1 RES1 1

@<TRIPOS>CRYSIN
   7.3792    7.4044   25.1590  90.0000  90.0000  90.0000  19 1

