# MOL2 file generated by ConQuest
# Please check atom types

@<TRIPOS>MOLECULE
DAHLAZ01
    29    30     1
SMALL
NO_CHARGES
****
Generated from CSD

@<TRIPOS>ATOM
      1 O1         6.1711   12.4277   -1.2801 O.2       1 RES1    0.0000
      2 O2         5.5424   10.5133   -0.4953 O.2       1 RES1    0.0000
      3 N1         5.4086   11.7343   -0.6104 N.pl3     1 RES1    0.0000
      4 N2         0.9665   14.1396    1.7661 N.3       1 RES1    0.0000
      5 N3         0.6842   15.4460    1.5070 N.2       1 RES1    0.0000
      6 C1         4.2669   12.3785    0.0161 C.ar      1 RES1    0.0000
      7 C2         4.0553   13.7204   -0.1896 C.ar      1 RES1    0.0000
      8 H1         4.6476   14.2175   -0.7069 H         1 RES1    0.0000
      9 C3         2.9587   14.3195    0.3793 C.ar      1 RES1    0.0000
     10 H2         2.7980   15.2257    0.2404 H         1 RES1    0.0000
     11 C4         2.0833   13.5652    1.1700 C.ar      1 RES1    0.0000
     12 C5         2.3142   12.2139    1.3673 C.ar      1 RES1    0.0000
     13 H3         1.7333   11.7110    1.8905 H         1 RES1    0.0000
     14 C6         3.4082   11.6265    0.7840 C.ar      1 RES1    0.0000
     15 H4         3.5694   10.7191    0.9084 H         1 RES1    0.0000
     16 C7        -0.4191   15.8983    1.9803 C.2       1 RES1    0.0000
     17 H5        -0.9683   15.3447    2.4874 H         1 RES1    0.0000
     18 C8        -0.8149   17.2841    1.7246 C.ar      1 RES1    0.0000
     19 C9        -2.0688   17.7182    2.0709 C.ar      1 RES1    0.0000
     20 H6        -2.6650   17.1394    2.4891 H         1 RES1    0.0000
     21 C10       -2.4506   19.0461    1.7906 C.ar      1 RES1    0.0000
     22 H7        -3.2934   19.3495    2.0412 H         1 RES1    0.0000
     23 C11       -1.6034   19.8723    1.1633 C.ar      1 RES1    0.0000
     24 H8        -1.8664   20.7451    0.9762 H         1 RES1    0.0000
     25 C12       -0.3673   19.4522    0.7984 C.ar      1 RES1    0.0000
     26 H9         0.2099   20.0333    0.3564 H         1 RES1    0.0000
     27 C13        0.0336   18.1663    1.0820 C.ar      1 RES1    0.0000
     28 H10        0.8865   17.8862    0.8382 H         1 RES1    0.0000
     29 H11        0.4193   13.5921    2.2266 H         1 RES1    0.0000
@<TRIPOS>BOND
     1    1    3 2
     2    2    3 2
     3    3    6 1
     4    4    5 1
     5    5   16 2
     6    6    7 ar
     7    7    8 1
     8    9    7 ar
     9   10    9 1
    10   11    4 1
    11   12   11 ar
    12   13   12 1
    13   14    6 ar
    14   15   14 1
    15   16   17 1
    16   18   16 1
    17   19   18 ar
    18   20   19 1
    19   21   19 ar
    20   22   21 1
    21   23   21 ar
    22   24   23 1
    23   25   23 ar
    24   26   25 1
    25   27   18 ar
    26   28   27 1
    27   29    4 1
    28    9   11 ar
    29   12   14 ar
    30   25   27 ar
@<TRIPOS>SUBSTRUCTURE
     1 RES1 1

@<TRIPOS>CRYSIN
   6.0740   23.3380    8.5270  90.0000  96.8400  90.0000   9 1

