# MOL2 file generated by ConQuest
# Please check atom types

@<TRIPOS>MOLECULE
DAHNEG
   104    97     3
SMALL
USER_CHARGES
****
Generated from CSD

@<TRIPOS>ATOM
      1 O1        10.0057    1.7984   -0.4854 O.2       1 RES1   -1.0000
      2 O2         8.2988    6.0177   -1.2154 O.2       1 RES1    0.0000
      3 O3         6.3698    0.5136    4.4602 O.2       1 RES1    0.0000
      4 O4         9.2568    7.8116    8.7656 O.2       2 RES2   -1.0000
      5 O5        11.6088    9.3789    5.1577 O.2       2 RES2    0.0000
      6 O6        10.5224    9.5032    4.6035 Du        3 SUP3    0.0000
      7 O7        11.1496    3.3175    9.8529 O.2       2 RES2    0.0000
      8 N1         9.8573    2.9879   -0.9058 N.pl3     1 RES1    1.0000
      9 N2         9.0597    5.0085   -1.2249 N.3       1 RES1    0.0000
     10 N3         4.7575    0.7182    2.8798 N.am      1 RES1    0.0000
     11 N4         4.2044    0.4293    5.1787 N.2       1 RES1    0.0000
     12 N5         2.0156    0.3968    5.8151 N.3       1 RES1    0.0000
     13 N6         9.6640    8.6011    7.8598 N.pl3     2 RES2    1.0000
     14 N7        10.1233    9.4057    5.8265 Du        3 SUP3    0.0000
     15 N8        10.9199    9.3705    6.2832 N.3       2 RES2    0.0000
     16 N9         9.5362    3.3288    8.2553 N.am      2 RES2    0.0000
     17 N10        8.9833    3.1629   10.5504 N.2       2 RES2    0.0000
     18 N11        6.7903    2.9951   11.1849 N.3       2 RES2    0.0000
     19 C1         7.4552    4.7323    1.2880 C.ar      1 RES1    0.0000
     20 C2         6.4842    4.5247    2.2320 C.ar      1 RES1    0.0000
     21 C3         5.9588    3.2591    2.4499 C.ar      1 RES1    0.0000
     22 C4         6.3712    2.1892    1.6874 C.ar      1 RES1    0.0000
     23 C5         7.3615    2.3883    0.7262 C.ar      1 RES1    0.0000
     24 C6         7.9011    3.6455    0.5083 C.ar      1 RES1    0.0000
     25 C7         8.9284    3.8615   -0.5045 C.2       1 RES1    0.0000
     26 C8        10.3716    5.0286   -1.9454 C.3       1 RES1    0.0000
     27 C9        10.6344    3.4986   -2.0963 C.3       1 RES1    0.0000
     28 C10       10.2283    5.7634   -3.2926 C.3       1 RES1    0.0000
     29 C11       11.3533    5.7076   -1.0453 C.3       1 RES1    0.0000
     30 C12       12.0660    3.0701   -2.0237 C.3       1 RES1    0.0000
     31 C13        9.9479    2.8964   -3.3480 C.3       1 RES1    0.0000
     32 C14        5.7785    0.8231    1.8307 C.3       1 RES1    0.0000
     33 C15        5.1608    0.5616    4.2347 C.2       1 RES1    0.0000
     34 C16        2.9113    0.5176    4.8366 C.2       1 RES1    0.0000
     35 C17        2.4900    0.7755    3.5009 C.2       1 RES1    0.0000
     36 C18        3.4330    0.8378    2.5722 C.2       1 RES1    0.0000
     37 C19       12.6730    6.8693    6.2660 C.ar      2 RES2    0.0000
     38 C20       13.3357    5.7165    5.9985 C.ar      2 RES2    0.0000
     39 C21       12.5000    4.5439    6.2374 C.ar      2 RES2    0.0000
     40 C22       11.2906    4.5516    6.8508 C.ar      2 RES2    0.0000
     41 C23       10.3869    5.8273    6.9597 C.ar      2 RES2    0.0000
     42 C24       11.4143    6.9785    6.8145 C.ar      2 RES2    0.0000
     43 C25       10.7657    8.2499    7.0342 C.2       2 RES2    0.0000
     44 C26        9.2809   10.0309    7.8521 C.3       2 RES2    0.0000
     45 C27       10.2411   10.5885    6.7820 C.3       2 RES2    0.0000
     46 C28        7.8335   10.0908    7.4757 C.3       2 RES2    0.0000
     47 C29        9.4859   10.5769    9.2452 C.3       2 RES2    0.0000
     48 C30       11.5158   11.0775    7.3152 C.3       2 RES2    0.0000
     49 C31        9.7153   11.6603    5.8819 C.3       2 RES2    0.0000
     50 C32       10.5532    3.3235    7.1757 C.3       2 RES2    0.0000
     51 C33        9.9313    3.2641    9.5988 C.2       2 RES2    0.0000
     52 C34        7.6908    3.1265   10.1931 C.2       2 RES2    0.0000
     53 C35        7.2704    3.1980    8.8305 C.2       2 RES2    0.0000
     54 C36        8.2337    3.2779    7.9133 C.2       2 RES2    0.0000
     55 C37        9.9141    6.6843    4.5041 Du        3 SUP3    0.0000
     56 C38       10.0784    5.4088    4.0359 Du        3 SUP3    0.0000
     57 C39       10.2077    4.3359    4.9723 Du        3 SUP3    0.0000
     58 C40       10.2929    4.5530    6.3100 Du        3 SUP3    0.0000
     59 C41        9.9486    6.9360    5.9221 Du        3 SUP3    0.0000
     60 C42        9.8448    8.2804    6.4973 Du        3 SUP3    0.0000
     61 H1         7.8272    5.5959    1.1561 H         1 RES1    0.0000
     62 H2         6.1753    5.2618    2.7441 H         1 RES1    0.0000
     63 H3         5.3050    3.1414    3.1302 H         1 RES1    0.0000
     64 H4         7.6594    1.6525    0.2045 H         1 RES1    0.0000
     65 H5         9.9922    5.1424   -3.9710 H         1 RES1    0.0000
     66 H6        11.0623    6.1665   -3.5104 H         1 RES1    0.0000
     67 H7         9.5577    6.4300   -3.2238 H         1 RES1    0.0000
     68 H8        11.3244    6.6393   -1.2287 H         1 RES1    0.0000
     69 H9        12.2293    5.3777   -1.1924 H         1 RES1    0.0000
     70 H10       11.1001    5.5559   -0.1414 H         1 RES1    0.0000
     71 H11       12.5660    3.7332   -1.5632 H         1 RES1    0.0000
     72 H12       12.4086    2.9616   -2.9027 H         1 RES1    0.0000
     73 H13       12.1246    2.2469   -1.5536 H         1 RES1    0.0000
     74 H14       10.3397    2.0557   -3.5506 H         1 RES1    0.0000
     75 H15       10.0601    3.4817   -4.0875 H         1 RES1    0.0000
     76 H16        9.0217    2.7794   -3.1703 H         1 RES1    0.0000
     77 H17        6.4738    0.2086    2.0333 H         1 RES1    0.0000
     78 H18        5.3796    0.5864    1.0013 H         1 RES1    0.0000
     79 H19        3.1811    0.9693    1.6664 H         1 RES1    0.0000
     80 H20        1.5727    0.8972    3.2830 H         1 RES1    0.0000
     81 H21        2.2986    0.2241    6.7036 H         1 RES1    0.0000
     82 H22        1.0908    0.4910    5.6201 H         1 RES1    0.0000
     83 H23        7.7353   10.1708    6.5336 H         2 RES2    0.0000
     84 H24        7.4716   10.8613    7.8980 H         2 RES2    0.0000
     85 H25        7.3689    9.3179    7.7776 H         2 RES2    0.0000
     86 H26        8.6782   10.4749    9.7363 H         2 RES2    0.0000
     87 H27        9.7134   11.4973    9.1994 H         2 RES2    0.0000
     88 H28       10.1822   10.0987    9.6790 H         2 RES2    0.0000
     89 H29       11.7128   10.6264    8.1273 H         2 RES2    0.0000
     90 H30       11.4359   12.0102    7.4814 H         2 RES2    0.0000
     91 H31       12.2103   10.9240    6.6884 H         2 RES2    0.0000
     92 H32       10.4367   12.0386    5.3946 H         2 RES2    0.0000
     93 H33        9.2876   12.3376    6.3941 H         2 RES2    0.0000
     94 H34        9.0887   11.2775    5.2781 H         2 RES2    0.0000
     95 H35       13.1259    7.6780    6.0520 H         2 RES2    0.0000
     96 H36       14.2333    5.6786    5.6832 H         2 RES2    0.0000
     97 H37       12.8308    3.7012    5.9546 H         2 RES2    0.0000
     98 H38        9.7751    7.4046    3.9022 Du        3 SUP3    0.0000
     99 H39       10.1109    5.2331    3.1034 Du        3 SUP3    0.0000
    100 H40       10.2393    3.4410    4.6570 Du        3 SUP3    0.0000
    101 H41        7.9944    3.3091    6.9941 H         2 RES2    0.0000
    102 H42        6.3500    3.1609    8.5974 H         2 RES2    0.0000
    103 H43        7.0844    2.9681   12.0868 H         2 RES2    0.0000
    104 H44        5.8643    2.9221   10.9842 H         2 RES2    0.0000
@<TRIPOS>BOND
     1    1    8 1
     2    2    9 1
     3    3   33 2
     4    4   13 1
     5    5   15 1
     6    7   51 2
     7    8   25 2
     8    9   25 1
     9   10   32 1
    10   11   33 1
    11   12   34 1
    12   13   43 2
    13   15   43 1
    14   16   50 1
    15   17   51 1
    16   18   52 1
    17   19   20 ar
    18   20   21 ar
    19   21   22 ar
    20   22   23 ar
    21   23   24 ar
    22   24   19 ar
    23   25   24 1
    24   26    9 1
    25   27    8 1
    26   28   26 1
    27   29   26 1
    28   30   27 1
    29   31   27 1
    30   32   22 1
    31   33   10 1
    32   34   11 2
    33   35   34 1
    34   36   10 1
    35   37   38 ar
    36   38   39 ar
    37   39   40 ar
    38   40   41 ar
    39   41   42 ar
    40   42   37 ar
    41   43   42 1
    42   44   13 1
    43   45   15 1
    44   46   44 1
    45   47   44 1
    46   48   45 1
    47   49   45 1
    48   50   40 1
    49   51   16 1
    50   52   17 2
    51   53   52 1
    52   54   16 1
    53   61   19 1
    54   62   20 1
    55   63   21 1
    56   64   23 1
    57   65   28 1
    58   66   28 1
    59   67   28 1
    60   68   29 1
    61   69   29 1
    62   70   29 1
    63   71   30 1
    64   72   30 1
    65   73   30 1
    66   74   31 1
    67   75   31 1
    68   76   31 1
    69   77   32 1
    70   78   32 1
    71   79   36 1
    72   80   35 1
    73   81   12 1
    74   82   12 1
    75   83   46 1
    76   84   46 1
    77   85   46 1
    78   86   47 1
    79   87   47 1
    80   88   47 1
    81   89   48 1
    82   90   48 1
    83   91   48 1
    84   92   49 1
    85   93   49 1
    86   94   49 1
    87   95   37 1
    88   96   38 1
    89   97   39 1
    90  101   54 1
    91  102   53 1
    92  103   18 1
    93  104   18 1
    94   26   27 1
    95   35   36 2
    96   44   45 1
    97   53   54 2
@<TRIPOS>SUBSTRUCTURE
     1 RES1 1
     2 RES2 4
     3 SUP3 6

@<TRIPOS>CRYSIN
   6.9780   14.5287   20.0342  78.0230  75.2000  78.0000   2 1

