# MOL2 file generated by ConQuest
# Please check atom types

@<TRIPOS>MOLECULE
DAJKUW
    58    61     1
SMALL
NO_CHARGES
****
Generated from CSD

@<TRIPOS>ATOM
      1 O1         6.7161    0.8196   11.2503 O.2       1 RES1    0.0000
      2 O2         5.7241   -0.9116   12.0951 O.2       1 RES1    0.0000
      3 O3         3.1202    3.3389    4.9648 O.3       1 RES1    0.0000
      4 O4         2.3973    4.8664    6.5002 O.3       1 RES1    0.0000
      5 O5        -0.4026    2.8187    7.6361 O.3       1 RES1    0.0000
      6 O6        -0.3323    2.2208    9.7857 O.2       1 RES1    0.0000
      7 O7         0.3941    6.0223    8.1897 O.3       1 RES1    0.0000
      8 O8        -0.2673    8.0754    7.6806 O.2       1 RES1    0.0000
      9 N1         5.9205   -0.1019   11.1887 N.pl3     1 RES1    0.0000
     10 N2         4.1342    1.2795    5.5013 N.2       1 RES1    0.0000
     11 C1         3.2614    1.6888    3.3072 C.ar      1 RES1    0.0000
     12 C2         2.3671    2.2010    1.1267 C.ar      1 RES1    0.0000
     13 H1         1.9063    2.7817    0.5662 H         1 RES1    0.0000
     14 C3         2.5729    2.5310    2.4521 C.ar      1 RES1    0.0000
     15 H2         2.2424    3.3371    2.7775 H         1 RES1    0.0000
     16 C4         2.8495    1.0063    0.6439 C.ar      1 RES1    0.0000
     17 H3         2.7210    0.7809   -0.2500 H         1 RES1    0.0000
     18 C5         3.5172    0.1506    1.4726 C.ar      1 RES1    0.0000
     19 H4         3.8264   -0.6627    1.1439 H         1 RES1    0.0000
     20 C6         3.7381    0.4833    2.7946 C.ar      1 RES1    0.0000
     21 H5         4.2076   -0.1001    3.3460 H         1 RES1    0.0000
     22 C7         4.4742    0.5690    7.8256 C.ar      1 RES1    0.0000
     23 C8         3.8304   -0.6384    7.5767 C.ar      1 RES1    0.0000
     24 H6         3.3874   -0.7682    6.7685 H         1 RES1    0.0000
     25 C9         3.8467   -1.6537    8.5265 C.ar      1 RES1    0.0000
     26 H7         3.4062   -2.4553    8.3553 H         1 RES1    0.0000
     27 C10        4.5117   -1.4779    9.7183 C.ar      1 RES1    0.0000
     28 H8         4.5170   -2.1469   10.3645 H         1 RES1    0.0000
     29 C11        5.1651   -0.2930    9.9295 C.ar      1 RES1    0.0000
     30 C12        5.1566    0.7286    9.0128 C.ar      1 RES1    0.0000
     31 H9         5.6078    1.5220    9.1921 H         1 RES1    0.0000
     32 C13        3.5572    2.0739    4.6896 C.2       1 RES1    0.0000
     33 C14        4.3952    1.7393    6.8632 C.3       1 RES1    0.0000
     34 H10        5.2693    2.1821    6.8632 H         1 RES1    0.0000
     35 C15        3.3456    2.7790    7.3164 C.3       1 RES1    0.0000
     36 H11        3.6254    3.1523    8.1783 H         1 RES1    0.0000
     37 C16        3.3719    3.8745    6.2856 C.3       1 RES1    0.0000
     38 H12        4.2568    4.2947    6.2936 H         1 RES1    0.0000
     39 C17        1.0420    4.3704    6.6098 C.3       1 RES1    0.0000
     40 H13        0.7884    3.9530    5.7604 H         1 RES1    0.0000
     41 C18        0.9620    3.3344    7.7034 C.3       1 RES1    0.0000
     42 H14        1.1251    3.7483    8.5756 H         1 RES1    0.0000
     43 C19        1.9438    2.1983    7.4683 C.3       1 RES1    0.0000
     44 H15        1.6992    1.7114    6.6669 H         1 RES1    0.0000
     45 H16        1.9208    1.5824    8.2183 H         1 RES1    0.0000
     46 C20       -0.9393    2.3011    8.7560 C.2       1 RES1    0.0000
     47 C21       -2.3109    1.8295    8.5128 C.3       1 RES1    0.0000
     48 H17       -2.6704    1.4589    9.3222 H         1 RES1    0.0000
     49 H18       -2.3020    1.1560    7.8290 H         1 RES1    0.0000
     50 H19       -2.8576    2.5662    8.2286 H         1 RES1    0.0000
     51 C22        0.1699    5.5787    6.8358 C.3       1 RES1    0.0000
     52 H20        0.4007    6.2820    6.2091 H         1 RES1    0.0000
     53 H21       -0.7639    5.3470    6.7091 H         1 RES1    0.0000
     54 C23        0.1079    7.2847    8.4991 C.2       1 RES1    0.0000
     55 C24        0.3539    7.5597    9.9238 C.3       1 RES1    0.0000
     56 H22        0.1417    8.4767   10.1133 H         1 RES1    0.0000
     57 H23        1.2774    7.3965   10.1270 H         1 RES1    0.0000
     58 H24       -0.1974    6.9853   10.4604 H         1 RES1    0.0000
@<TRIPOS>BOND
     1    1    9 2
     2    2    9 2
     3    3   32 1
     4    4   37 1
     5    5   41 1
     6    6   46 2
     7    7   51 1
     8    8   54 2
     9    9   29 1
    10   10   32 2
    11   11   14 ar
    12   12   13 1
    13   14   12 ar
    14   15   14 1
    15   16   12 ar
    16   17   16 1
    17   18   16 ar
    18   19   18 1
    19   20   11 ar
    20   21   20 1
    21   22   23 ar
    22   23   24 1
    23   25   23 ar
    24   26   25 1
    25   27   25 ar
    26   28   27 1
    27   29   27 ar
    28   30   22 ar
    29   31   30 1
    30   32   11 1
    31   33   10 1
    32   34   33 1
    33   35   33 1
    34   36   35 1
    35   37    3 1
    36   38   37 1
    37   39    4 1
    38   40   39 1
    39   41   39 1
    40   42   41 1
    41   43   35 1
    42   44   43 1
    43   45   43 1
    44   46    5 1
    45   47   46 1
    46   48   47 1
    47   49   47 1
    48   50   47 1
    49   51   39 1
    50   52   51 1
    51   53   51 1
    52   54    7 1
    53   55   54 1
    54   56   55 1
    55   57   55 1
    56   58   55 1
    57   18   20 ar
    58   22   33 1
    59   29   30 ar
    60   35   37 1
    61   41   43 1
@<TRIPOS>SUBSTRUCTURE
     1 RES1 1

@<TRIPOS>CRYSIN
  11.3670    9.0168   11.4490  90.0000  94.3600  90.0000   4 1

