# MOL2 file generated by ConQuest
# Please check atom types

@<TRIPOS>MOLECULE
DAJTIR
    61    64     1
SMALL
NO_CHARGES
****
Generated from CSD

@<TRIPOS>ATOM
      1 N1         1.0068    9.2612   17.8346 N.3       1 RES1    0.0000
      2 N2         0.9551    7.1758   20.2738 N.3       1 RES1    0.0000
      3 O1         1.6456   10.5328   18.2435 O.3       1 RES1    0.0000
      4 O2         1.7891    4.7359   19.6389 O.3       1 RES1    0.0000
      5 C1         1.9574    8.2351   18.3338 C.3       1 RES1    0.0000
      6 C2         1.9606   10.2933   19.6086 C.3       1 RES1    0.0000
      7 C3         2.5536    8.8689   19.6075 C.3       1 RES1    0.0000
      8 C4         2.0990    7.9768   20.7742 C.3       1 RES1    0.0000
      9 C5         1.2580    6.9619   18.8551 C.3       1 RES1    0.0000
     10 C6         2.2227    5.7513   18.7471 C.3       1 RES1    0.0000
     11 C7         2.2514    5.2108   17.3351 C.ar      1 RES1    0.0000
     12 C8         3.3442    5.4193   16.5060 C.ar      1 RES1    0.0000
     13 C9         3.3123    4.9763   15.1822 C.ar      1 RES1    0.0000
     14 C10        2.2086    4.3263   14.6947 C.ar      1 RES1    0.0000
     15 C11        1.1260    4.0963   15.5182 C.ar      1 RES1    0.0000
     16 C12        1.1470    4.5302   16.8276 C.ar      1 RES1    0.0000
     17 C13        2.9259   11.3369   20.1138 C.ar      1 RES1    0.0000
     18 C14        2.7117   11.9520   21.3370 C.ar      1 RES1    0.0000
     19 C15        3.6522   12.8485   21.8303 C.ar      1 RES1    0.0000
     20 C16        4.7763   13.1502   21.1249 C.ar      1 RES1    0.0000
     21 C17        4.9956   12.5524   19.9079 C.ar      1 RES1    0.0000
     22 C18        4.0704   11.6481   19.4022 C.ar      1 RES1    0.0000
     23 C19        0.8499    9.3722   16.3597 C.3       1 RES1    0.0000
     24 C20       -0.2085   10.4428   16.1144 C.3       1 RES1    0.0000
     25 C21        2.1481    9.7238   15.6289 C.3       1 RES1    0.0000
     26 C22        0.3239    8.0408   15.8503 C.3       1 RES1    0.0000
     27 C23       -0.3800    7.7814   20.4743 C.3       1 RES1    0.0000
     28 C24       -0.6586    8.0697   21.9090 C.2       1 RES1    0.0000
     29 C25       -1.0686    9.2300   22.3586 C.2       1 RES1    0.0000
     30 H1         1.3581    5.1560   20.2377 H         1 RES1    0.0000
     31 H2         2.6460    8.0354   17.6274 H         1 RES1    0.0000
     32 H3         1.1094   10.3302   20.1270 H         1 RES1    0.0000
     33 H4         3.5514    8.9341   19.5172 H         1 RES1    0.0000
     34 H5         2.8756    7.3146   21.1020 H         1 RES1    0.0000
     35 H6         1.8108    8.4711   21.5099 H         1 RES1    0.0000
     36 H7         0.3889    6.7664   18.3344 H         1 RES1    0.0000
     37 H8         3.1944    6.0111   19.0200 H         1 RES1    0.0000
     38 H9         4.0743    5.8278   16.8583 H         1 RES1    0.0000
     39 H10        4.0806    5.2650   14.6248 H         1 RES1    0.0000
     40 H11        2.2954    4.0304   13.7508 H         1 RES1    0.0000
     41 H12        0.3060    3.5947   15.1783 H         1 RES1    0.0000
     42 H13        0.3698    4.4153   17.3982 H         1 RES1    0.0000
     43 H14        1.8745   11.7481   21.8128 H         1 RES1    0.0000
     44 H15        3.5132   13.2350   22.6461 H         1 RES1    0.0000
     45 H16        5.3431   13.7433   21.5176 H         1 RES1    0.0000
     46 H17        5.7384   12.7085   19.3540 H         1 RES1    0.0000
     47 H18        4.2974   11.2053   18.5325 H         1 RES1    0.0000
     48 H19       -1.0648   10.2394   16.7223 H         1 RES1    0.0000
     49 H20        0.1594   11.3287   16.4504 H         1 RES1    0.0000
     50 H21       -0.3060   10.5117   15.1492 H         1 RES1    0.0000
     51 H22        2.0339    9.7855   14.6248 H         1 RES1    0.0000
     52 H23        2.4548   10.6025   15.9843 H         1 RES1    0.0000
     53 H24        2.9521    9.0775   15.7512 H         1 RES1    0.0000
     54 H25       -0.5165    7.8067   16.3533 H         1 RES1    0.0000
     55 H26        0.0128    8.1334   14.9918 H         1 RES1    0.0000
     56 H27        0.9500    7.2620   15.9979 H         1 RES1    0.0000
     57 H28       -1.0584    7.1077   20.1697 H         1 RES1    0.0000
     58 H29       -0.5611    8.6055   19.8998 H         1 RES1    0.0000
     59 H30       -0.4336    7.3383   22.5120 H         1 RES1    0.0000
     60 H31       -1.2369    9.3916   23.3472 H         1 RES1    0.0000
     61 H32       -1.1604    9.9489   21.6555 H         1 RES1    0.0000
@<TRIPOS>BOND
     1    1    3 1
     2    2    8 1
     3    3    6 1
     4    4   10 1
     5    5    1 1
     6    6    7 1
     7    7    5 1
     8    8    7 1
     9    9    2 1
    10   10    9 1
    11   11   10 1
    12   12   11 ar
    13   13   12 ar
    14   14   13 ar
    15   15   14 ar
    16   16   11 ar
    17   17    6 1
    18   18   17 ar
    19   19   18 ar
    20   20   19 ar
    21   21   20 ar
    22   22   17 ar
    23   23    1 1
    24   24   23 1
    25   25   23 1
    26   26   23 1
    27   27    2 1
    28   28   27 1
    29   29   28 2
    30   30    4 1
    31   31    5 1
    32   32    6 1
    33   33    7 1
    34   34    8 1
    35   35    8 1
    36   36    9 1
    37   37   10 1
    38   38   12 1
    39   39   13 1
    40   40   14 1
    41   41   15 1
    42   42   16 1
    43   43   18 1
    44   44   19 1
    45   45   20 1
    46   46   21 1
    47   47   22 1
    48   48   24 1
    49   49   24 1
    50   50   24 1
    51   51   25 1
    52   52   25 1
    53   53   25 1
    54   54   26 1
    55   55   26 1
    56   56   26 1
    57   57   27 1
    58   58   27 1
    59   59   28 1
    60   60   29 1
    61   61   29 1
    62    5    9 1
    63   15   16 ar
    64   21   22 ar
@<TRIPOS>SUBSTRUCTURE
     1 RES1 1

@<TRIPOS>CRYSIN
   6.3760   18.1550   19.4220  90.0000  90.0000  90.0000  19 1

