# MOL2 file generated by ConQuest
# Please check atom types

@<TRIPOS>MOLECULE
DAJVUG
    40    44     2
SMALL
NO_CHARGES
****
Generated from CSD

@<TRIPOS>ATOM
      1 C1         7.2496    5.8711   -0.3282 C.3       1 RES1    0.0000
      2 H1         7.3906    6.3923   -1.0916 H         1 RES1    0.0000
      3 O1         5.8133    6.0195   -0.0862 O.3       1 RES1    0.0000
      4 H2         7.4418    4.8709   -0.4955 H         1 RES1    0.0000
      5 C2         5.1626    5.0323    0.5401 C.2       1 RES1    0.0000
      6 H3         7.6342    6.4041    1.6231 H         1 RES1    0.0000
      7 N1         3.8711    4.8878    0.4237 N.2       1 RES1    0.0000
      8 H4         8.5093    7.2533    0.5817 H         1 RES1    0.0000
      9 O2         3.5736    3.7814    1.2389 O.3       1 RES1    0.0000
     10 N2         4.6905    3.2901    1.8744 N.2       1 RES1    0.0000
     11 C3         5.6636    4.0506    1.4529 C.2       1 RES1    0.0000
     12 N3         7.0182    4.0656    1.7653 N.2       1 RES1    0.0000
     13 N4         7.3898    3.7341    2.9194 N.2       1 RES1    0.0000
     14 C4         8.7648    4.0502    2.9876 C.2       1 RES1    0.0000
     15 N5         9.5062    3.5982    3.9600 N.2       1 RES1    0.0000
     16 O3        10.7695    4.0633    3.6922 O.3       1 RES1    0.0000
     17 N6        10.7920    4.8610    2.5452 N.2       1 RES1    0.0000
     18 C5         9.5653    4.8627    2.1021 C.2       1 RES1    0.0000
     19 O4         9.2883    5.4777    0.9537 O.3       1 RES1    0.0000
     20 C6         8.1264    6.3570    0.8352 C.3       1 RES1    0.0000
     21 C7        -1.6989   -0.7100   -1.0622 C.3       2 RES2    0.0000
     22 H5        -2.2193   -0.8610   -1.8816 H         2 RES2    0.0000
     23 O5        -0.4715    0.0281   -1.3803 O.3       2 RES2    0.0000
     24 H6        -1.3690   -1.5450   -0.6535 H         2 RES2    0.0000
     25 C8        -0.5242    0.9643   -2.3219 C.2       2 RES2    0.0000
     26 H7        -2.4000   -0.3774    0.8690 H         2 RES2    0.0000
     27 N7         0.5595    1.3953   -2.9151 N.2       2 RES2    0.0000
     28 H8        -2.3896    0.8846   -0.0503 H         2 RES2    0.0000
     29 O6         0.1196    2.3975   -3.7949 O.3       2 RES2    0.0000
     30 N8        -1.2463    2.5883   -3.6929 N.2       2 RES2    0.0000
     31 C9        -1.6441    1.7219   -2.7995 C.2       2 RES2    0.0000
     32 N9        -2.8998    1.4766   -2.2536 N.2       2 RES2    0.0000
     33 N10       -3.6869    2.4482   -2.0856 N.2       2 RES2    0.0000
     34 C10       -4.7365    1.9637   -1.2769 C.2       2 RES2    0.0000
     35 N11       -5.8351    2.6508   -1.1333 N.2       2 RES2    0.0000
     36 O7        -6.6185    1.9129   -0.2837 O.3       2 RES2    0.0000
     37 N12       -5.9571    0.7576    0.1422 N.2       2 RES2    0.0000
     38 C11       -4.7993    0.7778   -0.4525 C.2       2 RES2    0.0000
     39 O8        -3.9577   -0.2531   -0.2779 O.3       2 RES2    0.0000
     40 C12       -2.5458   -0.0071   -0.0014 C.3       2 RES2    0.0000
@<TRIPOS>BOND
     1    1    2 1
     2    3    1 1
     3    4    1 1
     4    5    3 1
     5    6   20 1
     6    7    5 2
     7    8   20 1
     8    9    7 1
     9   10    9 1
    10   11    5 1
    11   12   11 1
    12   13   12 2
    13   14   13 1
    14   15   14 2
    15   16   15 1
    16   17   16 1
    17   18   14 1
    18   19   18 1
    19   20    1 1
    20   21   22 1
    21   23   21 1
    22   24   21 1
    23   25   23 1
    24   26   40 1
    25   27   25 2
    26   28   40 1
    27   29   27 1
    28   30   29 1
    29   31   25 1
    30   32   31 1
    31   33   32 2
    32   34   33 1
    33   35   34 2
    34   36   35 1
    35   37   36 1
    36   38   34 1
    37   39   38 1
    38   40   21 1
    39   10   11 2
    40   17   18 2
    41   19   20 1
    42   30   31 2
    43   37   38 2
    44   39   40 1
@<TRIPOS>SUBSTRUCTURE
     1 RES1 1
     2 RES2 21

@<TRIPOS>CRYSIN
  20.5280   11.7940    7.1870  90.0000  92.1800  90.0000  14 1

