# MOL2 file generated by ConQuest
# Please check atom types

@<TRIPOS>MOLECULE
DAJWER
    64    56     2
SMALL
NO_CHARGES
****
Generated from CSD

@<TRIPOS>ATOM
      1 O1         6.4398   14.0953    1.9020 O.3       1 RES1    0.0000
      2 C1         6.3176   12.7900    1.7874 C.2       1 RES1    0.0000
      3 N1         7.1208   11.8945    2.2612 N.2       1 RES1    0.0000
      4 O2         6.5525   10.6762    1.8865 O.3       1 RES1    0.0000
      5 N2         5.3775   10.8795    1.1785 N.2       1 RES1    0.0000
      6 C2         5.2306   12.1382    1.1163 C.2       1 RES1    0.0000
      7 N3         4.1648   12.8087    0.4485 N.2       1 RES1    0.0000
      8 N4         3.1713   12.0451    0.3404 N.2       1 RES1    0.0000
      9 C3         2.1123   12.6472   -0.3605 C.2       1 RES1    0.0000
     10 N5         0.9811   11.9892   -0.3669 N.2       1 RES1    0.0000
     11 O3         0.1366   12.7311   -1.1222 O.3       1 RES1    0.0000
     12 N6         0.7384   13.8780   -1.5965 N.2       1 RES1    0.0000
     13 C4         1.9812   13.7926   -1.1565 C.2       1 RES1    0.0000
     14 O4         2.9230   14.6773   -1.4063 O.3       1 RES1    0.0000
     15 C5         2.4454   15.8490   -2.1621 C.3       1 RES1    0.0000
     16 H1         1.7882   15.5433   -2.8216 H         1 RES1    0.0000
     17 C6         6.6952   15.9127    3.6694 C.3       1 RES1    0.0000
     18 H2         7.3215   16.2634    4.3062 H         1 RES1    0.0000
     19 H3         5.9044   15.6193    4.1243 H         1 RES1    0.0000
     20 H4         6.4666   16.5986    3.0358 H         1 RES1    0.0000
     21 C7         1.7817   17.0285   -1.3021 C.3       1 RES1    0.0000
     22 H5         1.5076   17.7363   -1.8884 H         1 RES1    0.0000
     23 H6         2.4228   17.3638   -0.6717 H         1 RES1    0.0000
     24 H7         1.0167   16.6887   -0.8309 H         1 RES1    0.0000
     25 C8         7.3494   14.6866    2.9038 C.3       1 RES1    0.0000
     26 H8         7.6189   14.0021    3.5503 H         1 RES1    0.0000
     27 C9         3.0847   15.4781   -2.8022 Du        2 SUP2    0.0000
     28 H9         2.2841   15.2934   -3.3367 Du        2 SUP2    0.0000
     29 C10        9.2713   14.4646    1.2749 Du        2 SUP2    0.0000
     30 H10       10.0993   14.5159    1.7551 Du        2 SUP2    0.0000
     31 H11        9.1246   15.2825    0.7954 Du        2 SUP2    0.0000
     32 H12        9.2979   13.7305    0.6607 Du        2 SUP2    0.0000
     33 C11        4.3184   15.3912   -3.7664 Du        2 SUP2    0.0000
     34 H13        4.1666   15.9608   -4.5269 Du        2 SUP2    0.0000
     35 H14        4.4251   14.4848   -4.0635 Du        2 SUP2    0.0000
     36 H15        5.1055   15.6752   -3.3037 Du        2 SUP2    0.0000
     37 C12        8.0169   14.2303    2.3621 Du        2 SUP2    0.0000
     38 H16        8.2543   13.6095    3.0824 Du        2 SUP2    0.0000
     39 C8B        3.6596   16.3534   -2.9038 C.3       1 RES1    0.0000
     40 O1B        4.5692   16.9447   -1.9020 O.3       1 RES1    0.0000
     41 C1B        4.6914   18.2500   -1.7874 C.2       1 RES1    0.0000
     42 N1B        3.8882   19.1455   -2.2612 N.2       1 RES1    0.0000
     43 O2B        4.4565   20.3638   -1.8865 O.3       1 RES1    0.0000
     44 N2B        5.6315   20.1605   -1.1785 N.2       1 RES1    0.0000
     45 C2B        5.7784   18.9018   -1.1163 C.2       1 RES1    0.0000
     46 N3B        6.8442   18.2313   -0.4485 N.2       1 RES1    0.0000
     47 N4B        7.8377   18.9949   -0.3404 N.2       1 RES1    0.0000
     48 C3B        8.8967   18.3928    0.3605 C.2       1 RES1    0.0000
     49 N5B       10.0279   19.0508    0.3669 N.2       1 RES1    0.0000
     50 O3B       10.8724   18.3089    1.1222 O.3       1 RES1    0.0000
     51 N6B       10.2706   17.1620    1.5965 N.2       1 RES1    0.0000
     52 C4B        9.0278   17.2474    1.1565 C.2       1 RES1    0.0000
     53 O4B        8.0860   16.3627    1.4063 O.3       1 RES1    0.0000
     54 C5B        8.5636   15.1910    2.1621 C.3       1 RES1    0.0000
     55 H1B        9.2208   15.4967    2.8216 H         1 RES1    0.0000
     56 C7B        9.2273   14.0115    1.3021 C.3       1 RES1    0.0000
     57 H5B        9.5014   13.3037    1.8884 H         1 RES1    0.0000
     58 H6B        8.5862   13.6762    0.6717 H         1 RES1    0.0000
     59 H7B        9.9923   14.3513    0.8309 H         1 RES1    0.0000
     60 C6B        4.3138   15.1273   -3.6694 C.3       1 RES1    0.0000
     61 H2B        3.6875   14.7766   -4.3062 H         1 RES1    0.0000
     62 H3B        5.1046   15.4207   -4.1243 H         1 RES1    0.0000
     63 H4B        4.5424   14.4414   -3.0358 H         1 RES1    0.0000
     64 H8B        3.3901   17.0379   -3.5503 H         1 RES1    0.0000
@<TRIPOS>BOND
     1    1    2 1
     2    2    3 2
     3    3    4 1
     4    4    5 1
     5    5    6 2
     6    6    2 1
     7    7    6 1
     8    8    7 2
     9    9    8 1
    10   10    9 2
    11   11   10 1
    12   12   11 1
    13   13    9 1
    14   14   13 1
    15   15   14 1
    16   16   15 1
    17   17   18 1
    18   19   17 1
    19   20   17 1
    20   21   15 1
    21   22   21 1
    22   23   21 1
    23   24   21 1
    24   25    1 1
    25   26   25 1
    26   39   15 1
    27   40   39 1
    28   41   40 1
    29   42   41 2
    30   43   42 1
    31   44   43 1
    32   45   41 1
    33   46   45 1
    34   47   46 2
    35   48   47 1
    36   49   48 2
    37   50   49 1
    38   51   50 1
    39   52   48 1
    40   53   52 1
    41   54   25 1
    42   55   54 1
    43   56   54 1
    44   57   56 1
    45   58   56 1
    46   59   56 1
    47   60   39 1
    48   61   60 1
    49   62   60 1
    50   63   60 1
    51   64   39 1
    52   12   13 2
    53   17   25 1
    54   44   45 2
    55   51   52 2
    56   53   54 1
@<TRIPOS>SUBSTRUCTURE
     1 RES1 1
     2 SUP2 27

@<TRIPOS>CRYSIN
  11.0090   15.5200    6.6560  90.0000 103.5200  90.0000  14 1

