# MOL2 file generated by ConQuest
# Please check atom types

@<TRIPOS>MOLECULE
DAJWIV
    22    23     1
SMALL
NO_CHARGES
****
Generated from CSD

@<TRIPOS>ATOM
      1 C1        -3.0828   -7.7594   -5.5291 C.3       1 RES1    0.0000
      2 H1        -2.5266   -8.3028   -4.9326 H         1 RES1    0.0000
      3 H2        -2.6666   -7.7177   -6.4155 H         1 RES1    0.0000
      4 H3        -3.9721   -8.1642   -5.6050 H         1 RES1    0.0000
      5 O1        -3.2056   -6.4184   -4.9885 O.3       1 RES1    0.0000
      6 C2        -4.0363   -5.6240   -5.6357 C.2       1 RES1    0.0000
      7 N1        -4.6891   -5.9359   -6.7061 N.2       1 RES1    0.0000
      8 O2        -5.4573   -4.8095   -6.9967 O.3       1 RES1    0.0000
      9 N2        -5.2531   -3.8201   -6.0858 N.2       1 RES1    0.0000
     10 C3        -4.3738   -4.2945   -5.2469 C.2       1 RES1    0.0000
     11 N3        -3.9836   -3.4414   -4.2018 N.2       1 RES1    0.0000
     12 N3A       -3.1245   -3.9583   -3.4657 N.2       1 RES1    0.0000
     13 C3A       -2.7343   -3.1053   -2.4207 C.2       1 RES1    0.0000
     14 C2A       -3.0717   -1.7757   -2.0319 C.2       1 RES1    0.0000
     15 O1A       -3.9025   -0.9814   -2.6791 O.3       1 RES1    0.0000
     16 C1A       -4.0253    0.3597   -2.1385 C.3       1 RES1    0.0000
     17 H1A       -4.5815    0.9031   -2.7350 H         1 RES1    0.0000
     18 H2A       -4.4415    0.3180   -1.2521 H         1 RES1    0.0000
     19 H3A       -3.1360    0.7645   -2.0626 H         1 RES1    0.0000
     20 N1A       -2.4190   -1.4638   -0.9615 N.2       1 RES1    0.0000
     21 O2A       -1.6508   -2.5902   -0.6709 O.3       1 RES1    0.0000
     22 N2A       -1.8550   -3.5796   -1.5818 N.2       1 RES1    0.0000
@<TRIPOS>BOND
     1    1    2 1
     2    3    1 1
     3    4    1 1
     4    5    1 1
     5    6    5 1
     6    7    6 2
     7    8    7 1
     8    9    8 1
     9   10    6 1
    10   11   10 1
    11   12   11 2
    12   13   12 1
    13   14   13 1
    14   15   14 1
    15   16   15 1
    16   17   16 1
    17   18   16 1
    18   19   16 1
    19   20   14 2
    20   21   20 1
    21   22   13 2
    22    9   10 2
    23   21   22 1
@<TRIPOS>SUBSTRUCTURE
     1 RES1 1

@<TRIPOS>CRYSIN
   4.2460    7.1900    7.8300  85.5510  78.5690  79.5000   2 1

