# MOL2 file generated by ConQuest
# Please check atom types

@<TRIPOS>MOLECULE
DAKCIC
    27    28     1
SMALL
NO_CHARGES
****
Generated from CSD

@<TRIPOS>ATOM
      1 O1        -0.4056    7.6064    4.8448 O.3       1 RES1    0.0000
      2 H1         0.0435    6.9156    5.0086 H         1 RES1    0.0000
      3 O2         1.3377    9.0388    3.1278 O.3       1 RES1    0.0000
      4 O3         2.7152   10.4629    4.2040 O.2       1 RES1    0.0000
      5 O4        -3.2076    7.0532    9.3891 O.2       1 RES1    0.0000
      6 O5        -3.1094    8.7097   10.7722 O.2       1 RES1    0.0000
      7 N1         0.0037    8.6252    5.6696 N.pl3     1 RES1    0.0000
      8 N2         0.8830   10.5680    6.3118 N.2       1 RES1    0.0000
      9 N3        -2.7804    8.1484    9.7268 N.pl3     1 RES1    0.0000
     10 C1         1.7343    9.7509    4.1693 C.2       1 RES1    0.0000
     11 C2         0.8508    9.6399    5.3591 C.2       1 RES1    0.0000
     12 C3        -0.5824    8.9165    6.8795 C.ar      1 RES1    0.0000
     13 C4        -1.5084    8.2238    7.6539 C.ar      1 RES1    0.0000
     14 H2        -1.8920    7.3975    7.3836 H         1 RES1    0.0000
     15 C5        -1.8184    8.8361    8.8429 C.ar      1 RES1    0.0000
     16 C6        -1.2784   10.0566    9.2766 C.ar      1 RES1    0.0000
     17 H3        -1.5432   10.4244   10.1120 H         1 RES1    0.0000
     18 C7        -0.3702   10.7157    8.4939 C.ar      1 RES1    0.0000
     19 H4         0.0070   11.5420    8.7720 H         1 RES1    0.0000
     20 C8        -0.0098   10.1360    7.2646 C.ar      1 RES1    0.0000
     21 C9         2.2124    9.1376    1.9510 C.3       1 RES1    0.0000
     22 H5         3.0294    8.5936    2.0815 H         1 RES1    0.0000
     23 H6         2.4801   10.0780    1.7974 H         1 RES1    0.0000
     24 C10        1.4244    8.6221    0.7811 C.3       1 RES1    0.0000
     25 H7         2.0018    8.5803   -0.0092 H         1 RES1    0.0000
     26 H8         0.6710    9.2232    0.6030 H         1 RES1    0.0000
     27 H9         1.0854    7.7256    0.9842 H         1 RES1    0.0000
@<TRIPOS>BOND
     1    1    2 1
     2    3   10 1
     3    4   10 2
     4    5    9 2
     5    6    9 2
     6    7    1 1
     7    8   11 2
     8    9   15 1
     9   10   11 1
    10   11    7 1
    11   12    7 1
    12   13   12 ar
    13   14   13 1
    14   15   13 ar
    15   16   15 ar
    16   17   16 1
    17   18   16 ar
    18   19   18 1
    19   20    8 1
    20   21    3 1
    21   22   21 1
    22   23   21 1
    23   24   21 1
    24   25   24 1
    25   26   24 1
    26   27   24 1
    27   12   20 ar
    28   18   20 ar
@<TRIPOS>SUBSTRUCTURE
     1 RES1 1

@<TRIPOS>CRYSIN
   4.4840   10.1880   23.1060  90.0000  91.0000  90.0000 231 1

