# MOL2 file generated by ConQuest
# Please check atom types

@<TRIPOS>MOLECULE
DAKFIE
    58    62     1
SMALL
NO_CHARGES
****
Generated from CSD

@<TRIPOS>ATOM
      1 C1        10.8808    4.9437   11.5894 C.3       1 RES1    0.0000
      2 N1        11.8858    4.0259   11.0379 N.3       1 RES1    0.0000
      3 O1        11.0792    2.8983   10.5649 O.3       1 RES1    0.0000
      4 C2         9.8816    3.4512   10.0071 C.3       1 RES1    0.0000
      5 C3         9.5255    4.6181   10.9064 C.3       1 RES1    0.0000
      6 C4         8.6355    4.2414   12.0476 C.3       1 RES1    0.0000
      7 N2         9.1609    4.9783   13.1972 N.3       1 RES1    0.0000
      8 C5        10.6160    4.7591   13.0975 C.3       1 RES1    0.0000
      9 C6        11.4644    5.7270   13.9353 C.3       1 RES1    0.0000
     10 O2        11.1683    5.5232   15.3292 O.3       1 RES1    0.0000
     11 C7        12.9334    5.5663   13.6765 C.ar      1 RES1    0.0000
     12 C8        13.6506    6.4576   12.9002 C.ar      1 RES1    0.0000
     13 C9        14.9850    6.2564   12.6669 C.ar      1 RES1    0.0000
     14 C10       15.6445    5.1598   13.1781 C.ar      1 RES1    0.0000
     15 C11       14.9581    4.2871   13.9650 C.ar      1 RES1    0.0000
     16 C12       13.6252    4.4675   14.2004 C.ar      1 RES1    0.0000
     17 C13       12.5697    4.6192    9.8756 C.3       1 RES1    0.0000
     18 C14       13.4987    3.6630    9.2181 C.ar      1 RES1    0.0000
     19 C15       13.1741    3.0394    8.0345 C.ar      1 RES1    0.0000
     20 C16       14.0279    2.1204    7.4428 C.ar      1 RES1    0.0000
     21 C17       15.2409    1.8395    8.0282 C.ar      1 RES1    0.0000
     22 C18       15.5609    2.4413    9.1799 C.ar      1 RES1    0.0000
     23 C19       14.7041    3.3464    9.7759 C.ar      1 RES1    0.0000
     24 C20        8.5438    4.5244   14.4189 C.3       1 RES1    0.0000
     25 C21        7.0706    4.8591   14.5037 C.ar      1 RES1    0.0000
     26 C22        6.2301    4.0535   15.2461 C.ar      1 RES1    0.0000
     27 C23        4.8943    4.3371   15.3712 C.ar      1 RES1    0.0000
     28 C24        4.3582    5.4535   14.7964 C.ar      1 RES1    0.0000
     29 C25        5.1696    6.2522   14.0626 C.ar      1 RES1    0.0000
     30 C26        6.5163    5.9824   13.9056 C.ar      1 RES1    0.0000
     31 H1        11.1346    5.8723   11.4049 H         1 RES1    0.0000
     32 H2         9.1685    2.7925   10.0007 H         1 RES1    0.0000
     33 H3        10.0350    3.7534    9.0972 H         1 RES1    0.0000
     34 H4         9.1750    5.3806   10.4016 H         1 RES1    0.0000
     35 H5         7.7175    4.4962   11.8652 H         1 RES1    0.0000
     36 H6         8.6704    3.2857   12.2066 H         1 RES1    0.0000
     37 H7        10.8244    3.8370   13.3541 H         1 RES1    0.0000
     38 H8        11.2088    6.6427   13.6977 H         1 RES1    0.0000
     39 H9        10.4993    5.4977   16.1081 H         1 RES1    0.0000
     40 H10       13.2241    7.1988   12.5354 H         1 RES1    0.0000
     41 H11       15.4544    6.8731   12.1536 H         1 RES1    0.0000
     42 H12       16.5439    5.0182   12.9872 H         1 RES1    0.0000
     43 H13       15.4004    3.5629   14.3468 H         1 RES1    0.0000
     44 H14       13.1685    3.8460   14.7180 H         1 RES1    0.0000
     45 H15       13.0698    5.3992   10.1641 H         1 RES1    0.0000
     46 H16       11.9067    4.9123    9.2308 H         1 RES1    0.0000
     47 H17       12.3660    3.2389    7.6209 H         1 RES1    0.0000
     48 H18       13.7796    1.6958    6.6537 H         1 RES1    0.0000
     49 H19       15.8293    1.2398    7.6294 H         1 RES1    0.0000
     50 H20       16.3747    2.2471    9.5850 H         1 RES1    0.0000
     51 H21       14.9539    3.7502   10.5756 H         1 RES1    0.0000
     52 H22        9.0012    4.9278   15.1719 H         1 RES1    0.0000
     53 H23        8.6517    3.5629   14.4868 H         1 RES1    0.0000
     54 H24        6.5771    3.3017   15.6703 H         1 RES1    0.0000
     55 H25        4.3476    3.7619   15.8548 H         1 RES1    0.0000
     56 H26        3.4558    5.6599   14.9046 H         1 RES1    0.0000
     57 H27        4.8101    7.0051   13.6511 H         1 RES1    0.0000
     58 H28        7.0502    6.5523   13.4008 H         1 RES1    0.0000
@<TRIPOS>BOND
     1    1    2 1
     2    2    3 1
     3    3    4 1
     4    4    5 1
     5    5    1 1
     6    6    5 1
     7    7    6 1
     8    8    1 1
     9    9    8 1
    10   10    9 1
    11   11    9 1
    12   12   11 ar
    13   13   12 ar
    14   14   13 ar
    15   15   14 ar
    16   16   11 ar
    17   17    2 1
    18   18   17 1
    19   19   18 ar
    20   20   19 ar
    21   21   20 ar
    22   22   21 ar
    23   23   18 ar
    24   24    7 1
    25   25   24 1
    26   26   25 ar
    27   27   26 ar
    28   28   27 ar
    29   29   28 ar
    30   30   25 ar
    31   31    1 1
    32   32    4 1
    33   33    4 1
    34   34    5 1
    35   35    6 1
    36   36    6 1
    37   37    8 1
    38   38    9 1
    39   39   10 1
    40   40   12 1
    41   41   13 1
    42   42   14 1
    43   43   15 1
    44   44   16 1
    45   45   17 1
    46   46   17 1
    47   47   19 1
    48   48   20 1
    49   49   21 1
    50   50   22 1
    51   51   23 1
    52   52   24 1
    53   53   24 1
    54   54   26 1
    55   55   27 1
    56   56   28 1
    57   57   29 1
    58   58   30 1
    59    7    8 1
    60   15   16 ar
    61   22   23 ar
    62   29   30 ar
@<TRIPOS>SUBSTRUCTURE
     1 RES1 1

