# MOL2 file generated by ConQuest
# Please check atom types

@<TRIPOS>MOLECULE
DAKHIJ
   142   148     1
SMALL
NO_CHARGES
****
Generated from CSD

@<TRIPOS>ATOM
      1 O1         0.0586    1.4540    6.6784 O.3       1 RES1    0.0000
      2 O2         0.6610    5.2019   12.2747 O.2       1 RES1    0.0000
      3 O3        -1.2032    4.3776   12.9289 O.2       1 RES1    0.0000
      4 N1        -2.7551    2.6905    6.6939 N.3       1 RES1    0.0000
      5 N2        -0.2373    4.3802   12.1912 N.pl3     1 RES1    0.0000
      6 C1        -3.1378    3.4556    5.4823 C.3       1 RES1    0.0000
      7 H1        -3.7691    4.1703    5.7500 H         1 RES1    0.0000
      8 H2        -3.6210    2.8478    4.8686 H         1 RES1    0.0000
      9 C2        -3.2411    3.2122    7.9209 C.ar      1 RES1    0.0000
     10 C3        -4.1911    2.5521    8.7060 C.ar      1 RES1    0.0000
     11 H3        -4.5676    1.7351    8.4008 H         1 RES1    0.0000
     12 C4        -4.5902    3.0800    9.9304 C.ar      1 RES1    0.0000
     13 H4        -5.2246    2.6090   10.4574 H         1 RES1    0.0000
     14 C5        -4.0770    4.2823   10.3944 C.ar      1 RES1    0.0000
     15 C6        -3.1224    4.9326    9.6080 C.ar      1 RES1    0.0000
     16 H5        -2.7586    5.7546    9.9144 H         1 RES1    0.0000
     17 C7        -2.6862    4.4169    8.3909 C.ar      1 RES1    0.0000
     18 C8        -4.5179    4.8775   11.7102 C.3       1 RES1    0.0000
     19 H6        -5.3151    4.4063   12.0313 H         1 RES1    0.0000
     20 H7        -4.7272    5.8273   11.5853 H         1 RES1    0.0000
     21 H8        -3.7974    4.7849   12.3684 H         1 RES1    0.0000
     22 C9        -2.8231    1.2449    6.5417 C.3       1 RES1    0.0000
     23 H9        -3.7517    0.9839    6.3180 H         1 RES1    0.0000
     24 H10       -2.5844    0.8152    7.4013 H         1 RES1    0.0000
     25 C10       -1.8909    0.7423    5.4585 C.ar      1 RES1    0.0000
     26 C11       -0.4991    0.9066    5.5314 C.ar      1 RES1    0.0000
     27 C12        0.3194    0.6432    4.4238 C.ar      1 RES1    0.0000
     28 C13       -0.2931    0.0847    3.2925 C.ar      1 RES1    0.0000
     29 H11        0.2506   -0.1186    2.5406 H         1 RES1    0.0000
     30 C14       -1.6599   -0.1881    3.2149 C.ar      1 RES1    0.0000
     31 C15       -2.4378    0.1797    4.3112 C.ar      1 RES1    0.0000
     32 H12       -3.3765    0.0403    4.2732 H         1 RES1    0.0000
     33 C16        1.8248    0.9921    4.4218 C.3       1 RES1    0.0000
     34 C17        2.0199    2.4758    4.7628 C.3       1 RES1    0.0000
     35 H13        2.9732    2.6987    4.7165 H         1 RES1    0.0000
     36 H14        1.6871    2.6490    5.6687 H         1 RES1    0.0000
     37 H15        1.5236    3.0269    4.1210 H         1 RES1    0.0000
     38 C18        2.5802    0.1339    5.4412 C.3       1 RES1    0.0000
     39 H16        2.4336   -0.8147    5.2425 H         1 RES1    0.0000
     40 H17        2.2513    0.3329    6.3429 H         1 RES1    0.0000
     41 H18        3.5383    0.3342    5.3907 H         1 RES1    0.0000
     42 C19        2.4617    0.7459    3.0492 C.3       1 RES1    0.0000
     43 H19        3.4014    1.0243    3.0704 H         1 RES1    0.0000
     44 H20        1.9821    1.2643    2.3687 H         1 RES1    0.0000
     45 H21        2.4079   -0.2078    2.8304 H         1 RES1    0.0000
     46 C20       -2.3238   -0.7653    1.9557 C.3       1 RES1    0.0000
     47 C21       -1.3246   -1.4763    1.0427 C.3       1 RES1    0.0000
     48 H22       -0.6643   -0.8301    0.7161 H         1 RES1    0.0000
     49 H23       -1.8000   -1.8711    0.2820 H         1 RES1    0.0000
     50 H24       -0.8692   -2.1832    1.5451 H         1 RES1    0.0000
     51 C22       -3.4053   -1.7824    2.3442 C.3       1 RES1    0.0000
     52 H25       -3.0029   -2.4997    2.8776 H         1 RES1    0.0000
     53 H26       -3.8030   -2.1629    1.5333 H         1 RES1    0.0000
     54 H27       -4.1009   -1.3349    2.8698 H         1 RES1    0.0000
     55 C23       -2.9666    0.3819    1.1696 C.3       1 RES1    0.0000
     56 H28       -3.6290    0.8344    1.7339 H         1 RES1    0.0000
     57 H29       -3.4083    0.0237    0.3712 H         1 RES1    0.0000
     58 H30       -2.2746    1.0215    0.9011 H         1 RES1    0.0000
     59 C24        0.0265    0.6359    7.8653 C.3       1 RES1    0.0000
     60 H31        0.8394    0.0731    7.9168 H         1 RES1    0.0000
     61 H32       -0.7663    0.0432    7.8525 H         1 RES1    0.0000
     62 C25       -0.0377    1.5703    9.0419 C.ar      1 RES1    0.0000
     63 C26        0.9713    2.5167    9.2142 C.ar      1 RES1    0.0000
     64 H33        1.7023    2.5387    8.6080 H         1 RES1    0.0000
     65 C27        0.9216    3.4224   10.2563 C.ar      1 RES1    0.0000
     66 H34        1.6123    4.0634   10.3760 H         1 RES1    0.0000
     67 C28       -0.1585    3.3735   11.1210 C.ar      1 RES1    0.0000
     68 C29       -1.1696    2.4421   10.9962 C.ar      1 RES1    0.0000
     69 H35       -1.8952    2.4222   11.6089 H         1 RES1    0.0000
     70 C30       -1.0932    1.5352    9.9473 C.ar      1 RES1    0.0000
     71 H36       -1.7732    0.8795    9.8462 H         1 RES1    0.0000
     72 O1A       -4.7393    7.0513    6.4376 O.3       1 RES1    0.0000
     73 O2A       -5.3417    3.3035    0.8413 O.2       1 RES1    0.0000
     74 O3A       -3.4775    4.1278    0.1870 O.2       1 RES1    0.0000
     75 N1A       -1.9256    5.8148    6.4221 N.3       1 RES1    0.0000
     76 N2A       -4.4434    4.1252    0.9248 N.pl3     1 RES1    0.0000
     77 C1A       -1.5429    5.0498    7.6336 C.3       1 RES1    0.0000
     78 H1A       -0.9116    4.3351    7.3659 H         1 RES1    0.0000
     79 H2A       -1.0597    5.6576    8.2473 H         1 RES1    0.0000
     80 C2A       -1.4396    5.2932    5.1951 C.ar      1 RES1    0.0000
     81 C3A       -0.4896    5.9533    4.4100 C.ar      1 RES1    0.0000
     82 H3A       -0.1131    6.7703    4.7152 H         1 RES1    0.0000
     83 C4A       -0.0905    5.4254    3.1856 C.ar      1 RES1    0.0000
     84 H4A        0.5439    5.8964    2.6586 H         1 RES1    0.0000
     85 C5A       -0.6037    4.2231    2.7216 C.ar      1 RES1    0.0000
     86 C6A       -1.5583    3.5728    3.5080 C.ar      1 RES1    0.0000
     87 H5A       -1.9221    2.7508    3.2016 H         1 RES1    0.0000
     88 C7A       -1.9945    4.0885    4.7250 C.ar      1 RES1    0.0000
     89 C8A       -0.1627    3.6278    1.4058 C.3       1 RES1    0.0000
     90 H6A        0.6344    4.0991    1.0847 H         1 RES1    0.0000
     91 H7A        0.0465    2.6781    1.5306 H         1 RES1    0.0000
     92 H8A       -0.8833    3.7204    0.7476 H         1 RES1    0.0000
     93 C9A       -1.8576    7.2605    6.5742 C.3       1 RES1    0.0000
     94 H9A       -0.9290    7.5215    6.7980 H         1 RES1    0.0000
     95 H10A      -2.0963    7.6902    5.7146 H         1 RES1    0.0000
     96 C10A      -2.7898    7.7630    7.6575 C.ar      1 RES1    0.0000
     97 C11A      -4.1816    7.5988    7.5846 C.ar      1 RES1    0.0000
     98 C12A      -5.0001    7.8622    8.6922 C.ar      1 RES1    0.0000
     99 C13A      -4.3876    8.4207    9.8235 C.ar      1 RES1    0.0000
    100 H11A      -4.9313    8.6240   10.5754 H         1 RES1    0.0000
    101 C14A      -3.0207    8.6935    9.9011 C.ar      1 RES1    0.0000
    102 C15A      -2.2429    8.3257    8.8048 C.ar      1 RES1    0.0000
    103 H12A      -1.3042    8.4651    8.8428 H         1 RES1    0.0000
    104 C16A      -6.5055    7.5133    8.6942 C.3       1 RES1    0.0000
    105 C17A      -6.7006    6.0296    8.3532 C.3       1 RES1    0.0000
    106 H13A      -7.6539    5.8067    8.3995 H         1 RES1    0.0000
    107 H14A      -6.3678    5.8563    7.4472 H         1 RES1    0.0000
    108 H15A      -6.2043    5.4785    8.9949 H         1 RES1    0.0000
    109 C18A      -7.2609    8.3714    7.6748 C.3       1 RES1    0.0000
    110 H16A      -7.1143    9.3201    7.8735 H         1 RES1    0.0000
    111 H17A      -6.9320    8.1725    6.7731 H         1 RES1    0.0000
    112 H18A      -8.2190    8.1712    7.7253 H         1 RES1    0.0000
    113 C19A      -7.1423    7.7595   10.0668 C.3       1 RES1    0.0000
    114 H19A      -8.0821    7.4811   10.0455 H         1 RES1    0.0000
    115 H20A      -6.6628    7.2411   10.7472 H         1 RES1    0.0000
    116 H21A      -7.0885    8.7131   10.2855 H         1 RES1    0.0000
    117 C20A      -2.3569    9.2707   11.1602 C.3       1 RES1    0.0000
    118 C21A      -3.3561    9.9817   12.0733 C.3       1 RES1    0.0000
    119 H22A      -4.0164    9.3355   12.3998 H         1 RES1    0.0000
    120 H23A      -2.8807   10.3765   12.8340 H         1 RES1    0.0000
    121 H24A      -3.8115   10.6886   11.5709 H         1 RES1    0.0000
    122 C22A      -1.2754   10.2878   10.7718 C.3       1 RES1    0.0000
    123 H25A      -1.6778   11.0051   10.2383 H         1 RES1    0.0000
    124 H26A      -0.8777   10.6683   11.5827 H         1 RES1    0.0000
    125 H27A      -0.5798    9.8403   10.2462 H         1 RES1    0.0000
    126 C23A      -1.7141    8.1235   11.9464 C.3       1 RES1    0.0000
    127 H28A      -1.0517    7.6710   11.3820 H         1 RES1    0.0000
    128 H29A      -1.2724    8.4817   12.7448 H         1 RES1    0.0000
    129 H30A      -2.4061    7.4838   12.2149 H         1 RES1    0.0000
    130 C24A      -4.7072    7.8694    5.2507 C.3       1 RES1    0.0000
    131 H31A      -5.5201    8.4323    5.1992 H         1 RES1    0.0000
    132 H32A      -3.9144    8.4622    5.2634 H         1 RES1    0.0000
    133 C25A      -4.6430    6.9351    4.0741 C.ar      1 RES1    0.0000
    134 C26A      -5.6520    5.9887    3.9017 C.ar      1 RES1    0.0000
    135 H33A      -6.3830    5.9666    4.5080 H         1 RES1    0.0000
    136 C27A      -5.6023    5.0830    2.8597 C.ar      1 RES1    0.0000
    137 H34A      -6.2930    4.4420    2.7399 H         1 RES1    0.0000
    138 C28A      -4.5222    5.1319    1.9949 C.ar      1 RES1    0.0000
    139 C29A      -3.5111    6.0633    2.1198 C.ar      1 RES1    0.0000
    140 H35A      -2.7855    6.0832    1.5070 H         1 RES1    0.0000
    141 C30A      -3.5875    6.9702    3.1687 C.ar      1 RES1    0.0000
    142 H36A      -2.9075    7.6259    3.2698 H         1 RES1    0.0000
@<TRIPOS>BOND
     1    1   26 1
     2    2    5 2
     3    3    5 2
     4    4    6 1
     5    5   67 1
     6    6    7 1
     7    8    6 1
     8    9    4 1
     9   10    9 ar
    10   11   10 1
    11   12   10 ar
    12   13   12 1
    13   14   12 ar
    14   15   14 ar
    15   16   15 1
    16   17    9 ar
    17   18   14 1
    18   19   18 1
    19   20   18 1
    20   21   18 1
    21   22    4 1
    22   23   22 1
    23   24   22 1
    24   25   22 1
    25   26   25 ar
    26   27   26 ar
    27   28   27 ar
    28   29   28 1
    29   30   28 ar
    30   31   25 ar
    31   32   31 1
    32   33   27 1
    33   34   33 1
    34   35   34 1
    35   36   34 1
    36   37   34 1
    37   38   33 1
    38   39   38 1
    39   40   38 1
    40   41   38 1
    41   42   33 1
    42   43   42 1
    43   44   42 1
    44   45   42 1
    45   46   30 1
    46   47   46 1
    47   48   47 1
    48   49   47 1
    49   50   47 1
    50   51   46 1
    51   52   51 1
    52   53   51 1
    53   54   51 1
    54   55   46 1
    55   56   55 1
    56   57   55 1
    57   58   55 1
    58   59    1 1
    59   60   59 1
    60   61   59 1
    61   62   59 1
    62   63   62 ar
    63   64   63 1
    64   65   63 ar
    65   66   65 1
    66   67   65 ar
    67   68   67 ar
    68   69   68 1
    69   70   62 ar
    70   71   70 1
    71   72   97 1
    72   73   76 2
    73   74   76 2
    74   75   77 1
    75   76  138 1
    76   77   17 1
    77   78   77 1
    78   79   77 1
    79   80   75 1
    80   81   80 ar
    81   82   81 1
    82   83   81 ar
    83   84   83 1
    84   85   83 ar
    85   86   85 ar
    86   87   86 1
    87   88    6 1
    88   89   85 1
    89   90   89 1
    90   91   89 1
    91   92   89 1
    92   93   75 1
    93   94   93 1
    94   95   93 1
    95   96   93 1
    96   97   96 ar
    97   98   97 ar
    98   99   98 ar
    99  100   99 1
   100  101   99 ar
   101  102   96 ar
   102  103  102 1
   103  104   98 1
   104  105  104 1
   105  106  105 1
   106  107  105 1
   107  108  105 1
   108  109  104 1
   109  110  109 1
   110  111  109 1
   111  112  109 1
   112  113  104 1
   113  114  113 1
   114  115  113 1
   115  116  113 1
   116  117  101 1
   117  118  117 1
   118  119  118 1
   119  120  118 1
   120  121  118 1
   121  122  117 1
   122  123  122 1
   123  124  122 1
   124  125  122 1
   125  126  117 1
   126  127  126 1
   127  128  126 1
   128  129  126 1
   129  130   72 1
   130  131  130 1
   131  132  130 1
   132  133  130 1
   133  134  133 ar
   134  135  134 1
   135  136  134 ar
   136  137  136 1
   137  138  136 ar
   138  139  138 ar
   139  140  139 1
   140  141  133 ar
   141  142  141 1
   142   15   17 ar
   143   30   31 ar
   144   68   70 ar
   145   80   88 ar
   146   86   88 ar
   147  101  102 ar
   148  139  141 ar
@<TRIPOS>SUBSTRUCTURE
     1 RES1 1

@<TRIPOS>CRYSIN
   9.2518   11.6474   13.3066  98.6180  90.7730 112.7340   2 1

