# MOL2 file generated by ConQuest
# Please check atom types

@<TRIPOS>MOLECULE
DAKHAB
    52    56     2
SMALL
USER_CHARGES
****
Generated from CSD

@<TRIPOS>ATOM
      1 O1         5.4802    2.0135    2.6983 O.2       1 RES1   -1.0000
      2 O2         4.6112    3.7342    1.4793 O.3       1 RES1    0.0000
      3 O3         2.5982    6.1749    4.8977 O.2       1 RES1   -1.0000
      4 O4         0.4262    6.3978    4.2381 O.3       1 RES1    0.0000
      5 O5         3.9604    1.7273    5.0111 O.2       1 RES1    0.0000
      6 O6         2.0626    2.7971    4.9733 O.2       1 RES1    0.0000
      7 N1         4.5909    2.8384    2.6190 N.pl3     1 RES1    1.0000
      8 N2         3.5480    4.5972    1.5951 N.2       1 RES1    0.0000
      9 N3         1.7281    5.8271    4.0981 N.pl3     1 RES1    1.0000
     10 N4        -0.3760    5.8626    3.2454 N.2       1 RES1    0.0000
     11 N5         3.1620    2.5143    4.5275 N.pl3     1 RES1    0.0000
     12 C1         3.5202    3.1840    3.3176 C.2       1 RES1    0.0000
     13 C2         2.8885    4.2688    2.6707 C.2       1 RES1    0.0000
     14 C3         1.6869    5.0061    3.0618 C.2       1 RES1    0.0000
     15 C4         0.3619    5.0312    2.5448 C.2       1 RES1    0.0000
     16 C5        -0.1996    4.2754    1.4199 C.ar      1 RES1    0.0000
     17 C6        -1.5156    3.8222    1.4759 C.ar      1 RES1    0.0000
     18 H1        -1.9919    3.9574    2.2531 H         1 RES1    0.0000
     19 C7        -2.0483    3.1370    0.4066 C.ar      1 RES1    0.0000
     20 H2        -2.9000    2.8279    0.4357 H         1 RES1    0.0000
     21 C8        -1.2886    2.9016   -0.7294 C.ar      1 RES1    0.0000
     22 H3        -1.6285    2.4492   -1.4745 H         1 RES1    0.0000
     23 C9         0.0148    3.3503   -0.7894 C.ar      1 RES1    0.0000
     24 H4         0.5269    3.1904   -1.5527 H         1 RES1    0.0000
     25 C10        0.5674    4.0361    0.2778 C.ar      1 RES1    0.0000
     26 H5         1.4578    4.3363    0.2279 H         1 RES1    0.0000
     27 O7         6.5462    1.6970    7.3195 O.2       2 RES2   -1.0000
     28 O8         5.2715   -0.1239    6.8187 O.3       2 RES2    0.0000
     29 O9         8.0579   -2.0747    3.5380 O.2       2 RES2   -1.0000
     30 O10        6.6545   -2.3308    1.7490 O.3       2 RES2    0.0000
     31 O11        7.7854    2.5320    4.9256 O.2       2 RES2    0.0000
     32 O12        8.0420    0.8935    3.5020 O.2       2 RES2    0.0000
     33 N6         6.2683    0.8703    6.4755 N.pl3     2 RES2    1.0000
     34 N7         5.0849   -0.9377    5.7346 N.2       2 RES2    0.0000
     35 N8         6.9583   -1.8298    3.0640 N.pl3     2 RES2    1.0000
     36 N9         5.3711   -1.9170    1.4297 N.2       2 RES2    0.0000
     37 N10        7.5685    1.4002    4.5146 N.pl3     2 RES2    0.0000
     38 C11        6.6438    0.5770    5.2412 C.2       2 RES2    0.0000
     39 C12        5.8961   -0.5301    4.7975 C.2       2 RES2    0.0000
     40 C13        5.8849   -1.1639    3.4840 C.2       2 RES2    0.0000
     41 C14        4.9167   -1.2165    2.4491 C.2       2 RES2    0.0000
     42 C15        3.5884   -0.5823    2.3568 C.ar      2 RES2    0.0000
     43 C16        3.2422    0.0650    1.1673 C.ar      2 RES2    0.0000
     44 H6         3.8483    0.0440    0.4256 H         2 RES2    0.0000
     45 C17        2.0075    0.6665    1.0333 C.ar      2 RES2    0.0000
     46 H7         1.7620    1.0690    0.2234 H         2 RES2    0.0000
     47 C18        1.0957    0.6253    2.0856 C.ar      2 RES2    0.0000
     48 H8         0.2358    1.0447    2.0107 H         2 RES2    0.0000
     49 C19        1.4304   -0.0164    3.2618 C.ar      2 RES2    0.0000
     50 H9         0.8560   -0.0514    3.9522 H         2 RES2    0.0000
     51 C20        2.6714   -0.6216    3.4083 C.ar      2 RES2    0.0000
     52 H10        2.9102   -1.0716    4.2359 H         2 RES2    0.0000
@<TRIPOS>BOND
     1    1    7 1
     2    2    7 1
     3    3    9 1
     4    4    9 1
     5    5   11 2
     6    6   11 2
     7    7   12 2
     8    8    2 1
     9    9   14 2
    10   10    4 1
    11   11   12 1
    12   12   13 1
    13   13    8 2
    14   14   13 1
    15   15   10 2
    16   16   15 1
    17   17   16 ar
    18   18   17 1
    19   19   17 ar
    20   20   19 1
    21   21   19 ar
    22   22   21 1
    23   23   21 ar
    24   24   23 1
    25   25   16 ar
    26   26   25 1
    27   27   33 1
    28   28   33 1
    29   29   35 1
    30   30   35 1
    31   31   37 2
    32   32   37 2
    33   33   38 2
    34   34   28 1
    35   35   40 2
    36   36   30 1
    37   37   38 1
    38   38   39 1
    39   39   34 2
    40   40   39 1
    41   41   36 2
    42   42   41 1
    43   43   42 ar
    44   44   43 1
    45   45   43 ar
    46   46   45 1
    47   47   45 ar
    48   48   47 1
    49   49   47 ar
    50   50   49 1
    51   51   42 ar
    52   52   51 1
    53   14   15 1
    54   23   25 ar
    55   40   41 1
    56   49   51 ar
@<TRIPOS>SUBSTRUCTURE
     1 RES1 1
     2 RES2 27

@<TRIPOS>CRYSIN
  10.0868   10.8308   12.4779  98.3520 110.5770 108.9060   2 1

