# MOL2 file generated by ConQuest
# Please check atom types

@<TRIPOS>MOLECULE
DAKKOS
    53    55     1
SMALL
NO_CHARGES
****
Generated from CSD

@<TRIPOS>ATOM
      1 C1        10.8597    4.6897   -1.0011 C.3       1 RES1    0.0000
      2 C2         9.6936    5.6661   -0.9219 C.3       1 RES1    0.0000
      3 H1         9.9775    6.4764   -0.4478 H         1 RES1    0.0000
      4 H2         8.9501    5.2487   -0.4389 H         1 RES1    0.0000
      5 H3         9.4019    5.9021   -1.8267 H         1 RES1    0.0000
      6 C3        10.4494    3.5122   -1.8874 C.3       1 RES1    0.0000
      7 H4        10.4474    3.7948   -2.8253 H         1 RES1    0.0000
      8 H5         9.5510    3.2112   -1.6365 H         1 RES1    0.0000
      9 H6        11.0850    2.7767   -1.7680 H         1 RES1    0.0000
     10 C4        11.3570    4.2710    0.4146 C.3       1 RES1    0.0000
     11 H7        12.2319    3.7960    0.3216 H         1 RES1    0.0000
     12 C5        11.5277    5.4313    1.3894 C.2       1 RES1    0.0000
     13 C6        10.6464    5.3737    2.3956 C.2       1 RES1    0.0000
     14 C7         9.7696    4.1576    2.3096 C.3       1 RES1    0.0000
     15 H8         8.8310    4.4126    2.1216 H         1 RES1    0.0000
     16 H9         9.7985    3.6421    3.1540 H         1 RES1    0.0000
     17 C8        10.3560    3.3394    1.1504 C.3       1 RES1    0.0000
     18 H10        9.6370    3.0488    0.5348 H         1 RES1    0.0000
     19 H11       10.8216    2.5364    1.4944 H         1 RES1    0.0000
     20 C9        12.5135    6.5101    1.1065 C.3       1 RES1    0.0000
     21 H12       12.2522    7.0882    0.3341 H         1 RES1    0.0000
     22 C10       14.0262    6.3434    1.2463 C.3       1 RES1    0.0000
     23 C11       13.2723    7.2598    2.1797 C.3       1 RES1    0.0000
     24 H13       13.3909    8.2356    2.0630 H         1 RES1    0.0000
     25 H14       13.1544    6.9656    3.1167 H         1 RES1    0.0000
     26 C12       14.8660    7.0146    0.1923 C.3       1 RES1    0.0000
     27 H15       15.1662    6.3379   -0.4655 H         1 RES1    0.0000
     28 H16       14.3143    7.6821   -0.2879 H         1 RES1    0.0000
     29 C13       14.6211    5.1102    1.8803 C.3       1 RES1    0.0000
     30 H17       15.4581    5.3609    2.3455 H         1 RES1    0.0000
     31 H18       13.9910    4.7620    2.5587 H         1 RES1    0.0000
     32 C14       10.3875    6.3673    3.4952 C.3       1 RES1    0.0000
     33 H19       10.9270    7.1709    3.3424 H         1 RES1    0.0000
     34 H20       10.6298    5.9701    4.3588 H         1 RES1    0.0000
     35 H21        9.4380    6.6082    3.5005 H         1 RES1    0.0000
     36 C15       13.0199    5.0231   -2.2352 C.ar      1 RES1    0.0000
     37 C16       13.7190    5.9511   -3.0092 C.ar      1 RES1    0.0000
     38 H22       13.3612    6.8227   -3.1291 H         1 RES1    0.0000
     39 C17       14.9245    5.6226   -3.6030 C.ar      1 RES1    0.0000
     40 H23       15.4105    6.2662   -4.1064 H         1 RES1    0.0000
     41 C18       15.4072    4.3329   -3.4463 C.ar      1 RES1    0.0000
     42 C19       14.7363    3.3939   -2.6927 C.ar      1 RES1    0.0000
     43 H24       15.0904    2.5180   -2.5961 H         1 RES1    0.0000
     44 C20       13.5439    3.7329   -2.0776 C.ar      1 RES1    0.0000
     45 H25       13.0812    3.0923   -1.5495 H         1 RES1    0.0000
     46 N1        16.6756    3.9609   -4.0801 N.pl3     1 RES1    0.0000
     47 O1        11.8844    5.5086   -1.6802 O.3       1 RES1    0.0000
     48 O2        16.9824    2.7626   -4.1000 O.2       1 RES1    0.0000
     49 O3        17.3648    4.8503   -4.5643 O.2       1 RES1    0.0000
     50 O4        16.0169    7.6698    0.7559 O.3       1 RES1    0.0000
     51 H26       15.7933    8.4225    1.0537 H         1 RES1    0.0000
     52 O5        14.9081    4.0718    0.9350 O.3       1 RES1    0.0000
     53 H27       15.4926    4.3391    0.3945 H         1 RES1    0.0000
@<TRIPOS>BOND
     1    1    2 1
     2    2    3 1
     3    4    2 1
     4    5    2 1
     5    6    1 1
     6    7    6 1
     7    8    6 1
     8    9    6 1
     9   10    1 1
    10   11   10 1
    11   12   10 1
    12   13   12 2
    13   14   13 1
    14   15   14 1
    15   16   14 1
    16   17   10 1
    17   18   17 1
    18   19   17 1
    19   20   12 1
    20   21   20 1
    21   22   20 1
    22   23   20 1
    23   24   23 1
    24   25   23 1
    25   26   22 1
    26   27   26 1
    27   28   26 1
    28   29   22 1
    29   30   29 1
    30   31   29 1
    31   32   13 1
    32   33   32 1
    33   34   32 1
    34   35   32 1
    35   36   37 ar
    36   37   38 1
    37   39   37 ar
    38   40   39 1
    39   41   39 ar
    40   42   41 ar
    41   43   42 1
    42   44   36 ar
    43   45   44 1
    44   46   41 1
    45   47    1 1
    46   48   46 2
    47   49   46 2
    48   50   26 1
    49   51   50 1
    50   52   29 1
    51   53   52 1
    52   14   17 1
    53   22   23 1
    54   36   47 1
    55   42   44 ar
@<TRIPOS>SUBSTRUCTURE
     1 RES1 1

@<TRIPOS>CRYSIN
  16.5374    6.1295   18.2483  90.0000 103.1600  90.0000 231 1

