# MOL2 file generated by ConQuest
# Please check atom types

@<TRIPOS>MOLECULE
DAKKUY
    51    51     2
SMALL
NO_CHARGES
****
Generated from CSD

@<TRIPOS>ATOM
      1 C1         5.6738    5.6738    0.0000 C.3       1 RES1    0.0000
      2 C2         4.8431    5.5395    1.0992 C.2       1 RES1    0.0000
      3 H1         4.9423    6.1028    1.8320 H         1 RES1    0.0000
      4 C3         3.8719    4.5697    1.1000 C.2       1 RES1    0.0000
      5 H2         3.3153    4.4842    1.8402 H         1 RES1    0.0000
      6 C4         3.6988    3.6988    0.0000 C.3       1 RES1    0.0000
      7 C5         1.4871    2.7632    0.8287 C.3       1 RES1    0.0000
      8 C6         0.8230    4.1212    0.8958 C.3       1 RES1    0.0000
      9 H3         1.2662    4.6620    1.5541 H         1 RES1    0.0000
     10 H4        -0.0999    4.0143    1.1383 H         1 RES1    0.0000
     11 H5         0.8819    4.5488    0.0391 H         1 RES1    0.0000
     12 C7         0.6587    1.7139    0.0712 C.3       1 RES1    0.0000
     13 H6         0.3591    1.3199    0.9160 H         1 RES1    0.0000
     14 C8         1.6623    2.3075    2.4118 C.3       1 RES1    0.0000
     15 H7         2.3126    2.8722    2.8365 H         1 RES1    0.0000
     16 H8         1.9568    1.3946    2.4516 H         1 RES1    0.0000
     17 H9         0.8206    2.3923    2.8653 H         1 RES1    0.0000
     18 C9        -0.6990    1.8544   -0.3685 C.2       1 RES1    0.0000
     19 H10       -1.0657    1.1261   -0.8176 H         1 RES1    0.0000
     20 H11       -1.2117    2.6180   -0.2285 H         1 RES1    0.0000
     21 O1         6.6985    7.5175    0.9341 O.3       1 RES1    0.0000
     22 N1         6.8454    6.5408   -0.0375 N.2       1 RES1    0.0000
     23 N2         2.8638    2.6054    0.2114 N.2       1 RES1    0.0000
     24 C10        1.8368    1.9652    1.9367 Du        2 SUP2    0.0000
     25 H12        1.1353    1.9719    2.6059 Du        2 SUP2    0.0000
     26 H13        2.6633    2.2723    2.3404 Du        2 SUP2    0.0000
     27 C11        0.5320    2.0105   -1.3120 Du        2 SUP2    0.0000
     28 H14        0.2165    2.9192   -1.4368 Du        2 SUP2    0.0000
     29 H15       -0.0965    1.4038   -1.7332 Du        2 SUP2    0.0000
     30 O2         7.0400    7.2054    1.1243 Du        2 SUP2    0.0000
     31 C2E        5.5395    4.8431   -1.0992 C.2       1 RES1    0.0000
     32 H1E        6.1028    4.9423   -1.8320 H         1 RES1    0.0000
     33 C3E        4.5697    3.8719   -1.1000 C.2       1 RES1    0.0000
     34 H2E        4.4842    3.3153   -1.8402 H         1 RES1    0.0000
     35 C5E        2.7632    1.4871   -0.8287 C.3       1 RES1    0.0000
     36 C6E        4.1212    0.8230   -0.8958 C.3       1 RES1    0.0000
     37 H3E        4.6620    1.2662   -1.5541 H         1 RES1    0.0000
     38 H4E        4.0143   -0.0999   -1.1383 H         1 RES1    0.0000
     39 H5E        4.5488    0.8819   -0.0391 H         1 RES1    0.0000
     40 C7E        1.7139    0.6587   -0.0712 C.3       1 RES1    0.0000
     41 H6E        1.3199    0.3591   -0.9160 H         1 RES1    0.0000
     42 C8E        2.3075    1.6623   -2.4118 C.3       1 RES1    0.0000
     43 H7E        2.8722    2.3126   -2.8365 H         1 RES1    0.0000
     44 H8E        1.3946    1.9568   -2.4516 H         1 RES1    0.0000
     45 H9E        2.3923    0.8206   -2.8653 H         1 RES1    0.0000
     46 C9E        1.8544   -0.6990    0.3685 C.2       1 RES1    0.0000
     47 H10E       1.1261   -1.0657    0.8176 H         1 RES1    0.0000
     48 H11E       2.6180   -1.2117    0.2285 H         1 RES1    0.0000
     49 O1E        7.5175    6.6985   -0.9341 O.3       1 RES1    0.0000
     50 N1E        6.5408    6.8454    0.0375 N.2       1 RES1    0.0000
     51 N2E        2.6054    2.8638   -0.2114 N.2       1 RES1    0.0000
@<TRIPOS>BOND
     1    1    2 1
     2    2    3 1
     3    4    2 1
     4    5    4 1
     5    6    4 1
     6    7    8 1
     7    8    9 1
     8   10    8 1
     9   11    8 1
    10   12    7 1
    11   13   12 1
    12   14    7 1
    13   15   14 1
    14   16   14 1
    15   17   14 1
    16   18   12 1
    17   19   18 1
    18   20   18 1
    19   21   22 1
    20   22    1 1
    21   23    6 1
    22   31    1 1
    23   32   31 1
    24   33    6 1
    25   34   33 1
    26   35   23 1
    27   36   35 1
    28   37   36 1
    29   38   36 1
    30   39   36 1
    31   40   12 1
    32   41   40 1
    33   42   35 1
    34   43   42 1
    35   44   42 1
    36   45   42 1
    37   46   40 1
    38   47   46 1
    39   48   46 1
    40   49   22 1
    41   50    1 1
    42   51    6 1
    43    7   23 1
    44    7   51 1
    45   21   50 1
    46   22   50 1
    47   23   51 1
    48   31   33 1
    49   35   40 1
    50   35   51 1
    51   49   50 1
@<TRIPOS>SUBSTRUCTURE
     1 RES1 1
     2 SUP2 24

@<TRIPOS>CRYSIN
   8.3910    8.3910   20.5840  90.0000  90.0000  90.0000  96 1

