# MOL2 file generated by ConQuest
# Please check atom types

@<TRIPOS>MOLECULE
DAKNIN
    71    74     1
SMALL
NO_CHARGES
****
Generated from CSD

@<TRIPOS>ATOM
      1 C1         3.9530    3.7843    7.5441 C.3       1 RES1    0.0000
      2 H1         3.1586    4.2851    7.2295 H         1 RES1    0.0000
      3 H2         4.5934    4.4284    7.9379 H         1 RES1    0.0000
      4 C2         3.5513    2.7767    8.5617 C.3       1 RES1    0.0000
      5 H3         4.3028    2.3519    9.0673 H         1 RES1    0.0000
      6 C3         2.3815    1.8900    8.2861 C.3       1 RES1    0.0000
      7 H4         1.8898    2.0281    7.4360 H         1 RES1    0.0000
      8 H5         2.4386    0.9480    8.5856 H         1 RES1    0.0000
      9 C4         2.2592    2.9433    9.3373 C.3       1 RES1    0.0000
     10 H6         2.3117    2.5755   10.2655 H         1 RES1    0.0000
     11 C5         1.3244    4.1029    9.2227 C.3       1 RES1    0.0000
     12 H7         1.6232    4.9119    9.7271 H         1 RES1    0.0000
     13 C6        -0.1517    3.8749    9.2709 C.3       1 RES1    0.0000
     14 H8        -0.6952    4.4923    9.8202 H         1 RES1    0.0000
     15 H9        -0.4738    2.9390    9.2575 H         1 RES1    0.0000
     16 C7         0.4677    4.4223    8.0112 C.3       1 RES1    0.0000
     17 H10        0.5383    3.7851    7.2417 H         1 RES1    0.0000
     18 C8         0.1757    5.8374    7.6611 C.3       1 RES1    0.0000
     19 H11       -0.6922    5.8849    7.1891 H         1 RES1    0.0000
     20 H12        0.1006    6.3719    8.4925 H         1 RES1    0.0000
     21 N1         6.6543    9.0320    6.7126 N.pl3     1 RES1    0.0000
     22 N2         4.0446    7.6523    2.8242 N.pl3     1 RES1    0.0000
     23 O1         1.2276    6.4073    6.8082 O.3       1 RES1    0.0000
     24 O2         2.3583    7.1161    8.6257 O.2       1 RES1    0.0000
     25 O3         7.6169    9.2021    5.9597 O.2       1 RES1    0.0000
     26 O4         6.6836    9.2582    7.9169 O.2       1 RES1    0.0000
     27 O5         4.9583    8.0676    2.1191 O.2       1 RES1    0.0000
     28 O6         3.0287    7.0885    2.4008 O.2       1 RES1    0.0000
     29 C9         2.2509    7.0056    7.4287 C.2       1 RES1    0.0000
     30 C10        3.2660    7.5150    6.4657 C.ar      1 RES1    0.0000
     31 C11        3.1181    7.3924    5.0914 C.ar      1 RES1    0.0000
     32 H13        2.3260    7.0238    4.7199 H         1 RES1    0.0000
     33 C12        4.1549    7.8224    4.2778 C.ar      1 RES1    0.0000
     34 C13        5.3307    8.3646    4.7725 C.ar      1 RES1    0.0000
     35 H14        6.0357    8.6392    4.1977 H         1 RES1    0.0000
     36 C14        5.4238    8.4820    6.1451 C.ar      1 RES1    0.0000
     37 C15        4.4200    8.0840    7.0012 C.ar      1 RES1    0.0000
     38 H15        4.5131    8.1954    7.9420 H         1 RES1    0.0000
     39 C16        5.0446    3.8767    5.4614 C.2       1 RES1    0.0000
     40 C17        6.0056    3.8102    3.2760 C.3       1 RES1    0.0000
     41 H16        6.3022    4.7314    3.5298 H         1 RES1    0.0000
     42 C18        4.8727    3.8983    2.2656 C.3       1 RES1    0.0000
     43 H17        4.1399    4.4465    2.6433 H         1 RES1    0.0000
     44 H18        4.5176    2.9908    2.0928 H         1 RES1    0.0000
     45 C19        5.3464    4.5182    0.9480 C.3       1 RES1    0.0000
     46 H19        5.6723    5.4455    1.1375 H         1 RES1    0.0000
     47 C20        4.1902    4.6080   -0.0619 C.3       1 RES1    0.0000
     48 H20        4.5093    5.0284   -0.8865 H         1 RES1    0.0000
     49 H21        3.4649    5.1459    0.3198 H         1 RES1    0.0000
     50 H22        3.8599    3.7074   -0.2591 H         1 RES1    0.0000
     51 C21        6.5079    3.7040    0.4190 C.3       1 RES1    0.0000
     52 H23        6.8383    4.1098   -0.4210 H         1 RES1    0.0000
     53 H24        6.1994    2.7853    0.2145 H         1 RES1    0.0000
     54 C22        7.6492    3.6435    1.4390 C.3       1 RES1    0.0000
     55 H25        7.9885    4.5588    1.6070 H         1 RES1    0.0000
     56 H26        8.3932    3.1056    1.0686 H         1 RES1    0.0000
     57 C23        7.1867    3.0202    2.7716 C.3       1 RES1    0.0000
     58 H27        6.8668    2.0929    2.5745 H         1 RES1    0.0000
     59 C24        8.3091    2.9097    3.8273 C.3       1 RES1    0.0000
     60 H28        7.8796    2.5902    4.6713 H         1 RES1    0.0000
     61 C25        8.9653    4.2505    4.1467 C.3       1 RES1    0.0000
     62 H29        9.6478    4.1236    4.8372 H         1 RES1    0.0000
     63 H30        8.2851    4.8782    4.4689 H         1 RES1    0.0000
     64 H31        9.3835    4.6106    3.3355 H         1 RES1    0.0000
     65 C26        9.3497    1.8589    3.4379 C.3       1 RES1    0.0000
     66 H32        9.8002    2.1361    2.6109 H         1 RES1    0.0000
     67 H33        8.9067    0.9972    3.2950 H         1 RES1    0.0000
     68 H34       10.0104    1.7708    4.1572 H         1 RES1    0.0000
     69 O7         4.5784    3.0720    6.4220 O.3       1 RES1    0.0000
     70 O8         5.0702    5.0742    5.5031 O.2       1 RES1    0.0000
     71 O9         5.4914    3.1117    4.4721 O.3       1 RES1    0.0000
@<TRIPOS>BOND
     1    1    2 1
     2    3    1 1
     3    4    1 1
     4    5    4 1
     5    6    4 1
     6    7    6 1
     7    8    6 1
     8    9    4 1
     9   10    9 1
    10   11    9 1
    11   12   11 1
    12   13   11 1
    13   14   13 1
    14   15   13 1
    15   16   11 1
    16   17   16 1
    17   18   16 1
    18   19   18 1
    19   20   18 1
    20   21   25 2
    21   22   27 2
    22   23   18 1
    23   24   29 2
    24   26   21 2
    25   28   22 2
    26   29   23 1
    27   30   29 1
    28   31   30 ar
    29   32   31 1
    30   33   22 1
    31   34   33 ar
    32   35   34 1
    33   36   21 1
    34   37   30 ar
    35   38   37 1
    36   39   69 1
    37   40   41 1
    38   42   40 1
    39   43   42 1
    40   44   42 1
    41   45   42 1
    42   46   45 1
    43   47   45 1
    44   48   47 1
    45   49   47 1
    46   50   47 1
    47   51   45 1
    48   52   51 1
    49   53   51 1
    50   54   51 1
    51   55   54 1
    52   56   54 1
    53   57   40 1
    54   58   57 1
    55   59   57 1
    56   60   59 1
    57   61   59 1
    58   62   61 1
    59   63   61 1
    60   64   61 1
    61   65   59 1
    62   66   65 1
    63   67   65 1
    64   68   65 1
    65   69    1 1
    66   70   39 2
    67   71   39 1
    68    6    9 1
    69   13   16 1
    70   31   33 ar
    71   34   36 ar
    72   36   37 ar
    73   40   71 1
    74   54   57 1
@<TRIPOS>SUBSTRUCTURE
     1 RES1 1

@<TRIPOS>CRYSIN
   7.5080    8.6340   40.4790  90.0000  90.0000  90.0000  19 1

