# MOL2 file generated by ConQuest
# Please check atom types

@<TRIPOS>MOLECULE
DALBOK
   104   108     2
SMALL
USER_CHARGES
****
Generated from CSD

@<TRIPOS>ATOM
      1 O1         4.6178    2.5005    3.3219 O.3       1 RES1    0.0000
      2 H1         5.3714    2.3203    3.6088 H         1 RES1    0.0000
      3 O2         4.2214    0.2256    3.6835 O.3       1 RES1    0.0000
      4 O3         1.2109    3.2932    4.7201 O.2       1 RES1   -1.0000
      5 N1         2.0693    2.3540    5.0004 N.pl3     1 RES1    1.0000
      6 N2         3.2142    0.3363    4.7266 N.3       1 RES1    0.0000
      7 C1         4.7483    0.9149    1.4947 C.3       1 RES1    0.0000
      8 H2         4.6796    1.6281    0.8554 H         1 RES1    0.0000
      9 H3         4.3227    0.1292    1.1442 H         1 RES1    0.0000
     10 H4         5.6733    0.7277    1.6678 H         1 RES1    0.0000
     11 C2         4.0684    1.3239    2.7821 C.3       1 RES1    0.0000
     12 C3         2.5678    1.5000    2.7327 C.3       1 RES1    0.0000
     13 H5         2.1692    0.9083    2.0741 H         1 RES1    0.0000
     14 H6         2.3316    2.4165    2.5187 H         1 RES1    0.0000
     15 C4         2.1173    1.1355    4.1376 C.3       1 RES1    0.0000
     16 C5         2.9488    2.3415    5.9517 C.2       1 RES1    0.0000
     17 C6         3.1642    3.5133    6.8495 C.3       1 RES1    0.0000
     18 H7         2.7563    4.2912    6.4367 H         1 RES1    0.0000
     19 H8         4.1175    3.6821    6.9061 H         1 RES1    0.0000
     20 C7         2.6170    3.3820    8.2693 C.3       1 RES1    0.0000
     21 H9         2.9650    2.5668    8.6642 H         1 RES1    0.0000
     22 H10        2.9412    4.1277    8.7996 H         1 RES1    0.0000
     23 C8         1.1064    3.3522    8.3435 C.3       1 RES1    0.0000
     24 H11        0.7791    2.6485    7.7615 H         1 RES1    0.0000
     25 H12        0.7614    4.1949    8.0097 H         1 RES1    0.0000
     26 C9         0.5567    3.1192    9.7541 C.3       1 RES1    0.0000
     27 H13        0.8962    3.8205   10.3343 H         1 RES1    0.0000
     28 H14       -0.4087    3.2088    9.7250 H         1 RES1    0.0000
     29 C10        0.8941    1.7784   10.3781 C.3       1 RES1    0.0000
     30 H15        0.6084    1.7929   11.3048 H         1 RES1    0.0000
     31 H16        1.8588    1.6730   10.3727 H         1 RES1    0.0000
     32 C11        0.2776    0.5649    9.7060 C.3       1 RES1    0.0000
     33 H17        0.1314    0.7752    8.7703 H         1 RES1    0.0000
     34 H18       -0.5909    0.4008   10.1064 H         1 RES1    0.0000
     35 C12        1.0979   -0.7238    9.7891 C.3       1 RES1    0.0000
     36 H19        1.2310   -0.9452   10.7248 H         1 RES1    0.0000
     37 H20        0.5857   -1.4436    9.3887 H         1 RES1    0.0000
     38 C13        2.4504   -0.6571    9.1102 C.3       1 RES1    0.0000
     39 H21        2.8596   -1.5359    9.1540 H         1 RES1    0.0000
     40 H22        3.0156   -0.0475    9.6099 H         1 RES1    0.0000
     41 C14        2.4239   -0.2066    7.6511 C.3       1 RES1    0.0000
     42 H23        2.0962   -0.9360    7.1002 H         1 RES1    0.0000
     43 H24        1.8051    0.5352    7.5606 H         1 RES1    0.0000
     44 C15        3.7854    0.2221    7.1422 C.3       1 RES1    0.0000
     45 H25        4.3090   -0.5735    6.9603 H         1 RES1    0.0000
     46 H26        4.2353    0.7119    7.8472 H         1 RES1    0.0000
     47 C16        3.7751    1.0880    5.8860 C.3       1 RES1    0.0000
     48 H27        4.6997    1.3381    5.6738 H         1 RES1    0.0000
     49 C17        0.7851    0.4199    4.2342 C.3       1 RES1    0.0000
     50 H28        0.8259   -0.4008    3.7397 H         1 RES1    0.0000
     51 H29        0.0943    0.9782    3.8706 H         1 RES1    0.0000
     52 H30        0.5908    0.2294    5.1548 H         1 RES1    0.0000
     53 O4         9.9187    5.2907    3.7981 O.3       2 RES2    0.0000
     54 O5         6.9634    2.1833    4.8000 O.2       2 RES2   -1.0000
     55 O6        10.3021    3.0203    3.3928 O.3       2 RES2    0.0000
     56 H31       11.0629    3.1350    3.6629 H         2 RES2    0.0000
     57 N3         8.9117    5.1734    4.8456 N.3       2 RES2    0.0000
     58 N4         7.8043    3.1327    5.1010 N.pl3     2 RES2    1.0000
     59 C18       10.4065    4.6339    1.5938 C.3       2 RES2    0.0000
     60 H32       11.3443    4.7724    1.7401 H         2 RES2    0.0000
     61 H33       10.0052    5.4513    1.2909 H         2 RES2    0.0000
     62 H34       10.2835    3.9510    0.9298 H         2 RES2    0.0000
     63 C19        9.7543    4.2040    2.8823 C.3       2 RES2    0.0000
     64 C20        9.4837    4.4180    5.9995 C.3       2 RES2    0.0000
     65 H35       10.4137    4.1910    5.7889 H         2 RES2    0.0000
     66 C21        9.4721    5.2733    7.2652 C.3       2 RES2    0.0000
     67 H36        9.9366    4.7882    7.9646 H         2 RES2    0.0000
     68 H37        9.9761    6.0841    7.0912 H         2 RES2    0.0000
     69 C22        8.1020    5.6668    7.7849 C.3       2 RES2    0.0000
     70 H38        7.5057    4.9055    7.7141 H         2 RES2    0.0000
     71 H39        7.7449    6.3768    7.2288 H         2 RES2    0.0000
     72 C23        8.1327    6.1413    9.2388 C.3       2 RES2    0.0000
     73 H40        8.7361    5.5660    9.7363 H         2 RES2    0.0000
     74 H41        8.5025    7.0386    9.2601 H         2 RES2    0.0000
     75 C24        6.7876    6.1586    9.9547 C.3       2 RES2    0.0000
     76 H42        6.2359    6.8514    9.5602 H         2 RES2    0.0000
     77 H43        6.9349    6.3965   10.8828 H         2 RES2    0.0000
     78 C25        6.0173    4.8393    9.9076 C.3       2 RES2    0.0000
     79 H44        5.1769    4.9582   10.3772 H         2 RES2    0.0000
     80 H45        5.8084    4.6392    8.9825 H         2 RES2    0.0000
     81 C26        6.7346    3.6424   10.5065 C.3       2 RES2    0.0000
     82 H46        6.5310    3.6030   11.4538 H         2 RES2    0.0000
     83 H47        7.6905    3.7797   10.4178 H         2 RES2    0.0000
     84 C27        8.6848    3.1469    6.0449 C.2       2 RES2    0.0000
     85 C28        7.8186    4.3674    4.2658 C.3       2 RES2    0.0000
     86 C29        6.4806    5.0656    4.4055 C.3       2 RES2    0.0000
     87 H48        6.3041    5.2364    5.3331 H         2 RES2    0.0000
     88 H49        5.7883    4.5061    4.0444 H         2 RES2    0.0000
     89 H50        6.5019    5.8969    3.9270 H         2 RES2    0.0000
     90 C30        8.2445    4.0379    2.8435 C.3       2 RES2    0.0000
     91 H51        7.9996    3.1297    2.6067 H         2 RES2    0.0000
     92 H52        7.8420    4.6497    2.2072 H         2 RES2    0.0000
     93 C31        8.9294    1.9600    6.9068 C.3       2 RES2    0.0000
     94 H53        9.8862    1.8008    6.9422 H         2 RES2    0.0000
     95 H54        8.5221    1.1878    6.4841 H         2 RES2    0.0000
     96 C32        8.4027    2.0580    8.3415 C.3       2 RES2    0.0000
     97 H55        8.7314    1.2972    8.8448 H         2 RES2    0.0000
     98 H56        8.7648    2.8595    8.7500 H         2 RES2    0.0000
     99 C33        6.8933    2.0967    8.4510 C.3       2 RES2    0.0000
    100 H57        6.5342    1.2643    8.1045 H         2 RES2    0.0000
    101 H58        6.5582    2.8160    7.8924 H         2 RES2    0.0000
    102 C34        6.3777    2.2994    9.8784 C.3       2 RES2    0.0000
    103 H59        5.4112    2.2082    9.8739 H         2 RES2    0.0000
    104 H60        6.7344    1.5925   10.4382 H         2 RES2    0.0000
@<TRIPOS>BOND
     1    1    2 1
     2    3    6 1
     3    4    5 1
     4    5   15 1
     5    6   15 1
     6    7    8 1
     7    9    7 1
     8   10    7 1
     9   11    1 1
    10   12   11 1
    11   13   12 1
    12   14   12 1
    13   15   12 1
    14   16    5 2
    15   17   16 1
    16   18   17 1
    17   19   17 1
    18   20   17 1
    19   21   20 1
    20   22   20 1
    21   23   20 1
    22   24   23 1
    23   25   23 1
    24   26   23 1
    25   27   26 1
    26   28   26 1
    27   29   26 1
    28   30   29 1
    29   31   29 1
    30   32   29 1
    31   33   32 1
    32   34   32 1
    33   35   32 1
    34   36   35 1
    35   37   35 1
    36   38   35 1
    37   39   38 1
    38   40   38 1
    39   41   38 1
    40   42   41 1
    41   43   41 1
    42   44   41 1
    43   45   44 1
    44   46   44 1
    45   47    6 1
    46   48   47 1
    47   49   15 1
    48   50   49 1
    49   51   49 1
    50   52   49 1
    51   53   57 1
    52   54   58 1
    53   55   56 1
    54   57   64 1
    55   58   84 2
    56   59   60 1
    57   61   59 1
    58   62   59 1
    59   63   53 1
    60   64   65 1
    61   66   64 1
    62   67   66 1
    63   68   66 1
    64   69   66 1
    65   70   69 1
    66   71   69 1
    67   72   69 1
    68   73   72 1
    69   74   72 1
    70   75   72 1
    71   76   75 1
    72   77   75 1
    73   78   75 1
    74   79   78 1
    75   80   78 1
    76   81   78 1
    77   82   81 1
    78   83   81 1
    79   84   64 1
    80   85   57 1
    81   86   85 1
    82   87   86 1
    83   88   86 1
    84   89   86 1
    85   90   63 1
    86   91   90 1
    87   92   90 1
    88   93   84 1
    89   94   93 1
    90   95   93 1
    91   96   93 1
    92   97   96 1
    93   98   96 1
    94   99   96 1
    95  100   99 1
    96  101   99 1
    97  102   81 1
    98  103  102 1
    99  104  102 1
   100    3   11 1
   101    7   11 1
   102   16   47 1
   103   44   47 1
   104   55   63 1
   105   58   85 1
   106   59   63 1
   107   85   90 1
   108   99  102 1
@<TRIPOS>SUBSTRUCTURE
     1 RES1 1
     2 RES2 53

@<TRIPOS>CRYSIN
  11.5500   13.1833   22.5948  90.0000  92.7390  90.0000 231 1

