# MOL2 file generated by ConQuest
# Please check atom types

@<TRIPOS>MOLECULE
DALBIE
    40    42     1
SMALL
USER_CHARGES
****
Generated from CSD

@<TRIPOS>ATOM
      1 O1         2.4871    2.7740   -0.1862 O.3       1 RES1    0.0000
      2 O2         0.7141    1.6095    0.6552 O.3       1 RES1    0.0000
      3 H1        -0.2652    1.5476    0.6077 H         1 RES1    0.0000
      4 O3         1.9749   -1.5057   -0.5928 O.2       1 RES1   -1.0000
      5 N1         3.4747    1.7225   -0.3695 N.3       1 RES1    0.0000
      6 N2         2.6241   -0.4371   -0.2133 N.pl3     1 RES1    1.0000
      7 C1         0.3377    3.4664   -0.8579 C.3       1 RES1    0.0000
      8 H2        -0.5404    3.1715   -1.1109 H         1 RES1    0.0000
      9 H3         0.7411    3.9348   -1.5923 H         1 RES1    0.0000
     10 H4         0.2728    4.0529   -0.1006 H         1 RES1    0.0000
     11 C2         1.1878    2.2679   -0.4958 C.3       1 RES1    0.0000
     12 C3         3.7953    1.1287    0.9676 C.3       1 RES1    0.0000
     13 H5         3.3950    1.6814    1.6711 H         1 RES1    0.0000
     14 C4         5.3213    1.1447    1.1194 C.3       1 RES1    0.0000
     15 H6         5.6985    0.5615    0.4415 H         1 RES1    0.0000
     16 H7         5.6345    2.0442    0.9333 H         1 RES1    0.0000
     17 C5         5.8755    0.7194    2.4715 C.3       1 RES1    0.0000
     18 H8         5.3745    1.1711    3.1684 H         1 RES1    0.0000
     19 H9         6.7974    1.0143    2.5360 H         1 RES1    0.0000
     20 C6         5.8243   -0.7926    2.7316 C.3       1 RES1    0.0000
     21 H10        5.6558   -1.2443    1.8895 H         1 RES1    0.0000
     22 H11        6.6947   -1.0802    3.0469 H         1 RES1    0.0000
     23 C7         4.7830   -1.2380    3.7295 C.3       1 RES1    0.0000
     24 H12        4.7994   -2.2074    3.7761 H         1 RES1    0.0000
     25 H13        5.0333   -0.9014    4.6040 H         1 RES1    0.0000
     26 C8         3.3689   -0.7994    3.4385 C.3       1 RES1    0.0000
     27 H14        3.3182    0.1642    3.5387 H         1 RES1    0.0000
     28 H15        2.7814   -1.1931    4.1017 H         1 RES1    0.0000
     29 C9         2.8573   -1.1685    2.0624 C.3       1 RES1    0.0000
     30 H16        3.2429   -2.0254    1.8201 H         1 RES1    0.0000
     31 H17        1.8971   -1.2924    2.1240 H         1 RES1    0.0000
     32 C10        3.1266   -0.2145    0.9514 C.2       1 RES1    0.0000
     33 C11        2.8168    0.6853   -1.1864 C.3       1 RES1    0.0000
     34 C12        1.4811    1.2750   -1.6040 C.3       1 RES1    0.0000
     35 H18        1.5473    1.7190   -2.4639 H         1 RES1    0.0000
     36 H19        0.7949    0.5908   -1.6521 H         1 RES1    0.0000
     37 C13        3.6777    0.1862   -2.3325 C.3       1 RES1    0.0000
     38 H20        3.8228    0.9003   -2.9576 H         1 RES1    0.0000
     39 H21        3.2317   -0.5406   -2.7744 H         1 RES1    0.0000
     40 H22        4.5220   -0.1171   -1.9901 H         1 RES1    0.0000
@<TRIPOS>BOND
     1    1    5 1
     2    2    3 1
     3    4    6 1
     4    5   12 1
     5    6   32 2
     6    7    8 1
     7    9    7 1
     8   10    7 1
     9   11    1 1
    10   12   13 1
    11   14   12 1
    12   15   14 1
    13   16   14 1
    14   17   14 1
    15   18   17 1
    16   19   17 1
    17   20   17 1
    18   21   20 1
    19   22   20 1
    20   23   20 1
    21   24   23 1
    22   25   23 1
    23   26   23 1
    24   27   26 1
    25   28   26 1
    26   29   26 1
    27   30   29 1
    28   31   29 1
    29   32   12 1
    30   33    5 1
    31   34   11 1
    32   35   34 1
    33   36   34 1
    34   37   33 1
    35   38   37 1
    36   39   37 1
    37   40   37 1
    38    2   11 1
    39    6   33 1
    40    7   11 1
    41   29   32 1
    42   33   34 1
@<TRIPOS>SUBSTRUCTURE
     1 RES1 1

@<TRIPOS>CRYSIN
  13.5927   10.4565    9.5009  90.0000  92.0640  90.0000  14 1

