# MOL2 file generated by ConQuest
# Please check atom types

@<TRIPOS>MOLECULE
DALHAA
   126   126     3
SMALL
NO_CHARGES
****
Generated from CSD

@<TRIPOS>ATOM
      1 N1        -1.8954   16.5020   19.3568 N.am      1 RES1    0.0000
      2 N2         0.9120   16.2428   18.7412 N.pl3     1 RES1    0.0000
      3 N3        -0.0393   12.8246   15.4076 N.pl3     1 RES1    0.0000
      4 N4        -3.8129   14.7981   17.8569 N.pl3     1 RES1    0.0000
      5 O1         0.9099   16.1986   19.9528 O.2       1 RES1    0.0000
      6 O2         1.6889   16.8610   18.0312 O.2       1 RES1    0.0000
      7 O3         1.0861   12.9616   14.9809 O.2       1 RES1    0.0000
      8 O4        -0.8184   11.8912   15.1144 O.2       1 RES1    0.0000
      9 O5        -4.3904   13.7464   17.7445 O.2       1 RES1    0.0000
     10 O6        -4.3053   15.8626   18.1468 O.2       1 RES1    0.0000
     11 O7        -3.1139   16.7821   21.2785 O.2       1 RES1    0.0000
     12 C1        -1.4674   15.5858   18.3536 C.ar      1 RES1    0.0000
     13 C2        -0.0864   15.4335   18.0067 C.ar      1 RES1    0.0000
     14 C3         0.3809   14.6164   17.0426 C.ar      1 RES1    0.0000
     15 H1         1.2797   14.6126   16.8065 H         1 RES1    0.0000
     16 C4        -0.5308   13.7819   16.4205 C.ar      1 RES1    0.0000
     17 C5        -1.8525   13.8201   16.6990 C.ar      1 RES1    0.0000
     18 H2        -2.4443   13.2501   16.2626 H         1 RES1    0.0000
     19 C6        -2.3089   14.7086   17.6387 C.ar      1 RES1    0.0000
     20 C7        -1.2417   18.8404   19.7916 C.3       1 RES1    0.0000
     21 H3        -1.3878   18.6855   20.7280 H         1 RES1    0.0000
     22 H4        -1.4539   19.7520   19.5815 H         1 RES1    0.0000
     23 H5        -0.3217   18.6686   19.5783 H         1 RES1    0.0000
     24 C8        -2.1414   17.9034   18.9724 C.3       1 RES1    0.0000
     25 H6        -3.0723   18.1134   19.1988 H         1 RES1    0.0000
     26 C9        -1.9587   18.1645   17.4660 C.3       1 RES1    0.0000
     27 H7        -2.5461   17.5923   16.9677 H         1 RES1    0.0000
     28 H8        -1.0487   17.9850   17.2169 H         1 RES1    0.0000
     29 H9        -2.1672   19.0821   17.2723 H         1 RES1    0.0000
     30 C10       -2.4949   16.0544   20.5212 C.2       1 RES1    0.0000
     31 N5        -2.3600   14.6988   20.7801 N.am      1 RES1    0.0000
     32 H10       -1.8379   14.2267   20.2867 H         1 RES1    0.0000
     33 C11       -4.5188   13.7258   21.4527 C.3       1 RES1    0.0000
     34 H11       -4.9568   14.5319   21.1726 H         1 RES1    0.0000
     35 H12       -5.0012   13.3367   22.1855 H         1 RES1    0.0000
     36 H13       -4.4931   13.1054   20.7215 H         1 RES1    0.0000
     37 C12       -3.1019   14.0474   21.8924 C.3       1 RES1    0.0000
     38 H14       -3.1563   14.6879   22.6318 H         1 RES1    0.0000
     39 C13       -2.3551   12.8294   22.3891 C.3       1 RES1    0.0000
     40 H15       -1.4782   13.0881   22.6806 H         1 RES1    0.0000
     41 H16       -2.2793   12.1889   21.6774 H         1 RES1    0.0000
     42 H17       -2.8343   12.4371   23.1220 H         1 RES1    0.0000
     43 N6         3.3948    7.8802   13.2188 N.am      2 RES2    0.0000
     44 N7         0.5988    8.1214   14.1341 N.pl3     2 RES2    0.0000
     45 N8         0.1845   12.3362   11.7010 N.pl3     2 RES2    0.0000
     46 N9         4.4957    9.9769   11.6489 N.pl3     2 RES2    0.0000
     47 O8        -0.5925    7.9723   13.9696 O.2       2 RES2    0.0000
     48 O9         1.2740    7.5498   14.9744 O.2       2 RES2    0.0000
     49 O10       -1.0372   12.2237   11.8232 O.2       2 RES2    0.0000
     50 O11        0.7250   13.3226   11.2157 O.2       2 RES2    0.0000
     51 O12        5.2317   10.9000   12.0121 O.2       2 RES2    0.0000
     52 O13        4.7631    9.0379   10.9144 O.2       2 RES2    0.0000
     53 O14        3.5743    5.6013   13.2856 O.2       2 RES2    0.0000
     54 C14        2.5856    8.9768   12.8671 C.ar      2 RES2    0.0000
     55 C15        1.2257    9.1636   13.2758 C.ar      2 RES2    0.0000
     56 C16        0.4603   10.2110   12.8443 C.ar      2 RES2    0.0000
     57 H18       -0.4475   10.2356   13.0429 H         2 RES2    0.0000
     58 C17        1.0221   11.2143   12.1293 C.ar      2 RES2    0.0000
     59 C18        2.3433   11.1522   11.7417 C.ar      2 RES2    0.0000
     60 H19        2.7166   11.8268   11.2239 H         2 RES2    0.0000
     61 C19        3.0942   10.0820   12.1326 C.ar      2 RES2    0.0000
     62 C20        5.7885    7.7510   13.9110 C.3       2 RES2    0.0000
     63 H20        5.8546    6.9121   13.4468 H         2 RES2    0.0000
     64 H21        6.3623    7.7351   14.6813 H         2 RES2    0.0000
     65 H22        6.0592    8.4616   13.3247 H         2 RES2    0.0000
     66 C21        4.3502    7.9761   14.3523 C.3       2 RES2    0.0000
     67 H23        4.1299    7.2421   14.9630 H         2 RES2    0.0000
     68 C22        4.2117    9.2625   15.1552 C.3       2 RES2    0.0000
     69 H24        3.3036    9.3593   15.4499 H         2 RES2    0.0000
     70 H25        4.4506   10.0107   14.6031 H         2 RES2    0.0000
     71 H26        4.7942    9.2281   15.9173 H         2 RES2    0.0000
     72 C23        3.0395    6.5853   12.7628 C.2       2 RES2    0.0000
     73 N10        2.1246    6.5636   11.7759 N.am      2 RES2    0.0000
     74 H27        1.8870    7.2871   11.3786 H         2 RES2    0.0000
     75 C24        0.3956    4.8827   12.3541 C.3       2 RES2    0.0000
     76 H28        0.7318    4.8343   13.2514 H         2 RES2    0.0000
     77 H29        0.0391    4.0283   12.1000 H         2 RES2    0.0000
     78 H30       -0.2960    5.5461   12.3052 H         2 RES2    0.0000
     79 C25        1.5428    5.2652   11.3965 C.3       2 RES2    0.0000
     80 H31        2.2418    4.5822   11.4600 H         2 RES2    0.0000
     81 C26        1.0575    5.3281    9.9504 C.3       2 RES2    0.0000
     82 H32        1.7943    5.5405    9.3739 H         2 RES2    0.0000
     83 H33        0.3823    6.0058    9.8689 H         2 RES2    0.0000
     84 H34        0.6886    4.4787    9.6996 H         2 RES2    0.0000
     85 N11       -0.6213    9.0395    8.5710 N.am      3 RES3    0.0000
     86 N12       -2.4185    7.3583    7.0646 N.pl3     3 RES3    0.0000
     87 N13       -1.9050   10.2389    3.1545 N.pl3     3 RES3    0.0000
     88 N14        0.5354   11.3733    7.2177 N.pl3     3 RES3    0.0000
     89 O15       -1.6501    6.5795    7.6118 O.2       3 RES3    0.0000
     90 O16       -3.6139    7.2044    6.9718 O.2       3 RES3    0.0000
     91 O17       -2.8553    9.6816    2.6496 O.2       3 RES3    0.0000
     92 O18       -1.1956   11.0718    2.5796 O.2       3 RES3    0.0000
     93 O19        0.3251   11.6551    8.3739 O.2       3 RES3    0.0000
     94 O20        1.4387   11.8281    6.5304 O.2       3 RES3    0.0000
     95 O21        1.0703    8.7694   10.0611 O.2       3 RES3    0.0000
     96 C27       -0.9401    9.3652    7.2437 C.ar      3 RES3    0.0000
     97 C28       -1.8380    8.5714    6.4734 C.ar      3 RES3    0.0000
     98 C29       -2.2090    8.8747    5.1918 C.ar      3 RES3    0.0000
     99 H35       -2.8593    8.3748    4.7537 H         3 RES3    0.0000
    100 C30       -1.5897    9.9486    4.5615 C.ar      3 RES3    0.0000
    101 C31       -0.6933   10.7477    5.2309 C.ar      3 RES3    0.0000
    102 H36       -0.2968   11.4782    4.8156 H         3 RES3    0.0000
    103 C32       -0.4085   10.4356    6.5272 C.ar      3 RES3    0.0000
    104 C33       -2.7094   10.3415    9.1752 C.3       3 RES3    0.0000
    105 H37       -2.3588   11.0977    8.6980 H         3 RES3    0.0000
    106 H38       -3.2100   10.6468    9.9341 H         3 RES3    0.0000
    107 H39       -3.2833    9.8351    8.5954 H         3 RES3    0.0000
    108 C34       -1.5550    9.4575    9.6474 C.3       3 RES3    0.0000
    109 H40       -1.0258   10.0150   10.2549 H         3 RES3    0.0000
    110 C35       -2.0494    8.3058   10.4813 C.3       3 RES3    0.0000
    111 H41       -1.3009    7.7949   10.7972 H         3 RES3    0.0000
    112 H42       -2.6175    7.7461    9.9471 H         3 RES3    0.0000
    113 H43       -2.5454    8.6428   11.2304 H         3 RES3    0.0000
    114 C36        0.6793    8.7246    8.9032 C.2       3 RES3    0.0000
    115 N15        1.4953    8.3706    7.8609 N.am      3 RES3    0.0000
    116 H44        1.1555    8.2627    7.0792 H         3 RES3    0.0000
    117 C37        3.6638    9.5080    7.8805 C.3       3 RES3    0.0000
    118 H45        3.3335   10.1352    8.5270 H         3 RES3    0.0000
    119 H46        3.5021    9.8433    6.9962 H         3 RES3    0.0000
    120 H47        4.6067    9.3828    8.0075 H         3 RES3    0.0000
    121 C38        2.9449    8.1693    8.0564 C.3       3 RES3    0.0000
    122 H48        3.1009    7.8408    8.9667 H         3 RES3    0.0000
    123 C39        3.4586    7.1534    7.0711 C.3       3 RES3    0.0000
    124 H49        3.0053    6.3182    7.2079 H         3 RES3    0.0000
    125 H50        4.4019    7.0300    7.2014 H         3 RES3    0.0000
    126 H51        3.2960    7.4632    6.1770 H         3 RES3    0.0000
@<TRIPOS>BOND
     1    1   12 1
     2    2    5 2
     3    3    7 2
     4    4    9 2
     5    6    2 2
     6    8    3 2
     7   10    4 2
     8   11   30 2
     9   12   13 ar
    10   13    2 1
    11   14   13 ar
    12   15   14 1
    13   16    3 1
    14   17   16 ar
    15   18   17 1
    16   19    4 1
    17   20   21 1
    18   22   20 1
    19   23   20 1
    20   24    1 1
    21   25   24 1
    22   26   24 1
    23   27   26 1
    24   28   26 1
    25   29   26 1
    26   30    1 1
    27   31   30 1
    28   32   31 1
    29   33   34 1
    30   35   33 1
    31   36   33 1
    32   37   31 1
    33   38   37 1
    34   39   37 1
    35   40   39 1
    36   41   39 1
    37   42   39 1
    38   43   54 1
    39   44   47 2
    40   45   49 2
    41   46   51 2
    42   48   44 2
    43   50   45 2
    44   52   46 2
    45   53   72 2
    46   54   55 ar
    47   55   44 1
    48   56   55 ar
    49   57   56 1
    50   58   45 1
    51   59   58 ar
    52   60   59 1
    53   61   46 1
    54   62   63 1
    55   64   62 1
    56   65   62 1
    57   66   43 1
    58   67   66 1
    59   68   66 1
    60   69   68 1
    61   70   68 1
    62   71   68 1
    63   72   43 1
    64   73   72 1
    65   74   73 1
    66   75   76 1
    67   77   75 1
    68   78   75 1
    69   79   73 1
    70   80   79 1
    71   81   79 1
    72   82   81 1
    73   83   81 1
    74   84   81 1
    75   85   96 1
    76   86   89 2
    77   87   91 2
    78   88   93 2
    79   90   86 2
    80   92   87 2
    81   94   88 2
    82   95  114 2
    83   96   97 ar
    84   97   86 1
    85   98   97 ar
    86   99   98 1
    87  100   87 1
    88  101  100 ar
    89  102  101 1
    90  103   88 1
    91  104  105 1
    92  106  104 1
    93  107  104 1
    94  108   85 1
    95  109  108 1
    96  110  108 1
    97  111  110 1
    98  112  110 1
    99  113  110 1
   100  114   85 1
   101  115  114 1
   102  116  115 1
   103  117  118 1
   104  119  117 1
   105  120  117 1
   106  121  115 1
   107  122  121 1
   108  123  121 1
   109  124  123 1
   110  125  123 1
   111  126  123 1
   112   12   19 ar
   113   14   16 ar
   114   17   19 ar
   115   20   24 1
   116   33   37 1
   117   54   61 ar
   118   56   58 ar
   119   59   61 ar
   120   62   66 1
   121   75   79 1
   122   96  103 ar
   123   98  100 ar
   124  101  103 ar
   125  104  108 1
   126  117  121 1
@<TRIPOS>SUBSTRUCTURE
     1 RES1 1
     2 RES2 43
     3 RES3 85

@<TRIPOS>CRYSIN
  10.4440   15.4700   17.7400 110.4300  99.8500  92.7800   2 1

