# MOL2 file generated by ConQuest
# Please check atom types

@<TRIPOS>MOLECULE
DALPEL
    32    31     1
SMALL
USER_CHARGES
****
Generated from CSD

@<TRIPOS>ATOM
      1 N1         7.2181    1.2650    3.5553 N.4       1 RES1    1.0000
      2 O1         6.2572    0.2158    3.6124 O.3       1 RES1    0.0000
      3 H1         5.3578    0.6353    3.4689 H         1 RES1    0.0000
      4 C1         7.0515    2.1339    4.7824 C.3       1 RES1    0.0000
      5 H2         7.7096    2.9160    4.6901 H         1 RES1    0.0000
      6 H3         6.1606    2.4740    4.6916 H         1 RES1    0.0000
      7 C2         7.2727    1.3921    6.0812 C.3       1 RES1    0.0000
      8 H4         6.5703    0.7661    6.1691 H         1 RES1    0.0000
      9 H5         8.1917    1.0576    6.1500 H         1 RES1    0.0000
     10 C3         7.0411    2.2844    7.2526 C.2       1 RES1    0.0000
     11 O2         7.7730    1.9751    8.2864 O.3       1 RES1    0.0000
     12 H6         7.6701    2.6422    8.9776 H         1 RES1    0.0000
     13 O3         6.2262    3.1607    7.2658 O.2       1 RES1    0.0000
     14 C4         7.0068    2.1162    2.3165 C.3       1 RES1    0.0000
     15 H7         6.1369    2.4993    2.4307 H         1 RES1    0.0000
     16 H8         7.6947    2.8599    2.3648 H         1 RES1    0.0000
     17 C5         7.0792    1.3211    1.0323 C.3       1 RES1    0.0000
     18 H9         6.4118    0.6848    1.0074 H         1 RES1    0.0000
     19 H10        7.8964    0.9063    0.9518 H         1 RES1    0.0000
     20 O4         7.1935    3.4177   -0.0761 O.3       1 RES1    0.0000
     21 H11        7.2595    3.7820   -0.8830 H         1 RES1    0.0000
     22 C6         6.9533    2.1265   -0.2240 C.2       1 RES1    0.0000
     23 O5         6.6518    1.6341   -1.2754 O.2       1 RES1    0.0000
     24 C7         8.5497    0.5307    3.5348 C.3       1 RES1    0.0000
     25 H12        8.6192    0.0430    4.4002 H         1 RES1    0.0000
     26 H13        8.4941   -0.1271    2.8012 H         1 RES1    0.0000
     27 C8         9.7264    1.4612    3.3225 C.3       1 RES1    0.0000
     28 H14        9.6391    2.2732    3.8979 H         1 RES1    0.0000
     29 H15        9.7940    1.7079    2.4117 H         1 RES1    0.0000
     30 C9        11.0374    0.8465    3.7647 C.2       1 RES1    0.0000
     31 O6        11.0764    0.1037    4.7560 O.co2     1 RES1    0.0000
     32 O7        12.0510    1.1828    3.0809 O.co2     1 RES1   -1.0000
@<TRIPOS>BOND
     1    1    2 1
     2    2    3 1
     3    4    1 1
     4    5    4 1
     5    6    4 1
     6    7    4 1
     7    8    7 1
     8    9    7 1
     9   10    7 1
    10   11   10 1
    11   12   11 1
    12   13   10 2
    13   14    1 1
    14   15   14 1
    15   16   14 1
    16   17   14 1
    17   18   17 1
    18   19   17 1
    19   20   21 1
    20   22   17 1
    21   23   22 2
    22   24    1 1
    23   25   24 1
    24   26   24 1
    25   27   24 1
    26   28   27 1
    27   29   27 1
    28   30   27 1
    29   31   30 2
    30   32   30 1
    31   20   22 1
@<TRIPOS>SUBSTRUCTURE
     1 RES1 1

@<TRIPOS>CRYSIN
   8.0970    9.3430   14.6470  90.0000  91.3500  90.0000 231 1

