# MOL2 file generated by ConQuest
# Please check atom types

@<TRIPOS>MOLECULE
DALWOD
    46    47     1
SMALL
NO_CHARGES
****
Generated from CSD

@<TRIPOS>ATOM
      1 O1        -2.1974    4.7579    7.2730 O.3       1 RES1    0.0000
      2 H1        -2.6008    4.9328    6.5795 H         1 RES1    0.0000
      3 C1        -1.7538    2.9685    8.7079 C.ar      1 RES1    0.0000
      4 N1        -2.0912   -0.7161    8.1685 N.pl3     1 RES1    0.0000
      5 N2        -0.9954    6.1055   11.5145 N.am      1 RES1    0.0000
      6 H2        -0.8115    6.6182   12.1803 H         1 RES1    0.0000
      7 C2        -2.1364    3.4159    7.4333 C.ar      1 RES1    0.0000
      8 O2        -2.3170   -1.4645    7.2284 O.2       1 RES1    0.0000
      9 C3        -2.4614    2.5175    6.4177 C.ar      1 RES1    0.0000
     10 H3        -2.6953    2.8314    5.5731 H         1 RES1    0.0000
     11 O3        -1.8962   -1.1027    9.2982 O.2       1 RES1    0.0000
     12 O4        -4.7891    3.6248   10.4649 O.2       1 RES1    0.0000
     13 C4        -2.4391    1.1616    6.6704 C.ar      1 RES1    0.0000
     14 H4        -2.6548    0.5532    6.0015 H         1 RES1    0.0000
     15 O5        -3.1892    3.0900   11.9152 O.3       1 RES1    0.0000
     16 C5        -2.0947    0.7299    7.9096 C.ar      1 RES1    0.0000
     17 O6         1.3827    3.2244    9.3861 O.2       1 RES1    0.0000
     18 C6        -1.7250    1.5915    8.9299 C.ar      1 RES1    0.0000
     19 H5        -1.4605    1.2546    9.7560 H         1 RES1    0.0000
     20 O7         1.4889    4.9254    7.9681 O.3       1 RES1    0.0000
     21 C7        -1.3919    3.9157    9.8284 C.3       1 RES1    0.0000
     22 H6        -1.0637    3.3772   10.5790 H         1 RES1    0.0000
     23 O8         1.1862    6.0815   10.9782 O.2       1 RES1    0.0000
     24 C8        -0.3068    4.9420    9.4847 C.3       1 RES1    0.0000
     25 H7        -0.6484    5.5550    8.8004 H         1 RES1    0.0000
     26 C9         0.0618    5.7281   10.7115 C.2       1 RES1    0.0000
     27 O9        -3.1775    6.2297   12.0647 O.2       1 RES1    0.0000
     28 C10       -2.6299    4.6953   10.3154 C.3       1 RES1    0.0000
     29 H8        -3.0237    5.1491    9.5402 H         1 RES1    0.0000
     30 C11       -2.3131    5.7456   11.3604 C.2       1 RES1    0.0000
     31 C12        0.9449    4.2645    8.9684 C.2       1 RES1    0.0000
     32 C13        2.7169    4.3244    7.3856 C.3       1 RES1    0.0000
     33 H9         3.2830    3.9801    8.0945 H         1 RES1    0.0000
     34 H10        2.4771    3.5862    6.8030 H         1 RES1    0.0000
     35 C14       -3.6654    3.7675   10.8857 C.2       1 RES1    0.0000
     36 C15       -4.0653    2.1152   12.5795 C.3       1 RES1    0.0000
     37 H11       -3.9440    2.1705   13.5397 H         1 RES1    0.0000
     38 H12       -4.9926    2.3187   12.3776 H         1 RES1    0.0000
     39 C16        3.4218    5.3120    6.6458 C.3       1 RES1    0.0000
     40 H13        4.2166    4.9245    6.2697 H         1 RES1    0.0000
     41 H14        3.6650    6.0355    7.2268 H         1 RES1    0.0000
     42 H15        2.8627    5.6434    5.9383 H         1 RES1    0.0000
     43 C17       -3.7513    0.7815   12.1279 C.3       1 RES1    0.0000
     44 H16       -4.3273    0.1519   12.5656 H         1 RES1    0.0000
     45 H17       -2.8359    0.5799   12.3375 H         1 RES1    0.0000
     46 H18       -3.8801    0.7272   11.1770 H         1 RES1    0.0000
@<TRIPOS>BOND
     1    1    2 1
     2    3    7 ar
     3    4    8 2
     4    5    6 1
     5    7    1 1
     6    9    7 ar
     7   10    9 1
     8   11    4 2
     9   12   35 2
    10   13    9 ar
    11   14   13 1
    12   15   35 1
    13   16    4 1
    14   17   31 2
    15   18    3 ar
    16   19   18 1
    17   20   31 1
    18   21    3 1
    19   22   21 1
    20   23   26 2
    21   24   21 1
    22   25   24 1
    23   26    5 1
    24   27   30 2
    25   28   21 1
    26   29   28 1
    27   30    5 1
    28   31   24 1
    29   32   20 1
    30   33   32 1
    31   34   32 1
    32   35   28 1
    33   36   15 1
    34   37   36 1
    35   38   36 1
    36   39   32 1
    37   40   39 1
    38   41   39 1
    39   42   39 1
    40   43   36 1
    41   44   43 1
    42   45   43 1
    43   46   43 1
    44   13   16 ar
    45   16   18 ar
    46   24   26 1
    47   28   30 1
@<TRIPOS>SUBSTRUCTURE
     1 RES1 1

@<TRIPOS>CRYSIN
  26.1420    9.2047   17.3831  90.0000 117.5480  90.0000  15 1

