# MOL2 file generated by ConQuest
# Please check atom types

@<TRIPOS>MOLECULE
DALYEU
    22    25     1
SMALL
NO_CHARGES
****
Generated from CSD

@<TRIPOS>ATOM
      1 C1         0.7916    6.3525    5.7849 C.3       1 RES1    0.0000
      2 C2         0.7870    7.0388    7.1347 C.3       1 RES1    0.0000
      3 C3         2.0209    6.5660    7.9345 C.3       1 RES1    0.0000
      4 C4         2.7438    5.4831    7.1472 C.3       1 RES1    0.0000
      5 C5         3.2798    6.0398    5.8420 C.3       1 RES1    0.0000
      6 C6         4.1548    4.9798    5.0689 C.3       1 RES1    0.0000
      7 C7         4.3506    5.3992    3.6780 C.2       1 RES1    0.0000
      8 C8         3.3424    5.8263    2.9371 C.2       1 RES1    0.0000
      9 C9         2.0304    5.8873    3.5763 C.3       1 RES1    0.0000
     10 C10        2.0917    6.5416    4.9743 C.3       1 RES1    0.0000
     11 O1         0.6754    4.8791    5.9866 O.3       1 RES1    0.0000
     12 N1         1.7623    4.4444    6.8204 N.am      1 RES1    0.0000
     13 C11        2.1644    8.0226    4.6850 C.2       1 RES1    0.0000
     14 O2         3.0624    8.7356    4.9743 O.2       1 RES1    0.0000
     15 C12        1.4356    3.3478    7.5864 C.2       1 RES1    0.0000
     16 O3         0.3129    2.8331    7.5435 O.2       1 RES1    0.0000
     17 C13        2.4948    2.7782    8.4327 C.ar      1 RES1    0.0000
     18 C14        2.1893    2.4479    9.7414 C.ar      1 RES1    0.0000
     19 C15        3.0890    1.7997   10.5359 C.ar      1 RES1    0.0000
     20 C16        4.3337    1.4566   10.0414 C.ar      1 RES1    0.0000
     21 C17        4.6370    1.7845    8.7344 C.ar      1 RES1    0.0000
     22 C18        3.7575    2.4403    7.8953 C.ar      1 RES1    0.0000
@<TRIPOS>BOND
     1    1    2 1
     2    2    3 1
     3    3    4 1
     4    4    5 1
     5    5    6 1
     6    6    7 1
     7    7    8 2
     8    8    9 1
     9    9   10 1
    10   10    1 1
    11   11    1 1
    12   12    4 1
    13   13   10 1
    14   14   13 2
    15   15   12 1
    16   16   15 2
    17   17   15 1
    18   18   17 ar
    19   19   18 ar
    20   20   19 ar
    21   21   20 ar
    22   22   17 ar
    23    5   10 1
    24   11   12 1
    25   21   22 ar
@<TRIPOS>SUBSTRUCTURE
     1 RES1 1

@<TRIPOS>CRYSIN
  11.0310    7.6260   17.8550  90.0000  90.4300  90.0000  14 1

