# MOL2 file generated by ConQuest
# Please check atom types

@<TRIPOS>MOLECULE
DALYOE
    23    26     1
SMALL
NO_CHARGES
****
Generated from CSD

@<TRIPOS>ATOM
      1 O1         6.5226    2.0367    0.3589 O.3       1 RES1    0.0000
      2 O2         7.7409    6.4124    2.2637 O.3       1 RES1    0.0000
      3 N1         5.1831    2.4494    0.0680 N.2       1 RES1    0.0000
      4 N2         6.9973    3.7247    1.8981 N.3       1 RES1    0.0000
      5 C1         3.0587    3.0871    0.7222 C.ar      1 RES1    0.0000
      6 C2         2.9367    3.9696   -0.3098 C.ar      1 RES1    0.0000
      7 C3         1.6766    4.4915   -0.6732 C.ar      1 RES1    0.0000
      8 C4         0.5670    4.1347    0.0546 C.ar      1 RES1    0.0000
      9 C5         0.6849    3.2375    1.0889 C.ar      1 RES1    0.0000
     10 C6         1.9243    2.7010    1.4500 C.ar      1 RES1    0.0000
     11 C7         4.3704    2.5426    1.0755 C.2       1 RES1    0.0000
     12 C8         4.7003    2.2258    2.5144 C.3       1 RES1    0.0000
     13 C9         6.0595    1.5655    2.6838 C.3       1 RES1    0.0000
     14 C10        6.0295    0.0626    2.4320 C.3       1 RES1    0.0000
     15 C11        7.4387   -0.5152    2.5401 C.3       1 RES1    0.0000
     16 C12        8.3914    0.1185    1.5314 C.3       1 RES1    0.0000
     17 C13        9.7920   -0.4832    1.6239 C.3       1 RES1    0.0000
     18 C14        8.3955    1.6241    1.6807 C.3       1 RES1    0.0000
     19 C15        6.9901    2.2724    1.6807 C.3       1 RES1    0.0000
     20 C16        7.5881    4.1640    3.1653 C.3       1 RES1    0.0000
     21 C17        7.2578    5.6203    3.3570 C.3       1 RES1    0.0000
     22 C18        7.1932    5.8985    1.0131 C.3       1 RES1    0.0000
     23 C19        7.5463    4.4755    0.7891 C.3       1 RES1    0.0000
@<TRIPOS>BOND
     1    1    3 1
     2    2   21 1
     3    3   11 2
     4    4   19 1
     5    5    6 ar
     6    6    7 ar
     7    7    8 ar
     8    8    9 ar
     9    9   10 ar
    10   10    5 ar
    11   11    5 1
    12   12   11 1
    13   13   12 1
    14   14   13 1
    15   15   14 1
    16   16   15 1
    17   17   16 1
    18   18   16 1
    19   19    1 1
    20   20    4 1
    21   21   20 1
    22   22    2 1
    23   23    4 1
    24   13   19 1
    25   18   19 1
    26   22   23 1
@<TRIPOS>SUBSTRUCTURE
     1 RES1 1

@<TRIPOS>CRYSIN
  11.2610   13.3120   11.7000  90.0000 107.7100  90.0000  14 1

