# MOL2 file generated by ConQuest
# Please check atom types

@<TRIPOS>MOLECULE
DALYIY
    46    52     2
SMALL
NO_CHARGES
****
Generated from CSD

@<TRIPOS>ATOM
      1 O1         3.8695   14.0658    2.2245 O.3       1 RES1    0.0000
      2 O2         5.8285   18.1377    3.2146 O.3       1 RES1    0.0000
      3 N1         3.0643   12.8954    2.1052 N.2       1 RES1    0.0000
      4 N2         5.7381   15.2682    2.8871 N.3       1 RES1    0.0000
      5 C1         2.5803   10.6456    2.4517 C.ar      1 RES1    0.0000
      6 C2         3.1230    9.3513    2.5747 C.ar      1 RES1    0.0000
      7 C3         2.2782    8.2280    2.4015 C.ar      1 RES1    0.0000
      8 C4         0.9436    8.4305    2.1573 C.ar      1 RES1    0.0000
      9 C5         0.4102    9.6776    2.0721 C.ar      1 RES1    0.0000
     10 C6         1.2319   10.7824    2.2150 C.ar      1 RES1    0.0000
     11 C7         3.5134   11.8461    2.6751 C.2       1 RES1    0.0000
     12 C8         4.7408   11.6610    3.4560 C.3       1 RES1    0.0000
     13 C9         5.4339   13.0234    3.8138 C.3       1 RES1    0.0000
     14 C10        6.9232   12.8384    4.1792 C.3       1 RES1    0.0000
     15 C11        7.7921   12.3584    2.9647 C.3       1 RES1    0.0000
     16 C12        7.5254   13.2151    1.6802 C.3       1 RES1    0.0000
     17 C13        8.2561   12.5981    0.4676 C.3       1 RES1    0.0000
     18 C14        6.0321   13.3313    1.3764 C.3       1 RES1    0.0000
     19 C15        5.2804   13.9374    2.5908 C.3       1 RES1    0.0000
     20 C16        5.0332   15.9722    4.0060 C.3       1 RES1    0.0000
     21 C17        5.8290   17.2397    4.3714 C.3       1 RES1    0.0000
     22 C18        6.5183   17.4763    2.1573 C.3       1 RES1    0.0000
     23 C19        5.8217   16.1902    1.7446 C.3       1 RES1    0.0000
     24 O3         3.4253   13.3268    6.9925 O.3       2 RES2    0.0000
     25 O4         1.0380    9.3395    7.1317 O.3       2 RES2    0.0000
     26 N3         4.2723   14.4210    7.1828 N.2       2 RES2    0.0000
     27 N4         1.3863   12.1918    6.9490 N.3       2 RES2    0.0000
     28 C20        4.6606   16.6620    7.7252 C.ar      2 RES2    0.0000
     29 C21        4.1769   17.9886    7.7327 C.ar      2 RES2    0.0000
     30 C22        5.0987   19.0547    7.8501 C.ar      2 RES2    0.0000
     31 C23        6.4489   18.8403    7.9817 C.ar      2 RES2    0.0000
     32 C24        6.9316   17.5613    7.9770 C.ar      2 RES2    0.0000
     33 C25        6.0531   16.4566    7.8482 C.ar      2 RES2    0.0000
     34 C26        3.7257   15.5246    7.6125 C.2       2 RES2    0.0000
     35 C27        2.2763   15.7470    7.9789 C.3       2 RES2    0.0000
     36 C28        1.4703   14.3992    8.0404 C.3       2 RES2    0.0000
     37 C29       -0.0652   14.6881    7.8549 C.3       2 RES2    0.0000
     38 C30       -0.4282   15.2300    6.5012 C.3       2 RES2    0.0000
     39 C31        0.1711   14.3922    5.3322 C.3       2 RES2    0.0000
     40 C32       -0.1224   15.1609    3.9975 C.3       2 RES2    0.0000
     41 C33        1.6618   14.1877    5.5508 C.3       2 RES2    0.0000
     42 C34        1.9380   13.5195    6.8837 C.3       2 RES2    0.0000
     43 C35        1.6867   11.4737    8.2089 C.3       2 RES2    0.0000
     44 C36        0.7939   10.2135    8.2685 C.3       2 RES2    0.0000
     45 C37        0.7671   10.0527    5.9389 C.3       2 RES2    0.0000
     46 C38        1.6352   11.3067    5.8045 C.3       2 RES2    0.0000
@<TRIPOS>BOND
     1    1    3 1
     2    2   21 1
     3    3   11 2
     4    4   19 1
     5    5    6 ar
     6    6    7 ar
     7    7    8 ar
     8    8    9 ar
     9    9   10 ar
    10   10    5 ar
    11   11    5 1
    12   12   11 1
    13   13   12 1
    14   14   13 1
    15   15   14 1
    16   16   15 1
    17   17   16 1
    18   18   16 1
    19   19    1 1
    20   20    4 1
    21   21   20 1
    22   22    2 1
    23   23    4 1
    24   24   26 1
    25   25   44 1
    26   26   34 2
    27   27   42 1
    28   28   29 ar
    29   29   30 ar
    30   30   31 ar
    31   31   32 ar
    32   32   33 ar
    33   33   28 ar
    34   34   28 1
    35   35   34 1
    36   36   35 1
    37   37   36 1
    38   38   37 1
    39   39   38 1
    40   40   39 1
    41   41   39 1
    42   42   24 1
    43   43   27 1
    44   44   43 1
    45   45   25 1
    46   46   27 1
    47   13   19 1
    48   18   19 1
    49   22   23 1
    50   36   42 1
    51   41   42 1
    52   45   46 1
@<TRIPOS>SUBSTRUCTURE
     1 RES1 1
     2 RES2 24

@<TRIPOS>CRYSIN
  10.1590   18.2970    9.5610  89.0800  98.0700  93.0700   2 1

