# MOL2 file generated by ConQuest
# Please check atom types

@<TRIPOS>MOLECULE
DAMPCX
    43    44     1
SMALL
NO_CHARGES
****
Generated from CSD

@<TRIPOS>ATOM
      1 C1         6.5128   -0.4967    4.4091 C.2       1 RES1    0.0000
      2 C2         7.3420   -0.9425    3.3949 C.2       1 RES1    0.0000
      3 C3         8.0724   -2.2558    3.5580 C.3       1 RES1    0.0000
      4 C4         7.5983   -3.0663    4.8083 C.3       1 RES1    0.0000
      5 C5         7.4328   -2.1540    6.0456 C.3       1 RES1    0.0000
      6 C6         6.3433   -1.1538    5.7232 C.3       1 RES1    0.0000
      7 O1         5.8389    0.6243    4.3003 O.3       1 RES1    0.0000
      8 C7         7.5821   -0.0888    2.2926 C.2       1 RES1    0.0000
      9 O2         6.9123    0.9563    2.1145 O.2       1 RES1    0.0000
     10 C8         8.6999   -0.3734    1.3441 C.3       1 RES1    0.0000
     11 C9         8.5667   -4.2097    5.0633 C.2       1 RES1    0.0000
     12 O3         9.7147   -3.9864    5.3389 O.2       1 RES1    0.0000
     13 C10        8.0442   -5.5903    4.9733 C.3       1 RES1    0.0000
     14 O4         8.6394   -1.4159    6.2949 O.3       1 RES1    0.0000
     15 C11        7.0898   -2.9758    7.2941 C.3       1 RES1    0.0000
     16 C12        7.8969   -3.1991    2.3714 C.ar      1 RES1    0.0000
     17 C13        6.6480   -3.3130    1.7490 C.ar      1 RES1    0.0000
     18 C14        6.4503   -4.2339    0.7330 C.ar      1 RES1    0.0000
     19 C15        7.5075   -5.0013    0.3281 C.ar      1 RES1    0.0000
     20 C16        8.7402   -4.9048    0.9073 C.ar      1 RES1    0.0000
     21 C17        8.9521   -3.9933    1.9233 C.ar      1 RES1    0.0000
     22 N1         7.3481   -5.9956   -0.7480 N.pl3     1 RES1    0.0000
     23 O5         6.2303   -6.1741   -1.1716 O.2       1 RES1    0.0000
     24 O6         8.3408   -6.6078   -1.1379 O.2       1 RES1    0.0000
     25 H1         9.1196   -2.2075    3.7867 H         1 RES1    0.0000
     26 H2         6.6581   -3.5441    4.5553 H         1 RES1    0.0000
     27 H3         5.4072   -1.6901    5.7175 H         1 RES1    0.0000
     28 H4         6.3353   -0.5001    6.4674 H         1 RES1    0.0000
     29 H5         5.9519    1.0175    3.5430 H         1 RES1    0.0000
     30 H6         8.9783    0.4312    0.9748 H         1 RES1    0.0000
     31 H7         8.3529   -0.8364    0.6374 H         1 RES1    0.0000
     32 H8         9.4222   -0.8278    1.6684 H         1 RES1    0.0000
     33 H9         7.2230   -5.7947    5.4738 H         1 RES1    0.0000
     34 H10        7.5256   -5.6308    4.2553 H         1 RES1    0.0000
     35 H11        8.6959   -6.1827    5.0427 H         1 RES1    0.0000
     36 H12        9.1599   -2.0954    6.3174 H         1 RES1    0.0000
     37 H13        6.2344   -3.6389    7.0860 H         1 RES1    0.0000
     38 H14        7.7072   -3.6562    7.5359 H         1 RES1    0.0000
     39 H15        6.7388   -2.3627    7.9108 H         1 RES1    0.0000
     40 H16        5.8712   -2.6904    1.9308 H         1 RES1    0.0000
     41 H17        5.5282   -4.3546    0.2437 H         1 RES1    0.0000
     42 H18        9.5029   -5.4929    0.6374 H         1 RES1    0.0000
     43 H19        9.8055   -3.8200    2.3807 H         1 RES1    0.0000
@<TRIPOS>BOND
     1    1    2 2
     2    2    3 1
     3    3    4 1
     4    4    5 1
     5    5    6 1
     6    6    1 1
     7    7    1 1
     8    8    2 1
     9    9    8 2
    10   10    8 1
    11   11    4 1
    12   12   11 2
    13   13   11 1
    14   14    5 1
    15   15    5 1
    16   16    3 1
    17   17   16 ar
    18   18   17 ar
    19   19   18 ar
    20   20   19 ar
    21   21   16 ar
    22   22   19 1
    23   23   22 2
    24   24   22 2
    25   25    3 1
    26   26    4 1
    27   27    6 1
    28   28    6 1
    29   29    7 1
    30   30   10 1
    31   31   10 1
    32   32   10 1
    33   33   13 1
    34   34   13 1
    35   35   13 1
    36   36   14 1
    37   37   15 1
    38   38   15 1
    39   39   15 1
    40   40   17 1
    41   41   18 1
    42   42   20 1
    43   43   21 1
    44   20   21 ar
@<TRIPOS>SUBSTRUCTURE
     1 RES1 1

@<TRIPOS>CRYSIN
  20.1760    8.6230   18.7460  90.0000  90.0000  90.0000  61 1

