# MOL2 file generated by ConQuest
# Please check atom types

@<TRIPOS>MOLECULE
DANDIH
   100    97     2
SMALL
NO_CHARGES
****
Generated from CSD

@<TRIPOS>ATOM
      1 O1        13.6500    2.7359    2.5008 O.3       1 RES1    0.0000
      2 O2        14.8319    4.0686    4.5598 O.3       1 RES1    0.0000
      3 O3        17.3713    4.6273    3.2639 O.3       1 RES1    0.0000
      4 O4        17.3950    3.6036    0.5830 O.3       1 RES1    0.0000
      5 O5        13.9095    4.5583    1.0641 O.3       1 RES1    0.0000
      6 O6        15.1301    5.9802   -0.9388 O.3       1 RES1    0.0000
      7 O7        14.0593    4.6672   -3.1493 O.3       1 RES1    0.0000
      8 O8        15.4894    6.0454    5.4014 O.2       1 RES1    0.0000
      9 O9        14.6259    1.5242   10.9497 O.2       1 RES1    0.0000
     10 O10       16.2494    2.8486   11.4730 O.2       1 RES1    0.0000
     11 O11       17.9521    2.7164    4.2757 O.2       1 RES1    0.0000
     12 O12       22.5916    7.9699    6.0611 O.2       1 RES1    0.0000
     13 O13       23.6368    6.1279    6.3571 O.2       1 RES1    0.0000
     14 O14       18.6005    5.4312    0.0798 O.2       1 RES1    0.0000
     15 O15       22.0840   -0.5370   -2.0702 O.2       1 RES1    0.0000
     16 O16       23.1257    1.1571   -2.9228 O.2       1 RES1    0.0000
     17 O17       12.4519    3.3329   -3.9607 O.2       1 RES1    0.0000
     18 O18       13.8325    8.3743   -8.9170 O.2       1 RES1    0.0000
     19 O19       13.6275    6.5391  -10.0267 O.2       1 RES1    0.0000
     20 N1        15.4360    2.3881   10.6847 N.pl3     1 RES1    0.0000
     21 N2        22.6808    6.7635    5.9821 N.pl3     1 RES1    0.0000
     22 N3        22.2290    0.6706   -2.2691 N.pl3     1 RES1    0.0000
     23 N4        13.6884    7.1649   -8.9815 N.pl3     1 RES1    0.0000
     24 C1        13.7470    4.1090    2.4092 C.3       1 RES1    0.0000
     25 H1        12.9194    4.5194    2.7920 H         1 RES1    0.0000
     26 C2        14.9485    4.5782    3.2142 C.3       1 RES1    0.0000
     27 H2        14.9844    5.5779    3.2274 H         1 RES1    0.0000
     28 C3        16.2312    4.0169    2.6207 C.3       1 RES1    0.0000
     29 H3        16.2594    3.0237    2.7331 H         1 RES1    0.0000
     30 C4        16.3236    4.3853    1.1486 C.3       1 RES1    0.0000
     31 H4        16.5115    5.3626    1.0447 H         1 RES1    0.0000
     32 C5        15.0500    4.0036    0.3999 C.3       1 RES1    0.0000
     33 H5        14.9673    3.0082    0.3650 H         1 RES1    0.0000
     34 C6        15.0808    4.5668   -1.0200 C.3       1 RES1    0.0000
     35 H6        15.9130    4.2457   -1.4715 H         1 RES1    0.0000
     36 C7        13.8850    4.0959   -1.8252 C.3       1 RES1    0.0000
     37 H7        13.8626    3.1068   -1.8724 H         1 RES1    0.0000
     38 H8        13.0413    4.4143   -1.4154 H         1 RES1    0.0000
     39 C8        12.2844    2.3777    2.1756 C.3       1 RES1    0.0000
     40 H9        12.0454    2.6982    1.2703 H         1 RES1    0.0000
     41 H10       11.6538    2.7773    2.8280 H         1 RES1    0.0000
     42 C9        12.2272    0.9145    2.2359 C.3       1 RES1    0.0000
     43 H11       11.3125    0.6149    2.0549 H         1 RES1    0.0000
     44 H12       12.4977    0.6136    3.1283 H         1 RES1    0.0000
     45 H13       12.8330    0.5357    1.5663 H         1 RES1    0.0000
     46 C10       16.0229    6.6144   -1.8550 C.3       1 RES1    0.0000
     47 H14       16.3647    7.4433   -1.4585 H         1 RES1    0.0000
     48 H15       15.5448    6.8219   -2.6857 H         1 RES1    0.0000
     49 H16       16.7726    6.0125   -2.0506 H         1 RES1    0.0000
     50 C11       15.2161    4.8885    5.5509 C.2       1 RES1    0.0000
     51 C12       15.2740    4.1823    6.8665 C.ar      1 RES1    0.0000
     52 C13       14.7597    2.9069    7.0548 C.ar      1 RES1    0.0000
     53 H17       14.3862    2.4361    6.3183 H         1 RES1    0.0000
     54 C14       14.7865    2.3111    8.3176 C.ar      1 RES1    0.0000
     55 H18       14.3965    1.4580    8.4695 H         1 RES1    0.0000
     56 C15       15.3995    3.0082    9.3337 C.ar      1 RES1    0.0000
     57 C16       15.9468    4.2587    9.1722 C.ar      1 RES1    0.0000
     58 H19       16.3756    4.6984    9.8964 H         1 RES1    0.0000
     59 C17       15.8594    4.8645    7.9277 C.ar      1 RES1    0.0000
     60 H20       16.1974    5.7440    7.8013 H         1 RES1    0.0000
     61 C18       18.1704    3.8558    4.0170 C.2       1 RES1    0.0000
     62 C19       19.3510    4.6388    4.5068 C.ar      1 RES1    0.0000
     63 C20       19.3865    6.0254    4.4319 C.ar      1 RES1    0.0000
     64 H21       18.6547    6.4963    4.0494 H         1 RES1    0.0000
     65 C21       20.4791    6.7246    4.9113 C.ar      1 RES1    0.0000
     66 H22       20.5090    7.6742    4.8756 H         1 RES1    0.0000
     67 C22       21.5228    5.9982    5.4432 C.ar      1 RES1    0.0000
     68 C23       21.5398    4.6284    5.5090 C.ar      1 RES1    0.0000
     69 H23       22.2915    4.1666    5.8614 H         1 RES1    0.0000
     70 C24       20.4307    3.9372    5.0476 C.ar      1 RES1    0.0000
     71 H24       20.4058    2.9887    5.0984 H         1 RES1    0.0000
     72 C25       18.4636    4.2404    0.0685 C.2       1 RES1    0.0000
     73 C26       19.4266    3.2758   -0.5261 C.ar      1 RES1    0.0000
     74 C27       19.2630    1.9061   -0.3995 C.ar      1 RES1    0.0000
     75 H25       18.5197    1.5605    0.0805 H         1 RES1    0.0000
     76 C28       20.1781    1.0378   -0.9702 C.ar      1 RES1    0.0000
     77 H26       20.0793    0.0973   -0.8837 H         1 RES1    0.0000
     78 C29       21.2356    1.5813   -1.6677 C.ar      1 RES1    0.0000
     79 C30       21.4194    2.9304   -1.8195 C.ar      1 RES1    0.0000
     80 H27       22.1563    3.2676   -2.3150 H         1 RES1    0.0000
     81 C31       20.5092    3.7904   -1.2374 C.ar      1 RES1    0.0000
     82 H28       20.6204    4.7309   -1.3220 H         1 RES1    0.0000
     83 C32       13.2315    4.2356   -4.1011 C.2       1 RES1    0.0000
     84 C33       13.4015    5.0083   -5.3682 C.ar      1 RES1    0.0000
     85 C34       13.8575    6.3174   -5.3600 C.ar      1 RES1    0.0000
     86 H29       14.1103    6.7233   -4.5394 H         1 RES1    0.0000
     87 C35       13.9471    7.0399   -6.5447 C.ar      1 RES1    0.0000
     88 H30       14.2450    7.9414   -6.5483 H         1 RES1    0.0000
     89 C36       13.5873    6.4005   -7.7182 C.ar      1 RES1    0.0000
     90 C37       13.1560    5.0952   -7.7645 C.ar      1 RES1    0.0000
     91 H31       12.9371    4.6816   -8.5916 H         1 RES1    0.0000
     92 C38       13.0485    4.4007   -6.5720 C.ar      1 RES1    0.0000
     93 H32       12.7319    3.5050   -6.5741 H         1 RES1    0.0000
     94 C39       12.4389    1.8939    2.3882 Du        2 SUP2    0.0000
     95 C40       11.8686    1.9172    1.0375 Du        2 SUP2    0.0000
     96 H33       12.6696    0.9612    2.6268 Du        2 SUP2    0.0000
     97 H34       11.7610    2.2143    3.0334 Du        2 SUP2    0.0000
     98 H35       10.9384    1.6085    1.0705 Du        2 SUP2    0.0000
     99 H36       12.3869    1.3270    0.4526 Du        2 SUP2    0.0000
    100 H37       11.8952    2.8318    0.6869 Du        2 SUP2    0.0000
@<TRIPOS>BOND
     1    1   24 1
     2    2   26 1
     3    3   28 1
     4    4   30 1
     5    5   24 1
     6    6   34 1
     7    7   36 1
     8    8   50 2
     9    9   20 2
    10   10   20 2
    11   11   61 2
    12   12   21 2
    13   13   21 2
    14   14   72 2
    15   15   22 2
    16   16   22 2
    17   17   83 2
    18   18   23 2
    19   19   23 2
    20   20   56 1
    21   21   67 1
    22   22   78 1
    23   23   89 1
    24   24   25 1
    25   26   24 1
    26   27   26 1
    27   28   26 1
    28   29   28 1
    29   30   28 1
    30   31   30 1
    31   32    5 1
    32   33   32 1
    33   34   32 1
    34   35   34 1
    35   36   34 1
    36   37   36 1
    37   38   36 1
    38   39    1 1
    39   40   39 1
    40   41   39 1
    41   42   39 1
    42   43   42 1
    43   44   42 1
    44   45   42 1
    45   46    6 1
    46   47   46 1
    47   48   46 1
    48   49   46 1
    49   50    2 1
    50   51   50 1
    51   52   51 ar
    52   53   52 1
    53   54   52 ar
    54   55   54 1
    55   56   54 ar
    56   57   56 ar
    57   58   57 1
    58   59   51 ar
    59   60   59 1
    60   61    3 1
    61   62   61 1
    62   63   62 ar
    63   64   63 1
    64   65   63 ar
    65   66   65 1
    66   67   65 ar
    67   68   67 ar
    68   69   68 1
    69   70   62 ar
    70   71   70 1
    71   72    4 1
    72   73   72 1
    73   74   73 ar
    74   75   74 1
    75   76   74 ar
    76   77   76 1
    77   78   76 ar
    78   79   78 ar
    79   80   79 1
    80   81   73 ar
    81   82   81 1
    82   83    7 1
    83   84   83 1
    84   85   84 ar
    85   86   85 1
    86   87   85 ar
    87   88   87 1
    88   89   87 ar
    89   90   89 ar
    90   91   90 1
    91   92   84 ar
    92   93   92 1
    93   30   32 1
    94   57   59 ar
    95   68   70 ar
    96   79   81 ar
    97   90   92 ar
@<TRIPOS>SUBSTRUCTURE
     1 RES1 1
     2 SUP2 94

@<TRIPOS>CRYSIN
  21.7700   12.9719   14.4182  90.0000  94.7022  90.0000   5 1

