# MOL2 file generated by ConQuest
# Please check atom types

@<TRIPOS>MOLECULE
DANFUV
    35    36     1
SMALL
NO_CHARGES
****
Generated from CSD

@<TRIPOS>ATOM
      1 C1         4.0124    6.0055    2.1599 C.2       1 RES1    0.0000
      2 C2         3.7062    5.8339    3.6068 C.ar      1 RES1    0.0000
      3 C3         4.0856    4.8109    4.4553 C.ar      1 RES1    0.0000
      4 H1         4.6397    4.1040    4.1487 H         1 RES1    0.0000
      5 C4         3.6375    4.8436    5.7511 C.ar      1 RES1    0.0000
      6 H2         3.8542    4.1326    6.3417 H         1 RES1    0.0000
      7 C5         2.8756    5.9020    6.2036 C.ar      1 RES1    0.0000
      8 H3         2.6057    5.9197    7.1146 H         1 RES1    0.0000
      9 C6         2.4940    6.9331    5.3690 C.ar      1 RES1    0.0000
     10 H4         1.9629    7.6509    5.6912 H         1 RES1    0.0000
     11 C7         2.9090    6.8895    4.0471 C.ar      1 RES1    0.0000
     12 C8         2.6571    7.7803    2.8955 C.2       1 RES1    0.0000
     13 C9         1.9300    8.8686    2.6506 C.2       1 RES1    0.0000
     14 H5         2.0519    9.2541    1.7908 H         1 RES1    0.0000
     15 C10        0.9729    9.5565    3.5139 C.2       1 RES1    0.0000
     16 C11       -0.7304   11.3626    3.5226 C.3       1 RES1    0.0000
     17 H6        -0.4778   11.5206    4.4770 H         1 RES1    0.0000
     18 C12       -2.0465   10.6462    3.4913 C.3       1 RES1    0.0000
     19 H7        -2.3113   10.4895    2.5612 H         1 RES1    0.0000
     20 H8        -2.7260   11.1924    3.9377 H         1 RES1    0.0000
     21 H9        -1.9605    9.7867    3.9551 H         1 RES1    0.0000
     22 C13       -0.7858   12.7098    2.8069 C.3       1 RES1    0.0000
     23 H10        0.0594   13.1865    2.9424 H         1 RES1    0.0000
     24 H11       -1.5227   13.2437    3.1708 H         1 RES1    0.0000
     25 H12       -0.9294   12.5654    1.8481 H         1 RES1    0.0000
     26 C14        4.2435    8.5349    0.1259 C.3       1 RES1    0.0000
     27 H13        4.1588    9.3590    0.6514 H         1 RES1    0.0000
     28 H14        4.1418    8.7433   -0.8259 H         1 RES1    0.0000
     29 H15        5.1261    8.1385    0.2814 H         1 RES1    0.0000
     30 N1         3.4244    7.2205    1.8620 N.am      1 RES1    0.0000
     31 N2         0.3234   10.5699    2.8868 N.am      1 RES1    0.0000
     32 H16        0.4828   10.6108    2.0322 H         1 RES1    0.0000
     33 O1         4.6074    5.2809    1.3826 O.2       1 RES1    0.0000
     34 O2         3.2225    7.6032    0.5254 O.3       1 RES1    0.0000
     35 O3         0.7301    9.2514    4.6794 O.2       1 RES1    0.0000
@<TRIPOS>BOND
     1    1    2 1
     2    2    3 ar
     3    3    4 1
     4    5    3 ar
     5    6    5 1
     6    7    5 ar
     7    8    7 1
     8    9    7 ar
     9   10    9 1
    10   11    2 ar
    11   12   11 1
    12   13   12 2
    13   14   13 1
    14   15   13 1
    15   16   17 1
    16   18   16 1
    17   19   18 1
    18   20   18 1
    19   21   18 1
    20   22   16 1
    21   23   22 1
    22   24   22 1
    23   25   22 1
    24   26   27 1
    25   28   26 1
    26   29   26 1
    27   30    1 1
    28   31   15 1
    29   32   31 1
    30   33    1 2
    31   34   26 1
    32   35   15 2
    33    9   11 ar
    34   12   30 1
    35   16   31 1
    36   30   34 1
@<TRIPOS>SUBSTRUCTURE
     1 RES1 1

@<TRIPOS>CRYSIN
  11.6410   13.6210    8.8000  90.0000  99.2800  90.0000  14 1

