# MOL2 file generated by ConQuest
# Please check atom types

@<TRIPOS>MOLECULE
DANKEJ
    45    46     1
SMALL
NO_CHARGES
****
Generated from CSD

@<TRIPOS>ATOM
      1 O1        10.3705    4.8119   -0.6319 O.3       1 RES1    0.0000
      2 O2         8.9946    4.3405    1.8165 O.3       1 RES1    0.0000
      3 O3        11.1473    3.6942    3.5587 O.3       1 RES1    0.0000
      4 O4        13.5772    4.0922    1.9918 O.3       1 RES1    0.0000
      5 O5         9.1893    5.4377   -6.4283 O.2       1 RES1    0.0000
      6 O6         8.2856    6.6069   -4.8351 O.2       1 RES1    0.0000
      7 N1        12.6269    3.4512   -1.4998 N.3       1 RES1    0.0000
      8 N2         9.0988    5.7635   -5.2318 N.pl3     1 RES1    0.0000
      9 C1         9.2795    5.6348   -0.1713 C.3       1 RES1    0.0000
     10 C2         9.3159    5.6393    1.3355 C.3       1 RES1    0.0000
     11 C3         8.8580    4.2835    3.2414 C.3       1 RES1    0.0000
     12 C4        10.1296    4.5791    4.0113 C.3       1 RES1    0.0000
     13 C5        12.4260    3.9804    4.1357 C.3       1 RES1    0.0000
     14 C6        13.5127    3.4343    3.2555 C.3       1 RES1    0.0000
     15 C7        12.8535    3.4156    0.9670 C.3       1 RES1    0.0000
     16 C8        13.0477    4.2123   -0.3098 C.3       1 RES1    0.0000
     17 C9        13.7123    2.6429   -2.0444 C.3       1 RES1    0.0000
     18 C10       11.7376    4.0031   -2.4082 C.ar      1 RES1    0.0000
     19 C11       11.9024    3.8073   -3.7836 C.ar      1 RES1    0.0000
     20 C12       11.0242    4.3441   -4.7084 C.ar      1 RES1    0.0000
     21 C13        9.9734    5.1390   -4.2788 C.ar      1 RES1    0.0000
     22 C14        9.7510    5.3420   -2.9128 C.ar      1 RES1    0.0000
     23 C15       10.5798    4.7487   -1.9786 C.ar      1 RES1    0.0000
     24 H1         8.4162    5.3055   -0.5375 H         1 RES1    0.0000
     25 H2         9.4018    6.5028   -0.4061 H         1 RES1    0.0000
     26 H3        10.2118    5.9553    1.7064 H         1 RES1    0.0000
     27 H4         8.5718    6.2535    1.6289 H         1 RES1    0.0000
     28 H5         8.5683    3.4094    3.4433 H         1 RES1    0.0000
     29 H6         8.1846    4.8960    3.5231 H         1 RES1    0.0000
     30 H7        10.3887    5.5725    3.9291 H         1 RES1    0.0000
     31 H8        10.0201    4.4064    5.0182 H         1 RES1    0.0000
     32 H9        12.4865    3.5073    5.1543 H         1 RES1    0.0000
     33 H10       12.4331    4.9405    4.1850 H         1 RES1    0.0000
     34 H11       14.4314    3.5207    3.6240 H         1 RES1    0.0000
     35 H12       13.4148    2.5059    3.0818 H         1 RES1    0.0000
     36 H13       11.8854    3.3738    1.2463 H         1 RES1    0.0000
     37 H14       13.1882    2.4524    0.8591 H         1 RES1    0.0000
     38 H15       12.4948    5.0963   -0.2371 H         1 RES1    0.0000
     39 H16       14.0511    4.4732   -0.3732 H         1 RES1    0.0000
     40 H17       13.4053    1.8738   -2.6030 H         1 RES1    0.0000
     41 H18       14.2813    2.3011   -1.3825 H         1 RES1    0.0000
     42 H19       14.3358    3.1646   -2.6734 H         1 RES1    0.0000
     43 H20       12.5945    3.3159   -4.0934 H         1 RES1    0.0000
     44 H21       11.0876    4.1852   -5.6496 H         1 RES1    0.0000
     45 H22        9.1082    5.8173   -2.6922 H         1 RES1    0.0000
@<TRIPOS>BOND
     1    1    9 1
     2    2   10 1
     3    3   12 1
     4    4   14 1
     5    5    8 2
     6    6    8 2
     7    7   16 1
     8    8   21 1
     9    9   10 1
    10   10   26 1
    11   11    2 1
    12   12   11 1
    13   13    3 1
    14   14   13 1
    15   15    4 1
    16   16   15 1
    17   17    7 1
    18   18    7 1
    19   19   18 ar
    20   20   19 ar
    21   21   20 ar
    22   22   21 ar
    23   23    1 1
    24   24    9 1
    25   25    9 1
    26   27   10 1
    27   28   11 1
    28   29   11 1
    29   30   12 1
    30   31   12 1
    31   32   13 1
    32   33   13 1
    33   34   14 1
    34   35   14 1
    35   36   15 1
    36   37   15 1
    37   38   16 1
    38   39   16 1
    39   40   17 1
    40   41   17 1
    41   42   17 1
    42   43   19 1
    43   44   20 1
    44   45   22 1
    45   18   23 ar
    46   22   23 ar
@<TRIPOS>SUBSTRUCTURE
     1 RES1 1

@<TRIPOS>CRYSIN
  15.0550    4.4509   23.6680  90.0000  97.3900  90.0000 231 1

