# MOL2 file generated by ConQuest
# Please check atom types

@<TRIPOS>MOLECULE
DANSOD
    50    52     1
SMALL
USER_CHARGES
****
Generated from CSD

@<TRIPOS>ATOM
      1 O1        -0.6138    5.9126    5.5336 O.3       1 RES1    0.0000
      2 O2         0.7654   10.7024    6.3213 O.3       1 RES1    0.0000
      3 O3         3.2581    5.9702    0.4311 O.2       1 RES1   -1.0000
      4 O4        -0.9576    7.4997   -0.7444 O.2       1 RES1    0.0000
      5 O5         0.6626   10.9660    8.5491 O.2       1 RES1    0.0000
      6 N1         0.2412    7.0651   -0.8091 N.3       1 RES1    0.0000
      7 N2         2.2705    6.4461   -0.2390 N.pl3     1 RES1    1.0000
      8 N3        -0.2175    6.8939    8.9659 N.ar      1 RES1    0.0000
      9 C1         1.0326    6.7123    0.2324 C.2       1 RES1    0.0000
     10 C2        -0.1878    6.2079    4.2433 C.ar      1 RES1    0.0000
     11 C3         0.5992    6.5741    1.6170 C.ar      1 RES1    0.0000
     12 C4         1.5293    6.6881    2.6590 C.ar      1 RES1    0.0000
     13 C5        -1.1271    6.0920    3.2323 C.ar      1 RES1    0.0000
     14 C6         2.3987    6.8496   -1.6848 C.3       1 RES1    0.0000
     15 C7        -0.7373    6.2765    1.9148 C.ar      1 RES1    0.0000
     16 C8        -0.4211    6.1915    7.8465 C.ar      1 RES1    0.0000
     17 C9         0.0517    8.0758    6.4407 C.ar      1 RES1    0.0000
     18 C10        0.9094    6.7568   -2.1148 C.3       1 RES1    0.0000
     19 C11       -0.2964    6.7448    6.5755 C.ar      1 RES1    0.0000
     20 C12        0.2631    8.8111    7.6028 C.ar      1 RES1    0.0000
     21 C13        0.1221    8.1793    8.8306 C.ar      1 RES1    0.0000
     22 C14        1.1403    6.5063    3.9713 C.ar      1 RES1    0.0000
     23 C15        0.4795    5.3378   -2.4968 C.3       1 RES1    0.0000
     24 C16        0.4717    7.7450   -3.1775 C.3       1 RES1    0.0000
     25 C17        0.5869   10.2658    7.5668 C.2       1 RES1    0.0000
     26 C18        2.9457    8.2766   -1.6969 C.3       1 RES1    0.0000
     27 C19        1.0223   12.1244    6.1808 C.3       1 RES1    0.0000
     28 C20        3.3392    5.9054   -2.4057 C.3       1 RES1    0.0000
     29 H1         2.3530    8.8993   -1.2224 H         1 RES1    0.0000
     30 H2         2.4387    6.8818    2.4479 H         1 RES1    0.0000
     31 H3         0.1406    8.4715    5.5757 H         1 RES1    0.0000
     32 H4         0.7753    4.6776   -1.8426 H         1 RES1    0.0000
     33 H5         1.7894    6.5772    4.6940 H         1 RES1    0.0000
     34 H6         0.2627    8.6810    9.6541 H         1 RES1    0.0000
     35 H7        -0.5062    7.6388   -3.3670 H         1 RES1    0.0000
     36 H8         0.8520    5.1107   -3.3789 H         1 RES1    0.0000
     37 H9        -1.3846    6.2110    1.2075 H         1 RES1    0.0000
     38 H10        1.2603   12.2390    5.2574 H         1 RES1    0.0000
     39 H11        3.0993    4.9857   -2.2491 H         1 RES1    0.0000
     40 H12        0.6327    8.6617   -2.9127 H         1 RES1    0.0000
     41 H13        3.0456    8.5736   -2.6332 H         1 RES1    0.0000
     42 H14        3.8271    8.2832   -1.2643 H         1 RES1    0.0000
     43 H15        0.2074   12.6298    6.4276 H         1 RES1    0.0000
     44 H16       -0.6705    5.2569    7.9220 H         1 RES1    0.0000
     45 H17       -2.0455    5.8889    3.4761 H         1 RES1    0.0000
     46 H18       -0.5028    5.3026   -2.5435 H         1 RES1    0.0000
     47 H19        0.9647    7.5666   -3.9916 H         1 RES1    0.0000
     48 H20        3.3005    6.0878   -3.3744 H         1 RES1    0.0000
     49 H21        1.7668   12.3869    6.7668 H         1 RES1    0.0000
     50 H22        4.2270    6.0438   -2.0608 H         1 RES1    0.0000
@<TRIPOS>BOND
     1    1   10 1
     2    2   25 1
     3    3    7 1
     4    4    6 1
     5    5   25 2
     6    6    9 1
     7    7    9 2
     8    8   16 ar
     9    9   11 1
    10   10   13 ar
    11   11   12 ar
    12   12   22 ar
    13   13   15 ar
    14   14    7 1
    15   15   11 ar
    16   16   19 ar
    17   17   19 ar
    18   18    6 1
    19   19    1 1
    20   20   17 ar
    21   21    8 ar
    22   22   10 ar
    23   23   18 1
    24   24   18 1
    25   25   20 1
    26   26   14 1
    27   27    2 1
    28   28   14 1
    29   29   26 1
    30   30   12 1
    31   31   17 1
    32   32   23 1
    33   33   22 1
    34   34   21 1
    35   35   24 1
    36   36   23 1
    37   37   15 1
    38   38   27 1
    39   39   28 1
    40   40   24 1
    41   41   26 1
    42   42   26 1
    43   43   27 1
    44   44   16 1
    45   45   13 1
    46   46   23 1
    47   47   24 1
    48   48   28 1
    49   49   27 1
    50   50   28 1
    51   14   18 1
    52   20   21 ar
@<TRIPOS>SUBSTRUCTURE
     1 RES1 1

@<TRIPOS>CRYSIN
   7.0466   17.6050   15.2440  90.0000 101.3790  90.0000 231 1

