# MOL2 file generated by ConQuest
# Please check atom types

@<TRIPOS>MOLECULE
DAPHUY
    27    28     1
SMALL
NO_CHARGES
****
Generated from CSD

@<TRIPOS>ATOM
      1 C1         4.3395    5.7172    5.2437 C.3       1 RES1    0.0000
      2 H1         4.8054    6.5232    4.9715 H         1 RES1    0.0000
      3 H2         3.7608    5.9367    5.9915 H         1 RES1    0.0000
      4 C2         3.5262    5.1998    4.1131 C.3       1 RES1    0.0000
      5 H3         3.0295    4.3728    4.2832 H         1 RES1    0.0000
      6 C3         2.8538    6.2013    3.2240 C.3       1 RES1    0.0000
      7 H4         1.9693    5.9864    2.8887 H         1 RES1    0.0000
      8 H5         3.0033    7.1422    3.4094 H         1 RES1    0.0000
      9 C4         4.0035    5.4030    2.7140 C.3       1 RES1    0.0000
     10 H6         4.8492    5.8592    2.5880 H         1 RES1    0.0000
     11 H7         3.8159    4.7041    2.0685 H         1 RES1    0.0000
     12 C5         6.3752    5.1245    6.3269 C.2       1 RES1    0.0000
     13 C6         7.2572    4.0013    6.7599 C.ar      1 RES1    0.0000
     14 C7         8.4257    4.3286    7.4640 C.ar      1 RES1    0.0000
     15 H8         8.6165    5.2176    7.6593 H         1 RES1    0.0000
     16 C8         9.2957    3.3303    7.8689 C.ar      1 RES1    0.0000
     17 H9        10.0696    3.5389    8.3405 H         1 RES1    0.0000
     18 C9         8.9932    2.0200    7.5596 C.ar      1 RES1    0.0000
     19 C10        7.8338    1.6601    6.8870 C.ar      1 RES1    0.0000
     20 H10        7.6441    0.7672    6.7095 H         1 RES1    0.0000
     21 C11        6.9690    2.6592    6.4875 C.ar      1 RES1    0.0000
     22 H11        6.1881    2.4382    6.0331 H         1 RES1    0.0000
     23 N1         9.9481    0.9604    7.9576 N.pl3     1 RES1    0.0000
     24 O1         5.3029    4.6992    5.6454 O.3       1 RES1    0.0000
     25 O2         6.5978    6.2878    6.5643 O.2       1 RES1    0.0000
     26 O3         9.6695   -0.2087    7.6989 O.2       1 RES1    0.0000
     27 O4        10.9808    1.3035    8.5380 O.2       1 RES1    0.0000
@<TRIPOS>BOND
     1    1    2 1
     2    3    1 1
     3    4    1 1
     4    5    4 1
     5    6    4 1
     6    7    6 1
     7    8    6 1
     8    9    4 1
     9   10    9 1
    10   11    9 1
    11   12   13 1
    12   13   14 ar
    13   14   15 1
    14   16   14 ar
    15   17   16 1
    16   18   16 ar
    17   19   18 ar
    18   20   19 1
    19   21   13 ar
    20   22   21 1
    21   23   18 1
    22   24    1 1
    23   25   12 2
    24   26   23 2
    25   27   23 2
    26    6    9 1
    27   12   24 1
    28   19   21 ar
@<TRIPOS>SUBSTRUCTURE
     1 RES1 1

@<TRIPOS>CRYSIN
  11.5030    7.7574   12.7370  90.0000 111.0400  90.0000  14 1

