# MOL2 file generated by ConQuest
# Please check atom types

@<TRIPOS>MOLECULE
DAPHOS
    29    30     1
SMALL
NO_CHARGES
****
Generated from CSD

@<TRIPOS>ATOM
      1 C1         9.5233    6.0321    0.7805 C.3       1 RES1    0.0000
      2 H1        10.4577    6.1995    0.5821 H         1 RES1    0.0000
      3 H2         9.0615    5.8496   -0.0527 H         1 RES1    0.0000
      4 C2         9.3971    4.8652    1.7001 C.3       1 RES1    0.0000
      5 H3         8.4873    4.5466    1.8783 H         1 RES1    0.0000
      6 C3        10.4677    3.8125    1.6077 C.3       1 RES1    0.0000
      7 H4        10.2006    2.8851    1.7126 H         1 RES1    0.0000
      8 H5        11.1945    3.9606    0.9832 H         1 RES1    0.0000
      9 C4        10.3876    4.6990    2.8055 C.3       1 RES1    0.0000
     10 H6        11.0695    5.3817    2.9077 H         1 RES1    0.0000
     11 H7        10.0756    4.3083    3.6366 H         1 RES1    0.0000
     12 C5         9.0966    8.3511    0.7881 C.2       1 RES1    0.0000
     13 C6         8.4916    9.5073    1.5251 C.ar      1 RES1    0.0000
     14 C7         8.6806   10.7779    0.9924 C.ar      1 RES1    0.0000
     15 H8         9.1986   10.9007    0.2299 H         1 RES1    0.0000
     16 C8         8.0812   11.8590    1.6213 C.ar      1 RES1    0.0000
     17 C9         7.3073   11.7308    2.7528 C.ar      1 RES1    0.0000
     18 H9         6.9183   12.4677    3.1653 H         1 RES1    0.0000
     19 C10        7.1379   10.4454    3.2447 C.ar      1 RES1    0.0000
     20 C11        7.7135    9.3276    2.6670 C.ar      1 RES1    0.0000
     21 H10        7.5849    8.4814    3.0300 H         1 RES1    0.0000
     22 N1         8.2117   13.1972    1.0098 N.pl3     1 RES1    0.0000
     23 N2         6.2706   10.2616    4.4197 N.pl3     1 RES1    0.0000
     24 O1         8.9337    7.2024    1.4327 O.3       1 RES1    0.0000
     25 O2         9.6457    8.4754   -0.2826 O.2       1 RES1    0.0000
     26 O3         8.7065   13.2642   -0.1082 O.2       1 RES1    0.0000
     27 O4         7.7929   14.1539    1.6425 O.2       1 RES1    0.0000
     28 O5         5.9923    9.1203    4.7594 O.2       1 RES1    0.0000
     29 O6         5.8820   11.2691    5.0051 O.2       1 RES1    0.0000
@<TRIPOS>BOND
     1    1    2 1
     2    3    1 1
     3    4    1 1
     4    5    4 1
     5    6    4 1
     6    7    6 1
     7    8    6 1
     8    9    4 1
     9   10    9 1
    10   11    9 1
    11   12   13 1
    12   13   14 ar
    13   14   15 1
    14   16   14 ar
    15   17   16 ar
    16   18   17 1
    17   19   17 ar
    18   20   13 ar
    19   21   20 1
    20   22   16 1
    21   23   19 1
    22   24    1 1
    23   25   12 2
    24   26   22 2
    25   27   22 2
    26   28   23 2
    27   29   23 2
    28    6    9 1
    29   12   24 1
    30   19   20 ar
@<TRIPOS>SUBSTRUCTURE
     1 RES1 1

@<TRIPOS>CRYSIN
  10.1620   21.4665    5.4350  90.0000  90.0000  90.0000  33 1

