# MOL2 file generated by ConQuest
# Please check atom types

@<TRIPOS>MOLECULE
DAPPES
    68    70     2
SMALL
NO_CHARGES
****
Generated from CSD

@<TRIPOS>ATOM
      1 C1        18.4557    7.2383    6.4957 C.2       1 RES1    0.0000
      2 C2        17.1284    7.7282    6.3557 C.2       1 RES1    0.0000
      3 C3        14.9503    6.5893    5.7642 C.3       1 RES1    0.0000
      4 H1        14.7342    6.7113    6.7220 H         1 RES1    0.0000
      5 H2        14.1819    6.9223    5.2357 H         1 RES1    0.0000
      6 C4        14.8726    4.5275    4.2173 C.3       1 RES1    0.0000
      7 H3        15.7072    4.1086    3.8895 H         1 RES1    0.0000
      8 H4        14.6034    5.2195    3.5616 H         1 RES1    0.0000
      9 C5        14.0730    2.1388    4.1671 C.2       1 RES1    0.0000
     10 C6        13.7836    1.0629    5.0444 C.2       1 RES1    0.0000
     11 N1        19.1151    6.1724    5.7735 N.pl3     1 RES1    0.0000
     12 N2        19.0640    7.8482    7.4593 N.2       1 RES1    0.0000
     13 N3        16.9335    8.6551    7.2516 N.2       1 RES1    0.0000
     14 N4        16.1339    7.3983    5.4399 N.3       1 RES1    0.0000
     15 N5        16.4196    7.6692    4.1099 N.pl3     1 RES1    0.0000
     16 N6        15.1267    5.1585    5.4959 N.3       1 RES1    0.0000
     17 N7        15.9280    4.4476    6.3685 N.pl3     1 RES1    0.0000
     18 N8        13.8285    3.5146    4.2966 N.pl3     1 RES1    0.0000
     19 N9        12.4977    3.9216    4.2348 N.pl3     1 RES1    0.0000
     20 N10       14.7098    1.6548    3.1382 N.2       1 RES1    0.0000
     21 N11       14.2212   -0.0470    4.5696 N.2       1 RES1    0.0000
     22 N12       13.1180    1.0979    6.3230 N.pl3     1 RES1    0.0000
     23 O1        18.3908    5.5364    5.0141 O.2       1 RES1    0.0000
     24 O2        20.2892    5.9794    5.9847 O.2       1 RES1    0.0000
     25 O3        18.1320    8.7291    7.9562 O.3       1 RES1    0.0000
     26 O4        17.4773    8.2322    3.8895 O.2       1 RES1    0.0000
     27 O5        15.5831    7.3293    3.2875 O.2       1 RES1    0.0000
     28 O6        16.3882    5.0595    7.3204 O.2       1 RES1    0.0000
     29 O7        16.0828    3.2627    6.1060 O.2       1 RES1    0.0000
     30 O8        12.3016    5.1165    4.3258 O.2       1 RES1    0.0000
     31 O9        11.6768    3.0407    4.0924 O.2       1 RES1    0.0000
     32 O10       14.8163    0.3050    3.3855 O.3       1 RES1    0.0000
     33 O11       12.6017    2.1618    6.6450 O.2       1 RES1    0.0000
     34 O12       13.0869    0.0600    6.9833 O.2       1 RES1    0.0000
     35 C7        22.2017    9.1051    9.9325 C.2       2 RES2    0.0000
     36 C8        22.7281    8.0622   10.7258 C.2       2 RES2    0.0000
     37 C9        22.2050    5.6034   10.8774 C.3       2 RES2    0.0000
     38 H5        22.7919    4.8775   11.2029 H         2 RES2    0.0000
     39 H6        21.6380    5.8974   11.6345 H         2 RES2    0.0000
     40 C10       21.3275    3.6756    9.4098 C.3       2 RES2    0.0000
     41 H7        21.1305    3.6296    8.4404 H         2 RES2    0.0000
     42 H8        22.2294    3.2877    9.5522 H         2 RES2    0.0000
     43 C11       19.1000    2.5047    9.6023 C.2       2 RES2    0.0000
     44 C12       17.7946    2.9427    9.9161 C.2       2 RES2    0.0000
     45 N13       21.8700    9.0791    8.5279 N.pl3     2 RES2    0.0000
     46 N14       22.0384   10.1770   10.6429 N.2       2 RES2    0.0000
     47 N15       22.8883    8.5131   11.9402 N.2       2 RES2    0.0000
     48 N16       23.0325    6.7263   10.4376 N.3       2 RES2    0.0000
     49 N17       24.0235    6.4964    9.4927 N.pl3     2 RES2    0.0000
     50 N18       21.3477    5.0805    9.8228 N.3       2 RES2    0.0000
     51 N19       20.1786    5.7904    9.5907 N.pl3     2 RES2    0.0000
     52 N20       20.3578    2.8777   10.1226 N.pl3     2 RES2    0.0000
     53 N21       20.5793    2.5627   11.4491 N.pl3     2 RES2    0.0000
     54 N22       19.0248    1.6298    8.6492 N.2       2 RES2    0.0000
     55 N23       16.9288    2.3418    9.1672 N.2       2 RES2    0.0000
     56 N24       17.3747    3.9426   10.8739 N.pl3     2 RES2    0.0000
     57 O13       22.0304    8.0102    7.9644 O.2       2 RES2    0.0000
     58 O14       21.4857   10.1060    8.0087 O.2       2 RES2    0.0000
     59 O15       22.4348    9.8130   11.9017 O.3       2 RES2    0.0000
     60 O16       24.6091    7.4743    9.0773 O.2       2 RES2    0.0000
     61 O17       24.2223    5.3355    9.2045 O.2       2 RES2    0.0000
     62 O18       20.0916    6.8883   10.1180 O.2       2 RES2    0.0000
     63 O19       19.3441    5.2595    8.8592 O.2       2 RES2    0.0000
     64 O20       21.6449    2.9227   11.9180 O.2       2 RES2    0.0000
     65 O21       19.6937    1.9368   12.0184 O.2       2 RES2    0.0000
     66 O22       17.6815    1.5318    8.3622 O.3       2 RES2    0.0000
     67 O23       16.1903    4.1706   10.9824 O.2       2 RES2    0.0000
     68 O24       18.2857    4.5065   11.4934 O.2       2 RES2    0.0000
@<TRIPOS>BOND
     1    1    2 1
     2    2   13 2
     3    3    4 1
     4    5    3 1
     5    6    7 1
     6    8    6 1
     7    9   10 1
     8   10   21 2
     9   11    1 1
    10   12    1 2
    11   13   25 1
    12   14    2 1
    13   15   14 1
    14   16    3 1
    15   17   16 1
    16   18    6 1
    17   19   18 1
    18   20    9 2
    19   21   32 1
    20   22   10 1
    21   23   11 2
    22   24   11 2
    23   25   12 1
    24   26   15 2
    25   27   15 2
    26   28   17 2
    27   29   17 2
    28   30   19 2
    29   31   19 2
    30   32   20 1
    31   33   22 2
    32   34   22 2
    33   35   36 1
    34   36   47 2
    35   37   38 1
    36   39   37 1
    37   40   41 1
    38   42   40 1
    39   43   44 1
    40   44   55 2
    41   45   35 1
    42   46   35 2
    43   47   59 1
    44   48   36 1
    45   49   48 1
    46   50   37 1
    47   51   50 1
    48   52   40 1
    49   53   52 1
    50   54   43 2
    51   55   66 1
    52   56   44 1
    53   57   45 2
    54   58   45 2
    55   59   46 1
    56   60   49 2
    57   61   49 2
    58   62   51 2
    59   63   51 2
    60   64   53 2
    61   65   53 2
    62   66   54 1
    63   67   56 2
    64   68   56 2
    65    3   14 1
    66    6   16 1
    67    9   18 1
    68   37   48 1
    69   40   50 1
    70   43   52 1
@<TRIPOS>SUBSTRUCTURE
     1 RES1 1
     2 RES2 35

@<TRIPOS>CRYSIN
  25.6060    9.9990   11.7800  90.0000  97.9760  90.0000  14 1

