# MOL2 file generated by ConQuest
# Please check atom types

@<TRIPOS>MOLECULE
DAPTIA
    42    43     1
SMALL
NO_CHARGES
****
Generated from CSD

@<TRIPOS>ATOM
      1 O1         4.3260    3.5092    7.8211 O.2       1 RES1    0.0000
      2 O2         4.5202    4.1953    3.9569 O.3       1 RES1    0.0000
      3 O3         0.2519    5.3224    9.0940 O.3       1 RES1    0.0000
      4 H1        -0.0514    4.5629    9.0237 H         1 RES1    0.0000
      5 O4         3.4607    2.2915    3.3973 O.2       1 RES1    0.0000
      6 N1         3.2004    4.5881    6.1680 N.am      1 RES1    0.0000
      7 H2         2.9441    5.3497    5.8616 H         1 RES1    0.0000
      8 N2         1.6305    5.3240    8.7082 N.2       1 RES1    0.0000
      9 N3         4.0358    7.9148    9.0554 N.ar      1 RES1    0.0000
     10 N4         5.6507    6.1077    7.6990 N.ar      1 RES1    0.0000
     11 N5         1.4004    7.5062    9.4680 N.pl3     1 RES1    0.0000
     12 H3         0.5804    7.3812    9.6961 H         1 RES1    0.0000
     13 H4         1.7682    8.2742    9.5880 H         1 RES1    0.0000
     14 C1         3.9108    4.5391    7.2996 C.2       1 RES1    0.0000
     15 C2         3.6347    3.2202    4.1527 C.2       1 RES1    0.0000
     16 C3         3.5320    6.7542    8.5989 C.ar      1 RES1    0.0000
     17 C4         4.3368    5.8704    7.8846 C.ar      1 RES1    0.0000
     18 C5         5.3291    8.1606    8.8505 C.ar      1 RES1    0.0000
     19 H5         5.6960    8.9599    9.1529 H         1 RES1    0.0000
     20 C6         1.0435    4.8466    3.2751 C.ar      1 RES1    0.0000
     21 H6         1.6460    4.3326    2.7868 H         1 RES1    0.0000
     22 C7         0.7045    4.4636    4.5760 C.ar      1 RES1    0.0000
     23 C8         2.0964    6.5160    8.9299 C.2       1 RES1    0.0000
     24 C9         6.1358    7.2434    8.1955 C.ar      1 RES1    0.0000
     25 H7         7.0426    7.4270    8.0993 H         1 RES1    0.0000
     26 C10        2.8554    3.3771    5.4496 C.3       1 RES1    0.0000
     27 H8         3.1166    2.6277    6.0244 H         1 RES1    0.0000
     28 C11        0.4935    5.9848    2.7034 C.ar      1 RES1    0.0000
     29 H9         0.7329    6.2307    1.8386 H         1 RES1    0.0000
     30 C12       -0.4105    6.7538    3.4125 C.ar      1 RES1    0.0000
     31 H10       -0.7705    7.5228    3.0314 H         1 RES1    0.0000
     32 C13       -0.2156    5.2419    5.2722 C.ar      1 RES1    0.0000
     33 H11       -0.4567    5.0002    6.1370 H         1 RES1    0.0000
     34 C14        1.3325    3.2496    5.2255 C.3       1 RES1    0.0000
     35 H12        0.9026    3.0958    6.0811 H         1 RES1    0.0000
     36 H13        1.1623    2.4744    4.6676 H         1 RES1    0.0000
     37 C15       -0.7784    6.3730    4.6969 C.ar      1 RES1    0.0000
     38 H14       -1.4008    6.8752    5.1705 H         1 RES1    0.0000
     39 C16        5.3147    4.1004    2.7538 C.3       1 RES1    0.0000
     40 H15        4.7973    4.4049    2.0035 H         1 RES1    0.0000
     41 H16        6.0972    4.6487    2.8436 H         1 RES1    0.0000
     42 H17        5.5782    3.1870    2.6155 H         1 RES1    0.0000
@<TRIPOS>BOND
     1    1   14 2
     2    2   15 1
     3    3    4 1
     4    5   15 2
     5    6    7 1
     6    8    3 1
     7    9   16 ar
     8   10   17 ar
     9   11   12 1
    10   13   11 1
    11   14    6 1
    12   15   26 1
    13   16   17 ar
    14   17   14 1
    15   18    9 ar
    16   19   18 1
    17   20   21 1
    18   22   20 ar
    19   23    8 2
    20   24   10 ar
    21   25   24 1
    22   26    6 1
    23   27   26 1
    24   28   20 ar
    25   29   28 1
    26   30   28 ar
    27   31   30 1
    28   32   22 ar
    29   33   32 1
    30   34   22 1
    31   35   34 1
    32   36   34 1
    33   37   30 ar
    34   38   37 1
    35   39    2 1
    36   40   39 1
    37   41   39 1
    38   42   39 1
    39   11   23 1
    40   16   23 1
    41   18   24 ar
    42   26   34 1
    43   32   37 ar
@<TRIPOS>SUBSTRUCTURE
     1 RES1 1

@<TRIPOS>CRYSIN
   8.6226   10.4629    9.5228  90.0000 105.8420  90.0000   4 1

