# MOL2 file generated by ConQuest
# Please check atom types

@<TRIPOS>MOLECULE
DAPYIC
    28    29     1
SMALL
USER_CHARGES
****
Generated from CSD

@<TRIPOS>ATOM
      1 O1        -0.8008    2.3763    4.0972 O.2       1 RES1   -1.0000
      2 O2         2.5851    1.5251    8.4702 O.2       1 RES1    0.0000
      3 N1        -0.0057    2.4508    5.0737 N.pl3     1 RES1    1.0000
      4 N2         0.4105    1.4069    5.7306 N.2       1 RES1    0.0000
      5 N3         1.2033    1.8909    6.7403 N.am      1 RES1    0.0000
      6 C1         1.2470    3.2907    6.7091 C.ar      1 RES1    0.0000
      7 C2         1.8453    4.2376    7.5219 C.ar      1 RES1    0.0000
      8 C3         1.6441    5.5530    7.1399 C.ar      1 RES1    0.0000
      9 C4         0.8988    5.9062    6.0152 C.ar      1 RES1    0.0000
     10 C5         0.3052    4.9593    5.2199 C.ar      1 RES1    0.0000
     11 C6         0.4956    3.6467    5.6253 C.ar      1 RES1    0.0000
     12 C7         1.8805    1.0355    7.6427 C.2       1 RES1    0.0000
     13 C8         1.6444   -0.3967    7.4400 C.2       1 RES1    0.0000
     14 C9         2.2377   -1.3042    8.1846 C.2       1 RES1    0.0000
     15 C10        2.0973   -2.7322    8.0170 C.2       1 RES1    0.0000
     16 C11        2.7290   -3.6157    8.7382 C.2       1 RES1    0.0000
     17 C12        2.6435   -5.0972    8.5511 C.3       1 RES1    0.0000
     18 H1         2.4235    3.9956    8.2450 H         1 RES1    0.0000
     19 H2         2.1371    6.2326    7.6018 H         1 RES1    0.0000
     20 H3         0.7882    6.8235    5.6916 H         1 RES1    0.0000
     21 H4        -0.2867    5.2055    4.4246 H         1 RES1    0.0000
     22 H5         1.0738   -0.6753    6.7637 H         1 RES1    0.0000
     23 H6         2.8136   -0.9989    8.8688 H         1 RES1    0.0000
     24 H7         1.5139   -3.0530    7.4459 H         1 RES1    0.0000
     25 H8         3.3234   -3.2359    9.4146 H         1 RES1    0.0000
     26 H9         1.9544   -5.2759    7.9137 H         1 RES1    0.0000
     27 H10        2.3371   -5.6417    9.3561 H         1 RES1    0.0000
     28 H11        3.4416   -5.4306    8.4595 H         1 RES1    0.0000
@<TRIPOS>BOND
     1    1    3 1
     2    2   12 2
     3    3    4 2
     4    4    5 1
     5    5    6 1
     6    6    7 ar
     7    7    8 ar
     8    8    9 ar
     9    9   10 ar
    10   10   11 ar
    11   11    3 1
    12   12    5 1
    13   13   12 1
    14   14   13 2
    15   15   14 1
    16   16   15 2
    17   17   16 1
    18   18    7 1
    19   19    8 1
    20   20    9 1
    21   21   10 1
    22   22   13 1
    23   23   14 1
    24   24   15 1
    25   25   16 1
    26   26   17 1
    27   27   17 1
    28   28   17 1
    29    6   11 ar
@<TRIPOS>SUBSTRUCTURE
     1 RES1 1

@<TRIPOS>CRYSIN
   4.1070   14.0690   19.5260  90.0000  93.3900  90.0000  14 1

