# MOL2 file generated by ConQuest
# Please check atom types

@<TRIPOS>MOLECULE
DAPYOI
    54    56     2
SMALL
USER_CHARGES
****
Generated from CSD

@<TRIPOS>ATOM
      1 O1         5.8612   11.7989    3.0188 O.2       1 RES1   -1.0000
      2 O2         7.1746    6.4502    1.7227 O.3       1 RES1    0.0000
      3 O3         5.6711    5.7784    3.1332 O.2       1 RES1    0.0000
      4 N1         5.3176   10.6297    3.2751 N.pl3     1 RES1    1.0000
      5 N2         4.9730    9.8196    2.2990 N.2       1 RES1    0.0000
      6 N3         4.4450    8.7448    2.9030 N.3       1 RES1    0.0000
      7 C1         4.4629    8.8735    4.2657 C.ar      1 RES1    0.0000
      8 C2         4.0586    8.0430    5.3180 C.ar      1 RES1    0.0000
      9 C3         4.2563    8.5444    6.5812 C.ar      1 RES1    0.0000
     10 C4         4.8201    9.8238    6.8180 C.ar      1 RES1    0.0000
     11 C5         5.2288   10.6213    5.7996 C.ar      1 RES1    0.0000
     12 C6         5.0349   10.1179    4.5129 C.ar      1 RES1    0.0000
     13 C7         5.9507    6.3314    2.1285 C.2       1 RES1    0.0000
     14 C8         4.9335    6.9888    1.2542 C.3       1 RES1    0.0000
     15 C9         3.8513    7.6781    2.0649 C.3       1 RES1    0.0000
     16 C10        2.7498    8.2634    1.1947 C.3       1 RES1    0.0000
     17 H1         7.7116    5.9658    2.4260 H         1 RES1    0.0000
     18 H2         3.4754    6.9864    2.7190 H         1 RES1    0.0000
     19 H3         3.6320    7.1269    5.1404 H         1 RES1    0.0000
     20 H4         4.0348    7.9626    7.2849 H         1 RES1    0.0000
     21 H5         4.9148   10.1591    7.6900 H         1 RES1    0.0000
     22 H6         5.6382   11.4952    5.9689 H         1 RES1    0.0000
     23 H7         5.3698    7.6421    0.7095 H         1 RES1    0.0000
     24 H8         4.5568    6.3109    0.6637 H         1 RES1    0.0000
     25 H9         3.0876    8.9240    0.4120 H         1 RES1    0.0000
     26 H10        2.2821    7.4942    0.8010 H         1 RES1    0.0000
     27 H11        2.0882    8.7022    1.7165 H         1 RES1    0.0000
     28 O4         1.5833    6.6023   14.8351 O.2       2 RES2   -1.0000
     29 O5        -0.4713   11.4755   13.0463 O.3       2 RES2    0.0000
     30 O6         1.1597   12.4887   14.1552 O.2       2 RES2    0.0000
     31 N4         2.0838    7.8083   14.8056 N.pl3     2 RES2    1.0000
     32 N5         2.2434    8.4549   13.6672 N.2       2 RES2    0.0000
     33 N6         2.7759    9.6463   14.0162 N.3       2 RES2    0.0000
     34 C11        2.9541    9.7405   15.3620 C.ar      2 RES2    0.0000
     35 C12        3.4292   10.7574   16.2012 C.ar      2 RES2    0.0000
     36 C13        3.4053   10.4894   17.5420 C.ar      2 RES2    0.0000
     37 C14        2.9437    9.2568   18.0647 C.ar      2 RES2    0.0000
     38 C15        2.4895    8.2587   17.2522 C.ar      2 RES2    0.0000
     39 C16        2.5044    8.5296   15.8877 C.ar      2 RES2    0.0000
     40 C17        0.7973   11.7523   13.2749 C.2       2 RES2    0.0000
     41 C18        1.7280   11.0564   12.3251 C.3       2 RES2    0.0000
     42 C19        3.0354   10.6349   12.9547 C.3       2 RES2    0.0000
     43 C20        4.0214   10.0679   11.9356 C.3       2 RES2    0.0000
     44 H12       -1.0292   12.0055   13.6407 H         2 RES2    0.0000
     45 H13        3.3934   11.3991   13.3912 H         2 RES2    0.0000
     46 H14        3.6843   11.5248   15.8744 H         2 RES2    0.0000
     47 H15        3.7215   11.1674   18.1837 H         2 RES2    0.0000
     48 H16        2.9385    9.0670   19.0283 H         2 RES2    0.0000
     49 H17        2.1404    7.3956   17.6253 H         2 RES2    0.0000
     50 H18        1.3126   10.2996   11.9516 H         2 RES2    0.0000
     51 H19        1.8869   11.7319   11.5808 H         2 RES2    0.0000
     52 H20        4.8850    9.8608   12.3590 H         2 RES2    0.0000
     53 H21        4.2287   10.6990   11.1689 H         2 RES2    0.0000
     54 H22        3.6619    9.2420   11.4595 H         2 RES2    0.0000
@<TRIPOS>BOND
     1    1    4 1
     2    2   13 1
     3    3   13 2
     4    4    5 2
     5    5    6 1
     6    6    7 1
     7    7    8 ar
     8    8    9 ar
     9    9   10 ar
    10   10   11 ar
    11   11   12 ar
    12   12    4 1
    13   13   14 1
    14   14   15 1
    15   15    6 1
    16   16   15 1
    17   17    2 1
    18   18   15 1
    19   19    8 1
    20   20    9 1
    21   21   10 1
    22   22   11 1
    23   23   14 1
    24   24   14 1
    25   25   16 1
    26   26   16 1
    27   27   16 1
    28   28   31 1
    29   29   40 1
    30   30   40 2
    31   31   32 2
    32   32   33 1
    33   33   34 1
    34   34   35 ar
    35   35   36 ar
    36   36   37 ar
    37   37   38 ar
    38   38   39 ar
    39   39   31 1
    40   40   41 1
    41   41   42 1
    42   42   33 1
    43   43   42 1
    44   44   29 1
    45   45   42 1
    46   46   35 1
    47   47   36 1
    48   48   37 1
    49   49   38 1
    50   50   41 1
    51   51   41 1
    52   52   43 1
    53   53   43 1
    54   54   43 1
    55    7   12 ar
    56   34   39 ar
@<TRIPOS>SUBSTRUCTURE
     1 RES1 1
     2 RES2 28

@<TRIPOS>CRYSIN
   7.4580   24.6520   22.8870  90.0000  90.0000  90.0000  61 1

