# MOL2 file generated by ConQuest
# Please check atom types

@<TRIPOS>MOLECULE
DAQWEZ
   152   156     2
SMALL
NO_CHARGES
****
Generated from CSD

@<TRIPOS>ATOM
      1 N1        -6.3015    5.2989   21.3369 N.3       1 RES1    0.0000
      2 C1        -5.4637    8.8495   19.3443 C.2       1 RES1    0.0000
      3 C2        -3.4604    9.7002   18.0983 C.ar      1 RES1    0.0000
      4 C3        -7.0100    7.5975   20.7984 C.3       1 RES1    0.0000
      5 H1        -7.7363    7.2950   20.2324 H         1 RES1    0.0000
      6 H2        -7.2605    8.4491   21.1908 H         1 RES1    0.0000
      7 C4        -3.8263   11.0317   17.9462 C.ar      1 RES1    0.0000
      8 H3        -4.6556   11.3406   18.2312 H         1 RES1    0.0000
      9 C5        -6.7399    6.5752   21.8954 C.3       1 RES1    0.0000
     10 H4        -6.0557    6.9169   22.4925 H         1 RES1    0.0000
     11 H5        -7.5485    6.4386   22.4135 H         1 RES1    0.0000
     12 C6        -2.2089    9.2887   17.6517 C.ar      1 RES1    0.0000
     13 H6        -1.9659    8.3959   17.7428 H         1 RES1    0.0000
     14 C7        -2.9013   11.8846   17.3516 C.ar      1 RES1    0.0000
     15 C8        -1.6613   11.4920   16.9196 C.ar      1 RES1    0.0000
     16 H7        -1.0702   12.0974   16.5329 H         1 RES1    0.0000
     17 C9        -1.3248   10.1685   17.0806 C.ar      1 RES1    0.0000
     18 H8        -0.4908    9.8675   16.8010 H         1 RES1    0.0000
     19 N2        -5.8081    7.7464   20.0227 N.am      1 RES1    0.0000
     20 H9        -5.2694    7.0772   19.9919 H         1 RES1    0.0000
     21 N3        -4.2566    8.7256   18.7063 N.am      1 RES1    0.0000
     22 H10       -3.9418    7.9264   18.6755 H         1 RES1    0.0000
     23 N4        -3.3022   13.2839   17.1546 N.pl3     1 RES1    0.0000
     24 O1        -6.1503    9.8680   19.3050 O.2       1 RES1    0.0000
     25 O2        -4.2837   13.6992   17.7645 O.2       1 RES1    0.0000
     26 O3        -2.6335   13.9928   16.4479 O.2       1 RES1    0.0000
     27 C10       -6.6507    3.7998   17.3527 C.2       1 RES1    0.0000
     28 C11       -6.1011    4.4997   15.0344 C.ar      1 RES1    0.0000
     29 C12       -7.4209    4.4676   20.9051 C.3       1 RES1    0.0000
     30 H11       -8.1625    5.0402   20.6547 H         1 RES1    0.0000
     31 H12       -7.7103    3.9155   21.6479 H         1 RES1    0.0000
     32 C13       -5.1987    3.4855   14.7217 C.ar      1 RES1    0.0000
     33 H13       -4.9944    2.8357   15.3542 H         1 RES1    0.0000
     34 C14       -6.4042    5.4450   14.0490 C.ar      1 RES1    0.0000
     35 H14       -7.0216    6.1188   14.2196 H         1 RES1    0.0000
     36 C15       -7.0698    3.5817   19.7437 C.3       1 RES1    0.0000
     37 H15       -6.2422    3.1111   19.9331 H         1 RES1    0.0000
     38 H16       -7.7688    2.9211   19.6173 H         1 RES1    0.0000
     39 C16       -5.7824    5.3716   12.8254 C.ar      1 RES1    0.0000
     40 C17       -4.8821    4.3882   12.5112 C.ar      1 RES1    0.0000
     41 H17       -4.4722    4.3598   11.6768 H         1 RES1    0.0000
     42 C18       -4.6072    3.4419   13.4762 C.ar      1 RES1    0.0000
     43 H18       -4.0072    2.7572   13.2832 H         1 RES1    0.0000
     44 N5        -6.6565    4.6788   16.2917 N.am      1 RES1    0.0000
     45 H19       -7.0522    5.4295   16.4264 H         1 RES1    0.0000
     46 N6        -6.9149    4.3610   18.5321 N.am      1 RES1    0.0000
     47 H20       -6.9970    5.2164   18.5763 H         1 RES1    0.0000
     48 N7        -6.1042    6.4099   11.8297 N.pl3     1 RES1    0.0000
     49 O4        -6.4086    2.6018   17.2300 O.2       1 RES1    0.0000
     50 O5        -6.8339    7.3267   12.1622 O.2       1 RES1    0.0000
     51 O6        -5.6100    6.3051   10.7153 O.2       1 RES1    0.0000
     52 C19       -3.3874    4.8479   19.4481 C.2       1 RES1    0.0000
     53 C20       -2.6524    4.5851   17.1155 C.ar      1 RES1    0.0000
     54 C21       -3.2681    5.6856   16.5241 C.ar      1 RES1    0.0000
     55 H21       -3.9422    6.1485   16.9662 H         1 RES1    0.0000
     56 C22       -2.8554    6.0721   15.2694 C.ar      1 RES1    0.0000
     57 C23       -3.9251    4.7567   21.8334 C.3       1 RES1    0.0000
     58 H22       -3.7327    5.7062   21.7856 H         1 RES1    0.0000
     59 H23       -3.3642    4.3764   22.5274 H         1 RES1    0.0000
     60 C24       -1.6490    3.9173   16.4185 C.ar      1 RES1    0.0000
     61 H24       -1.2250    3.1889   16.8101 H         1 RES1    0.0000
     62 C25       -5.3697    4.5705   22.2163 C.3       1 RES1    0.0000
     63 H25       -5.5835    3.6243   22.1877 H         1 RES1    0.0000
     64 H26       -5.4958    4.8746   23.1295 H         1 RES1    0.0000
     65 C26       -1.8654    5.4100   14.5673 C.ar      1 RES1    0.0000
     66 H27       -1.6059    5.6938   13.7202 H         1 RES1    0.0000
     67 C27       -1.2782    4.3215   15.1591 C.ar      1 RES1    0.0000
     68 H28       -0.6201    3.8498   14.7024 H         1 RES1    0.0000
     69 N8        -3.0479    4.0858   18.3639 N.am      1 RES1    0.0000
     70 H29       -3.0792    3.2309   18.4552 H         1 RES1    0.0000
     71 N9        -3.5844    4.1473   20.5711 N.am      1 RES1    0.0000
     72 H30       -3.5044    3.2911   20.5390 H         1 RES1    0.0000
     73 N10       -3.5254    7.2119   14.6343 N.pl3     1 RES1    0.0000
     74 O7        -3.4638    6.0749   19.3913 O.2       1 RES1    0.0000
     75 O8        -4.3084    7.8568   15.2896 O.2       1 RES1    0.0000
     76 O9        -3.2880    7.4634   13.4639 O.2       1 RES1    0.0000
     77 N11        6.5407    2.2116    8.3737 N.3       2 RES2    0.0000
     78 N12        4.0736    4.2523   11.9571 N.am      2 RES2    0.0000
     79 H31        4.4744    3.5041   12.1009 H         2 RES2    0.0000
     80 N13        4.8539    3.9406    9.8555 N.am      2 RES2    0.0000
     81 H32        5.0862    3.1671   10.1511 H         2 RES2    0.0000
     82 N14        1.7573    7.8857   14.2800 N.pl3     2 RES2    0.0000
     83 C28        4.1878    4.7495   10.6804 C.2       2 RES2    0.0000
     84 C29        3.3985    4.7922   13.0532 C.ar      2 RES2    0.0000
     85 C30        5.2092    4.2766    8.5022 C.3       2 RES2    0.0000
     86 H33        5.2452    5.2404    8.3977 H         2 RES2    0.0000
     87 H34        4.5446    3.9279    7.8873 H         2 RES2    0.0000
     88 C31        2.9639    6.1083   13.1226 C.ar      2 RES2    0.0000
     89 H35        3.1407    6.7068   12.4332 H         2 RES2    0.0000
     90 C32        3.1913    3.9618   14.1430 C.ar      2 RES2    0.0000
     91 H36        3.5178    3.0910   14.1223 H         2 RES2    0.0000
     92 C33        6.5661    3.6718    8.1971 C.3       2 RES2    0.0000
     93 H37        6.8162    3.8827    7.2833 H         2 RES2    0.0000
     94 H38        7.2322    4.0578    8.7870 H         2 RES2    0.0000
     95 C34        2.2635    6.5029   14.2405 C.ar      2 RES2    0.0000
     96 C35        2.0071    5.6876   15.2960 C.ar      2 RES2    0.0000
     97 H39        1.5080    5.9846   16.0225 H         2 RES2    0.0000
     98 C36        2.5135    4.4025   15.2503 C.ar      2 RES2    0.0000
     99 H40        2.3925    3.8327   15.9748 H         2 RES2    0.0000
    100 O10        3.7201    5.8354   10.3367 O.2       2 RES2    0.0000
    101 O11        2.2302    8.7048   13.5054 O.2       2 RES2    0.0000
    102 O12        0.8871    8.1560   15.0781 O.2       2 RES2    0.0000
    103 C37        3.3648   -0.6421    8.4128 C.2       2 RES2    0.0000
    104 C38        6.1282    1.5017    7.1698 C.3       2 RES2    0.0000
    105 H41        6.9062    1.3465    6.6113 H         2 RES2    0.0000
    106 H42        5.5098    2.0572    6.6701 H         2 RES2    0.0000
    107 C39        1.1794   -0.9753    9.5617 C.ar      2 RES2    0.0000
    108 C40        5.4638    0.1726    7.4757 C.3       2 RES2    0.0000
    109 H43        5.3381   -0.3242    6.6517 H         2 RES2    0.0000
    110 H44        6.0364   -0.3500    8.0581 H         2 RES2    0.0000
    111 C41        0.0188   -0.3123    9.9207 C.ar      2 RES2    0.0000
    112 H45       -0.1109    0.5763    9.6792 H         2 RES2    0.0000
    113 C42        1.3319   -2.2978    9.9589 C.ar      2 RES2    0.0000
    114 H46        2.1111   -2.7570    9.7417 H         2 RES2    0.0000
    115 C43       -0.9394   -0.9857   10.6393 C.ar      2 RES2    0.0000
    116 C44        0.3344   -2.9370   10.6741 C.ar      2 RES2    0.0000
    117 H47        0.4561   -3.8242   10.9259 H         2 RES2    0.0000
    118 C45       -0.8164   -2.3022   11.0178 C.ar      2 RES2    0.0000
    119 H48       -1.4914   -2.7375   11.4877 H         2 RES2    0.0000
    120 N15        4.1862    0.3792    8.1139 N.am      2 RES2    0.0000
    121 H49        3.9423    1.1801    8.3096 H         2 RES2    0.0000
    122 N16        2.1443   -0.2347    8.8903 N.am      2 RES2    0.0000
    123 H50        1.9506    0.5923    8.7557 H         2 RES2    0.0000
    124 N17       -2.1300   -0.2365   11.0399 N.pl3     2 RES2    0.0000
    125 O13        3.6902   -1.8161    8.2639 O.2       2 RES2    0.0000
    126 O14       -2.1339    0.9903   10.8656 O.2       2 RES2    0.0000
    127 O15       -3.0700   -0.8635   11.5130 O.2       2 RES2    0.0000
    128 C46        5.6104    0.5634   11.3999 C.2       2 RES2    0.0000
    129 C47        2.7530    0.3816   12.3561 C.ar      2 RES2    0.0000
    130 H51        2.9137    1.1677   11.8861 H         2 RES2    0.0000
    131 C48        3.6869   -0.6413   12.3548 C.ar      2 RES2    0.0000
    132 C49        3.4113   -1.8033   13.0697 C.ar      2 RES2    0.0000
    133 H52        4.0416   -2.4863   13.1033 H         2 RES2    0.0000
    134 C50        7.6710    1.4532   10.4435 C.3       2 RES2    0.0000
    135 H53        8.5527    1.2588   10.7992 H         2 RES2    0.0000
    136 H54        7.3576    2.2694   10.8616 H         2 RES2    0.0000
    137 C51        7.7804    1.6761    8.9571 C.3       2 RES2    0.0000
    138 H55        8.5066    2.2955    8.7814 H         2 RES2    0.0000
    139 H56        7.9972    0.8350    8.5244 H         2 RES2    0.0000
    140 C52        1.5852    0.2152   13.0637 C.ar      2 RES2    0.0000
    141 C53        1.2811   -0.9462   13.7316 C.ar      2 RES2    0.0000
    142 H57        0.4691   -1.0484   14.1719 H         2 RES2    0.0000
    143 C54        2.2110   -1.9467   13.7283 C.ar      2 RES2    0.0000
    144 H58        2.0299   -2.7404   14.1792 H         2 RES2    0.0000
    145 N18        4.8916   -0.5682   11.6419 N.am      2 RES2    0.0000
    146 H59        5.2059   -1.3055   11.3279 H         2 RES2    0.0000
    147 N19        6.7791    0.3765   10.7904 N.am      2 RES2    0.0000
    148 H60        7.0133   -0.4275   10.5935 H         2 RES2    0.0000
    149 N20        0.6194    1.3219   13.0861 N.pl3     2 RES2    0.0000
    150 O16        5.2119    1.6786   11.7511 O.2       2 RES2    0.0000
    151 O17        0.8813    2.3477   12.5120 O.2       2 RES2    0.0000
    152 O18       -0.4134    1.1708   13.6965 O.2       2 RES2    0.0000
@<TRIPOS>BOND
     1    1    9 1
     2    2   19 1
     3    3    7 ar
     4    4    5 1
     5    6    4 1
     6    7    8 1
     7    9    4 1
     8   10    9 1
     9   11    9 1
    10   12    3 ar
    11   13   12 1
    12   14    7 ar
    13   15   14 ar
    14   16   15 1
    15   17   12 ar
    16   18   17 1
    17   19    4 1
    18   20   19 1
    19   21    2 1
    20   22   21 1
    21   23   14 1
    22   24    2 2
    23   25   23 2
    24   26   23 2
    25   27   44 1
    26   28   32 ar
    27   29    1 1
    28   30   29 1
    29   31   29 1
    30   32   33 1
    31   34   28 ar
    32   35   34 1
    33   36   29 1
    34   37   36 1
    35   38   36 1
    36   39   34 ar
    37   40   39 ar
    38   41   40 1
    39   42   32 ar
    40   43   42 1
    41   44   28 1
    42   45   44 1
    43   46   27 1
    44   47   46 1
    45   48   39 1
    46   49   27 2
    47   50   48 2
    48   51   48 2
    49   52   69 1
    50   53   54 ar
    51   54   55 1
    52   56   54 ar
    53   57   58 1
    54   59   57 1
    55   60   53 ar
    56   61   60 1
    57   62    1 1
    58   63   62 1
    59   64   62 1
    60   65   56 ar
    61   66   65 1
    62   67   60 ar
    63   68   67 1
    64   69   53 1
    65   70   69 1
    66   71   52 1
    67   72   71 1
    68   73   56 1
    69   74   52 2
    70   75   73 2
    71   76   73 2
    72   77   92 1
    73   78   79 1
    74   80   81 1
    75   82   95 1
    76   83   78 1
    77   84   78 1
    78   85   80 1
    79   86   85 1
    80   87   85 1
    81   88   84 ar
    82   89   88 1
    83   90   84 ar
    84   91   90 1
    85   92   85 1
    86   93   92 1
    87   94   92 1
    88   95   88 ar
    89   96   95 ar
    90   97   96 1
    91   98   90 ar
    92   99   98 1
    93  100   83 2
    94  101   82 2
    95  102   82 2
    96  103  120 1
    97  104   77 1
    98  105  104 1
    99  106  104 1
   100  107  111 ar
   101  108  104 1
   102  109  108 1
   103  110  108 1
   104  111  112 1
   105  113  107 ar
   106  114  113 1
   107  115  111 ar
   108  116  113 ar
   109  117  116 1
   110  118  115 ar
   111  119  118 1
   112  120  108 1
   113  121  120 1
   114  122  103 1
   115  123  122 1
   116  124  115 1
   117  125  103 2
   118  126  124 2
   119  127  124 2
   120  128  145 1
   121  129  130 1
   122  131  129 ar
   123  132  131 ar
   124  133  132 1
   125  134  135 1
   126  136  134 1
   127  137   77 1
   128  138  137 1
   129  139  137 1
   130  140  129 ar
   131  141  140 ar
   132  142  141 1
   133  143  132 ar
   134  144  143 1
   135  145  131 1
   136  146  145 1
   137  147  128 1
   138  148  147 1
   139  149  140 1
   140  150  128 2
   141  151  149 2
   142  152  149 2
   143    3   21 1
   144   15   17 ar
   145   36   46 1
   146   40   42 ar
   147   57   62 1
   148   57   71 1
   149   65   67 ar
   150   80   83 1
   151   96   98 ar
   152  107  122 1
   153  116  118 ar
   154  134  137 1
   155  134  147 1
   156  141  143 ar
@<TRIPOS>SUBSTRUCTURE
     1 RES1 1
     2 RES2 77

@<TRIPOS>CRYSIN
  13.0495   13.4255   19.0544  99.5120  98.1950 109.6650   2 1

