# MOL2 file generated by ConQuest
# Please check atom types

@<TRIPOS>MOLECULE
DARGAF
    29    30     1
SMALL
NO_CHARGES
****
Generated from CSD

@<TRIPOS>ATOM
      1 O1         6.1370    7.0784    2.3048 O.3       1 RES1    0.0000
      2 O2         4.9612    7.4986    4.8534 O.2       1 RES1    0.0000
      3 O3         2.9942    8.3121    4.3879 O.2       1 RES1    0.0000
      4 O4         1.3328    3.2990    0.9542 O.2       1 RES1    0.0000
      5 O5         0.3163    4.6918    2.2867 O.2       1 RES1    0.0000
      6 O6         6.0987    4.3276   -0.2895 O.2       1 RES1    0.0000
      7 O7         6.2656    6.4965   -0.3752 O.2       1 RES1    0.0000
      8 N1         3.9401    7.5650    4.1739 N.pl3     1 RES1    0.0000
      9 N2         1.3106    4.2864    1.6749 N.pl3     1 RES1    0.0000
     10 N3         5.7969    5.4591    0.0770 N.pl3     1 RES1    0.0000
     11 C1         4.9305    6.4949    2.1497 C.ar      1 RES1    0.0000
     12 C2         3.8352    6.6530    3.0196 C.ar      1 RES1    0.0000
     13 C3         2.6449    5.9751    2.8536 C.ar      1 RES1    0.0000
     14 H1         1.9057    6.1351    3.4282 H         1 RES1    0.0000
     15 C4         2.5606    5.0537    1.8205 C.ar      1 RES1    0.0000
     16 C5         3.5978    4.8219    0.9407 C.ar      1 RES1    0.0000
     17 H2         3.5288    4.1693    0.2549 H         1 RES1    0.0000
     18 C6         4.7421    5.5833    1.1003 C.ar      1 RES1    0.0000
     19 C7         6.2396    8.4811    2.3683 C.ar      1 RES1    0.0000
     20 C8         7.4514    8.9553    2.8488 C.ar      1 RES1    0.0000
     21 H3         8.1300    8.3569    3.1391 H         1 RES1    0.0000
     22 C9         7.6467   10.3354    2.8943 C.ar      1 RES1    0.0000
     23 H4         8.4716   10.6845    3.2110 H         1 RES1    0.0000
     24 C10        6.6463   11.2043    2.4812 C.ar      1 RES1    0.0000
     25 H5         6.7865   12.1431    2.5182 H         1 RES1    0.0000
     26 C11        5.4399   10.7010    2.0166 C.ar      1 RES1    0.0000
     27 H6         4.7536   11.2984    1.7466 H         1 RES1    0.0000
     28 C12        5.2277    9.3248    1.9416 C.ar      1 RES1    0.0000
     29 H7         4.4105    8.9747    1.6063 H         1 RES1    0.0000
@<TRIPOS>BOND
     1    1   11 1
     2    2    8 2
     3    3    8 2
     4    4    9 2
     5    5    9 2
     6    6   10 2
     7    7   10 2
     8    8   12 1
     9    9   15 1
    10   10   18 1
    11   11   12 ar
    12   12   13 ar
    13   13   14 1
    14   15   13 ar
    15   16   15 ar
    16   17   16 1
    17   18   11 ar
    18   19    1 1
    19   20   19 ar
    20   21   20 1
    21   22   20 ar
    22   23   22 1
    23   24   22 ar
    24   25   24 1
    25   26   24 ar
    26   27   26 1
    27   28   19 ar
    28   29   28 1
    29   16   18 ar
    30   26   28 ar
@<TRIPOS>SUBSTRUCTURE
     1 RES1 1

@<TRIPOS>CRYSIN
   7.6597    9.6982   17.1070  90.0000  90.0000  90.0000  19 1

