# MOL2 file generated by ConQuest
# Please check atom types

@<TRIPOS>MOLECULE
DARGEJ
    35    36     1
SMALL
NO_CHARGES
****
Generated from CSD

@<TRIPOS>ATOM
      1 O1         4.4463    8.4970    3.1378 O.3       1 RES1    0.0000
      2 N1         1.8536    7.1679    2.7920 N.pl3     1 RES1    0.0000
      3 O2         2.5228    6.1433    2.7741 O.2       1 RES1    0.0000
      4 C1         3.6145    8.7891    2.1241 C.ar      1 RES1    0.0000
      5 O3         1.3937   11.2222   -1.5424 O.2       1 RES1    0.0000
      6 N2         5.3745   10.3055    1.3326 N.pl3     1 RES1    0.0000
      7 N3         1.0455   10.2065   -0.9543 N.pl3     1 RES1    0.0000
      8 C2         1.4844    8.6983    0.9313 C.ar      1 RES1    0.0000
      9 C3         3.2240   10.2063    0.1695 C.ar      1 RES1    0.0000
     10 O4         0.8251    7.3399    3.4244 O.2       1 RES1    0.0000
     11 C4         2.3301    8.2623    1.9321 C.ar      1 RES1    0.0000
     12 C5         3.9126    8.2906    4.4402 C.ar      1 RES1    0.0000
     13 O5         5.4571   11.5194    1.4184 O.2       1 RES1    0.0000
     14 O6        -0.0087    9.6140   -1.1487 O.2       1 RES1    0.0000
     15 C6         1.9498    9.6739    0.0720 C.ar      1 RES1    0.0000
     16 C7         3.0805    9.2490    5.0183 C.ar      1 RES1    0.0000
     17 O7         6.3173    9.5344    1.3655 O.2       1 RES1    0.0000
     18 C8         4.3674    7.1521    5.0972 C.ar      1 RES1    0.0000
     19 C9         2.6367    8.9796    6.3135 C.ar      1 RES1    0.0000
     20 C10        4.0311    9.7323    1.1811 C.ar      1 RES1    0.0000
     21 C11        3.0260    7.8331    6.9843 C.ar      1 RES1    0.0000
     22 C12        2.6784   10.5300    4.3331 C.3       1 RES1    0.0000
     23 C13        3.8914    6.9383    6.3862 C.ar      1 RES1    0.0000
     24 C14        5.3351    6.2036    4.4446 C.3       1 RES1    0.0000
     25 H1         2.6765    7.7004    7.8576 H         1 RES1    0.0000
     26 H2         3.5424   10.8835   -0.4336 H         1 RES1    0.0000
     27 H3         0.6340    8.3256    0.8718 H         1 RES1    0.0000
     28 H4         2.0815    9.6332    6.7353 H         1 RES1    0.0000
     29 H5         3.3934   10.9217    3.8519 H         1 RES1    0.0000
     30 H6         1.9245   10.4006    3.6957 H         1 RES1    0.0000
     31 H7         2.3484   11.1735    4.9684 H         1 RES1    0.0000
     32 H8         6.1322    6.6694    4.0757 H         1 RES1    0.0000
     33 H9         4.9109    5.6959    3.7225 H         1 RES1    0.0000
     34 H10        5.6542    5.5959    5.0698 H         1 RES1    0.0000
     35 H11        4.1881    6.1781    6.8658 H         1 RES1    0.0000
@<TRIPOS>BOND
     1    1    4 1
     2    2    3 2
     3    4   11 ar
     4    5    7 2
     5    6   13 2
     6    7   14 2
     7    8   11 ar
     8    9   15 ar
     9   10    2 2
    10   11    2 1
    11   12    1 1
    12   15    7 1
    13   16   12 ar
    14   17    6 2
    15   18   12 ar
    16   19   16 ar
    17   20    4 ar
    18   21   19 ar
    19   22   16 1
    20   23   18 ar
    21   24   18 1
    22   25   21 1
    23   26    9 1
    24   27    8 1
    25   28   19 1
    26   29   22 1
    27   30   22 1
    28   31   22 1
    29   32   24 1
    30   33   24 1
    31   34   24 1
    32   35   23 1
    33    6   20 1
    34    8   15 ar
    35    9   20 ar
    36   21   23 ar
@<TRIPOS>SUBSTRUCTURE
     1 RES1 1

@<TRIPOS>CRYSIN
   7.8934    8.6750   12.2830  72.3100  78.2200  65.4700   2 1

