# MOL2 file generated by ConQuest
# Please check atom types

@<TRIPOS>MOLECULE
DARSOG
    75    74     3
SMALL
NO_CHARGES
****
Generated from CSD

@<TRIPOS>ATOM
      1 O1         5.1354   19.4095    2.1070 O.2       1 RES1    0.0000
      2 C1         6.1912   19.9699    1.8310 C.2       1 RES1    0.0000
      3 N1         6.2732   21.2965    1.4891 N.am      1 RES1    0.0000
      4 C2         5.2035   22.2121    1.5314 C.ar      1 RES1    0.0000
      5 C3         5.4742   23.5454    1.8166 C.ar      1 RES1    0.0000
      6 C4         4.4516   24.4760    1.9067 C.ar      1 RES1    0.0000
      7 C5         3.1331   24.1033    1.6902 C.ar      1 RES1    0.0000
      8 C6         2.9018   22.7808    1.3780 C.ar      1 RES1    0.0000
      9 C7         3.8866   21.8196    1.2913 C.ar      1 RES1    0.0000
     10 N2         7.4002   19.3292    1.8291 N.am      1 RES1    0.0000
     11 C8         7.5527   17.9489    2.0950 C.ar      1 RES1    0.0000
     12 C9         6.9383   17.3355    3.1858 C.ar      1 RES1    0.0000
     13 C10        7.1106   15.9785    3.3960 C.ar      1 RES1    0.0000
     14 C11        7.9217   15.2192    2.5518 C.ar      1 RES1    0.0000
     15 C12        8.5671   15.8393    1.4947 C.ar      1 RES1    0.0000
     16 C13        8.3835   17.2040    1.2682 C.ar      1 RES1    0.0000
     17 C14        9.4493   15.0668    0.5689 C.2       1 RES1    0.0000
     18 O2         9.6754   13.8519    0.7817 O.2       1 RES1    0.0000
     19 O3         9.9252   15.7184   -0.4129 O.3       1 RES1    0.0000
     20 C15        6.4199   15.2956    4.5273 C.2       1 RES1    0.0000
     21 O4         5.7164   16.0508    5.3018 O.3       1 RES1    0.0000
     22 O5         6.5237   14.0679    4.6615 O.2       1 RES1    0.0000
     23 O6         4.8014   13.2488    1.9160 O.2       2 RES2    0.0000
     24 C16        4.5755   14.4709    1.7653 C.2       2 RES2    0.0000
     25 O7         5.0615   15.1691    0.8066 O.3       2 RES2    0.0000
     26 C17        3.7193   15.1713    2.7592 C.ar      2 RES2    0.0000
     27 C18        3.0023   14.4184    3.6845 C.ar      2 RES2    0.0000
     28 C19        2.2462   15.0916    4.6442 C.ar      2 RES2    0.0000
     29 C20        1.4107   14.3105    5.5959 C.2       2 RES2    0.0000
     30 O8         0.7428   15.0263    6.4424 O.3       2 RES2    0.0000
     31 O9         1.3752   13.0717    5.5641 O.2       2 RES2    0.0000
     32 C21        2.2325   16.4733    4.7062 C.ar      2 RES2    0.0000
     33 C22        2.9406   17.2234    3.7680 C.ar      2 RES2    0.0000
     34 N3         2.9753   18.6254    3.8095 N.am      2 RES2    0.0000
     35 C23        1.9644   19.3954    4.3291 C.2       2 RES2    0.0000
     36 O10        0.9368   18.9426    4.7877 O.2       2 RES2    0.0000
     37 N4         2.2222   20.7495    4.2738 N.am      2 RES2    0.0000
     38 C24        1.2803   21.7596    4.5150 C.ar      2 RES2    0.0000
     39 C25        1.7292   23.0785    4.6407 C.ar      2 RES2    0.0000
     40 C26        0.8369   24.1094    4.8639 C.ar      2 RES2    0.0000
     41 C27       -0.5224   23.8734    4.9734 C.ar      2 RES2    0.0000
     42 C28       -0.9445   22.5659    4.8290 C.ar      2 RES2    0.0000
     43 C29       -0.0915   21.4983    4.6010 C.ar      2 RES2    0.0000
     44 C30        3.6650   16.5597    2.7719 C.ar      2 RES2    0.0000
     45 O11       -2.7819   21.1648    4.5782 O.2       2 RES2    0.0000
     46 N5        -2.3831   22.2644    4.9205 N.pl3     2 RES2    0.0000
     47 N6         1.5166   22.3363    1.1447 N.pl3     1 RES1    0.0000
     48 O12       -3.1665   23.1727    5.2024 O.2       2 RES2    0.0000
     49 O13        0.6037   23.1480    1.0525 O.2       1 RES1    0.0000
     50 O14        1.3490   21.1156    1.0173 O.2       1 RES1    0.0000
     51 H1         6.3677   23.8009    1.9639 H         1 RES1    0.0000
     52 H2         4.6952   25.3657    2.1020 H         1 RES1    0.0000
     53 H3         2.4248   24.7320    1.7459 H         1 RES1    0.0000
     54 H4         3.6761   20.8963    1.0706 H         1 RES1    0.0000
     55 H5         6.4174   17.8499    3.7630 H         1 RES1    0.0000
     56 H6         8.0178   14.3061    2.6835 H         1 RES1    0.0000
     57 H7         8.8340   17.6359    0.5562 H         1 RES1    0.0000
     58 H8         3.0215   13.4695    3.7073 H         2 RES2    0.0000
     59 H9         1.7629   16.9077    5.3937 H         2 RES2    0.0000
     60 H10        2.6563   23.2755    4.5866 H         2 RES2    0.0000
     61 H11        1.1320   24.9599    4.9034 H         2 RES2    0.0000
     62 H12       -1.1532   24.5291    5.1707 H         2 RES2    0.0000
     63 H13       -0.4539   20.6267    4.5156 H         2 RES2    0.0000
     64 H14        4.1247   17.0634    2.1083 H         2 RES2    0.0000
     65 H15        3.6034   19.0479    3.3741 H         2 RES2    0.0000
     66 H16        7.0449   21.6245    1.3646 H         1 RES1    0.0000
     67 H17        3.0499   20.9630    4.1748 H         2 RES2    0.0000
     68 H18        8.0431   19.7456    1.4507 H         1 RES1    0.0000
     69 H19        5.2775   15.5569    5.8536 H         1 RES1    0.0000
     70 H20        0.2690   14.5785    6.9331 H         2 RES2    0.0000
     71 H21       10.5358   15.2873   -0.8831 H         1 RES1    0.0000
     72 H22        5.6577   14.7286    0.2800 H         2 RES2    0.0000
     73 O15        1.2234   21.1851    0.7970 Du        3 SUP3    0.0000
     74 O16        0.6605   23.1933    1.3646 Du        3 SUP3    0.0000
     75 O17       -3.0128   23.0810    5.6129 Du        3 SUP3    0.0000
@<TRIPOS>BOND
     1    1    2 2
     2    2    3 1
     3    3    4 1
     4    4    5 ar
     5    5    6 ar
     6    6    7 ar
     7    7    8 ar
     8    8    9 ar
     9    9    4 ar
    10   10    2 1
    11   11   10 1
    12   12   11 ar
    13   13   12 ar
    14   14   13 ar
    15   15   14 ar
    16   16   11 ar
    17   17   15 1
    18   18   17 2
    19   19   17 1
    20   20   13 1
    21   21   20 1
    22   22   20 2
    23   23   24 2
    24   24   25 1
    25   25   72 1
    26   26   24 1
    27   27   26 ar
    28   28   27 ar
    29   29   28 1
    30   30   29 1
    31   31   29 2
    32   32   28 ar
    33   33   32 ar
    34   34   33 1
    35   35   34 1
    36   36   35 2
    37   37   35 1
    38   38   37 1
    39   39   38 ar
    40   40   39 ar
    41   41   40 ar
    42   42   41 ar
    43   43   38 ar
    44   44   26 ar
    45   45   46 2
    46   46   42 1
    47   47    8 1
    48   48   46 2
    49   49   47 2
    50   50   47 2
    51   51    5 1
    52   52    6 1
    53   53    7 1
    54   54    9 1
    55   55   12 1
    56   56   14 1
    57   57   16 1
    58   58   27 1
    59   59   32 1
    60   60   39 1
    61   61   40 1
    62   62   41 1
    63   63   43 1
    64   64   44 1
    65   65   34 1
    66   66    3 1
    67   67   37 1
    68   68   10 1
    69   69   21 1
    70   70   30 1
    71   71   19 1
    72   15   16 ar
    73   33   44 ar
    74   42   43 ar
@<TRIPOS>SUBSTRUCTURE
     1 RES1 1
     2 RES2 23
     3 SUP3 73

@<TRIPOS>CRYSIN
   8.2380   27.7950   12.9301  90.0000 101.5080  90.0000 231 1

