# MOL2 file generated by ConQuest
# Please check atom types

@<TRIPOS>MOLECULE
DARWAX
    27    28     1
SMALL
NO_CHARGES
****
Generated from CSD

@<TRIPOS>ATOM
      1 C1         3.5977    5.0600    3.6657 C.ar      1 RES1    0.0000
      2 N1         4.5607    4.2711    4.4516 N.pl3     1 RES1    0.0000
      3 O1         4.5119    4.3574    5.6653 O.2       1 RES1    0.0000
      4 O2         5.3461    3.5638    3.8501 O.2       1 RES1    0.0000
      5 C2         3.6305    4.9134    2.2993 C.ar      1 RES1    0.0000
      6 H1         4.2620    4.3688    1.8331 H         1 RES1    0.0000
      7 C3         2.6990    5.6207    1.5692 C.ar      1 RES1    0.0000
      8 N2         2.7268    5.5130    0.1058 N.pl3     1 RES1    0.0000
      9 O3         3.6192    4.9172   -0.4104 O.2       1 RES1    0.0000
     10 O4         1.8654    6.0591   -0.5351 O.2       1 RES1    0.0000
     11 C4         1.7533    6.4272    2.1544 C.ar      1 RES1    0.0000
     12 H2         1.1463    6.7976    1.5954 H         1 RES1    0.0000
     13 C5         1.7541    6.5525    3.5279 C.ar      1 RES1    0.0000
     14 H3         1.1091    7.1032    3.9037 H         1 RES1    0.0000
     15 C6         2.6956    5.8910    4.3121 C.ar      1 RES1    0.0000
     16 C7         2.6242    6.1194    5.8055 C.2       1 RES1    0.0000
     17 O5         1.6877    5.6894    6.4345 O.2       1 RES1    0.0000
     18 C8         3.6596    6.9901    6.4282 C.ar      1 RES1    0.0000
     19 C9         3.7274    7.1184    7.8045 C.ar      1 RES1    0.0000
     20 H4         3.1456    6.6907    8.3732 H         1 RES1    0.0000
     21 C10        4.7006    7.9387    8.3273 C.ar      1 RES1    0.0000
     22 H5         4.8306    8.0884    9.1992 H         1 RES1    0.0000
     23 C11        5.5577    8.5849    7.4877 C.ar      1 RES1    0.0000
     24 H6         6.1895    9.2112    7.7961 H         1 RES1    0.0000
     25 C12        5.4082    8.4077    6.1316 C.ar      1 RES1    0.0000
     26 H7         5.9658    8.9286    5.4878 H         1 RES1    0.0000
     27 N3         4.4819    7.6187    5.5880 N.ar      1 RES1    0.0000
@<TRIPOS>BOND
     1    1    2 1
     2    2    3 2
     3    4    2 2
     4    5    1 ar
     5    6    5 1
     6    7    5 ar
     7    8    7 1
     8    9    8 2
     9   10    8 2
    10   11    7 ar
    11   12   11 1
    12   13   11 ar
    13   14   13 1
    14   15    1 ar
    15   16   15 1
    16   17   16 2
    17   18   16 1
    18   19   18 ar
    19   20   19 1
    20   21   19 ar
    21   22   21 1
    22   23   21 ar
    23   24   23 1
    24   25   23 ar
    25   26   25 1
    26   27   18 ar
    27   13   15 ar
    28   25   27 ar
@<TRIPOS>SUBSTRUCTURE
     1 RES1 1

@<TRIPOS>CRYSIN
  13.7314    7.6378   11.6746  90.0000 104.2550  90.0000   9 1

