# MOL2 file generated by ConQuest
# Please check atom types

@<TRIPOS>MOLECULE
DARWEB
    25    26     1
SMALL
NO_CHARGES
****
Generated from CSD

@<TRIPOS>ATOM
      1 C1         1.5440    2.3253    5.7250 C.ar      1 RES1    0.0000
      2 H1         0.6020    2.1533    5.6137 H         1 RES1    0.0000
      3 C2         2.3971    2.1117    4.6638 C.ar      1 RES1    0.0000
      4 H2         2.0467    1.7935    3.8230 H         1 RES1    0.0000
      5 C3         3.7393    2.3659    4.8545 C.ar      1 RES1    0.0000
      6 N1         4.6682    2.1399    3.7391 N.pl3     1 RES1    0.0000
      7 O1         4.2075    1.7586    2.6765 O.2       1 RES1    0.0000
      8 O2         5.8506    2.3444    3.9191 O.2       1 RES1    0.0000
      9 C4         4.2562    2.8273    6.0419 C.ar      1 RES1    0.0000
     10 H3         5.1532    3.0012    6.1336 H         1 RES1    0.0000
     11 C5         3.3862    3.0283    7.0952 C.ar      1 RES1    0.0000
     12 H4         3.7336    3.3681    7.9360 H         1 RES1    0.0000
     13 C6         2.0296    2.7776    6.9491 C.ar      1 RES1    0.0000
     14 C7         1.0444    3.0551    8.0346 C.2       1 RES1    0.0000
     15 O3        -0.1194    3.2585    7.7644 O.2       1 RES1    0.0000
     16 C8         1.4791    3.1079    9.4639 C.ar      1 RES1    0.0000
     17 C9         0.8148    3.9788   10.3159 C.ar      1 RES1    0.0000
     18 H5         0.1519    4.5844   10.0081 H         1 RES1    0.0000
     19 C10        1.1484    3.9742   11.6492 C.ar      1 RES1    0.0000
     20 H6         0.6425    4.5639   12.2381 H         1 RES1    0.0000
     21 N2         2.0733    3.1846   12.1806 N.ar      1 RES1    0.0000
     22 C11        2.6991    2.3570   11.3544 C.ar      1 RES1    0.0000
     23 H7         3.3284    1.7620   11.7462 H         1 RES1    0.0000
     24 C12        2.4433    2.2745    9.9955 C.ar      1 RES1    0.0000
     25 H8         2.9146    1.5986    9.4646 H         1 RES1    0.0000
@<TRIPOS>BOND
     1    1    2 1
     2    3    1 ar
     3    4    3 1
     4    5    3 ar
     5    6    5 1
     6    7    6 2
     7    8    6 2
     8    9    5 ar
     9   10    9 1
    10   11    9 ar
    11   12   11 1
    12   13    1 ar
    13   14   13 1
    14   15   14 2
    15   16   14 1
    16   17   16 ar
    17   18   17 1
    18   19   17 ar
    19   20   19 1
    20   21   19 ar
    21   22   21 ar
    22   23   22 1
    23   24   16 ar
    24   25   24 1
    25   11   13 ar
    26   22   24 ar
@<TRIPOS>SUBSTRUCTURE
     1 RES1 1

@<TRIPOS>CRYSIN
   7.1510    7.5081   10.8910  80.5975  84.8372  64.8862   2 1

