# MOL2 file generated by ConQuest
# Please check atom types

@<TRIPOS>MOLECULE
DASKAJ
    26    28     1
SMALL
NO_CHARGES
****
Generated from CSD

@<TRIPOS>ATOM
      1 O1         4.9836    4.5850   -1.2399 O.3       1 RES1    0.0000
      2 O2         1.3387    3.5847   -0.0205 O.3       1 RES1    0.0000
      3 O3         2.2119    3.2368    1.9878 O.2       1 RES1    0.0000
      4 O4         3.3661    1.7373   -2.4388 O.2       1 RES1    0.0000
      5 O5         4.1347    3.4452   -3.5842 O.3       1 RES1    0.0000
      6 N1         5.8108    4.0426   -0.1962 N.3       1 RES1    0.0000
      7 C1         6.5327    2.8713   -0.5979 C.ar      1 RES1    0.0000
      8 C2         7.2308    2.6748   -1.7700 C.ar      1 RES1    0.0000
      9 C3         7.9968    1.5152   -1.9118 C.ar      1 RES1    0.0000
     10 C4         8.0094    0.5955   -0.8639 C.ar      1 RES1    0.0000
     11 C5         7.2893    0.8058    0.3051 C.ar      1 RES1    0.0000
     12 C6         6.5311    1.9496    0.4366 C.ar      1 RES1    0.0000
     13 C7         5.7037    2.4723    1.5964 C.3       1 RES1    0.0000
     14 C8         4.8772    3.5592    0.8650 C.3       1 RES1    0.0000
     15 C9         3.6386    3.0973    0.0627 C.3       1 RES1    0.0000
     16 C10        3.7661    3.8009   -1.2934 C.3       1 RES1    0.0000
     17 C11        2.3456    3.3174    0.8013 C.2       1 RES1    0.0000
     18 C12        0.0238    3.7518    0.5845 C.3       1 RES1    0.0000
     19 C13        3.7476    2.8517   -2.4758 C.2       1 RES1    0.0000
     20 C14        4.0835    2.6477   -4.7964 C.3       1 RES1    0.0000
     21 C15        4.8633    1.3954    2.2806 C.3       1 RES1    0.0000
     22 C16        6.6197    3.1543    2.6227 C.3       1 RES1    0.0000
     23 C17        8.7626    1.2696   -3.2236 C.3       1 RES1    0.0000
     24 C18        7.7295    1.0534   -4.3372 C.3       1 RES1    0.0000
     25 C19        9.6390    2.4586   -3.5482 C.3       1 RES1    0.0000
     26 C20        9.5866   -0.0334   -3.1630 C.3       1 RES1    0.0000
@<TRIPOS>BOND
     1    1    6 1
     2    2   17 1
     3    3   17 2
     4    4   19 2
     5    5   19 1
     6    6    7 1
     7    7    8 ar
     8    8    9 ar
     9    9   10 ar
    10   10   11 ar
    11   11   12 ar
    12   12    7 ar
    13   13   12 1
    14   14    6 1
    15   15   14 1
    16   16    1 1
    17   17   15 1
    18   18    2 1
    19   19   16 1
    20   20    5 1
    21   21   13 1
    22   22   13 1
    23   23    9 1
    24   24   23 1
    25   25   23 1
    26   26   23 1
    27   13   14 1
    28   15   16 1
@<TRIPOS>SUBSTRUCTURE
     1 RES1 1

@<TRIPOS>CRYSIN
   9.8290   19.6530   10.4560  90.0000 100.7400  90.0000  14 1

