# MOL2 file generated by ConQuest
# Please check atom types

@<TRIPOS>MOLECULE
DASTUO
    29    29     1
SMALL
USER_CHARGES
****
Generated from CSD

@<TRIPOS>ATOM
      1 O1         1.9627    4.9727    5.2208 O.2       1 RES1   -1.0000
      2 O2        -2.1669    0.6103    6.8547 O.2       1 RES1    0.0000
      3 C1         1.4106    3.6189    7.0966 C.ar      1 RES1    0.0000
      4 H1         2.1556    3.9491    7.5850 H         1 RES1    0.0000
      5 N1        -1.1931    5.0811    3.5952 N.4       1 RES1    1.0000
      6 C2         0.0769    3.5355    5.0666 C.ar      1 RES1    0.0000
      7 C3        -0.4992    2.1982    6.9717 C.ar      1 RES1    0.0000
      8 O3        -1.2496    0.9786    8.7743 O.2       1 RES1    0.0000
      9 C4        -0.7379    2.6001    5.6642 C.ar      1 RES1    0.0000
     10 H2        -1.4659    2.2285    5.1799 H         1 RES1    0.0000
     11 N2        -1.3548    1.2121    7.5712 N.pl3     1 RES1    0.0000
     12 C5        -0.1998    3.9630    3.6560 C.3       1 RES1    0.0000
     13 H3         0.6457    4.2546    3.2323 H         1 RES1    0.0000
     14 H4        -0.5472    3.1905    3.1438 H         1 RES1    0.0000
     15 C6         1.1944    4.0890    5.7709 C.ar      1 RES1    0.0000
     16 C7        -2.7831    6.3600    2.1529 C.3       1 RES1    0.0000
     17 H5        -2.4487    7.2443    2.4454 H         1 RES1    0.0000
     18 H6        -3.5055    6.0828    2.7710 H         1 RES1    0.0000
     19 C8        -1.6578    5.3493    2.2007 C.3       1 RES1    0.0000
     20 H7        -1.9659    4.5014    1.7922 H         1 RES1    0.0000
     21 H8        -0.8971    5.6855    1.6643 H         1 RES1    0.0000
     22 C9         0.5808    2.7065    7.6921 C.ar      1 RES1    0.0000
     23 H9         0.7394    2.4234    8.5853 H         1 RES1    0.0000
     24 C10       -3.3331    6.4639    0.7404 C.3       1 RES1    0.0000
     25 H10       -4.0605    7.1197    0.7200 H         1 RES1    0.0000
     26 H11       -3.6737    5.5897    0.4574 H         1 RES1    0.0000
     27 H12       -2.6195    6.7484    0.1318 H         1 RES1    0.0000
     28 H13       -1.9212    4.8601    4.0812 H         1 RES1    0.0000
     29 H14       -0.8254    5.8681    3.9425 H         1 RES1    0.0000
@<TRIPOS>BOND
     1    1   15 1
     2    2   11 2
     3    3    4 1
     4    5   12 1
     5    6    9 ar
     6    7    9 ar
     7    8   11 2
     8    9   10 1
     9   11    7 1
    10   12    6 1
    11   13   12 1
    12   14   12 1
    13   15    3 ar
    14   16   17 1
    15   18   16 1
    16   19    5 1
    17   20   19 1
    18   21   19 1
    19   22    3 ar
    20   23   22 1
    21   24   16 1
    22   25   24 1
    23   26   24 1
    24   27   24 1
    25   28    5 1
    26   29    5 1
    27    6   15 ar
    28    7   22 ar
    29   16   19 1
@<TRIPOS>SUBSTRUCTURE
     1 RES1 1

@<TRIPOS>CRYSIN
   5.3910    9.6335   10.2582  73.5160  87.8350  82.8860   2 1

