# MOL2 file generated by ConQuest
# Please check atom types

@<TRIPOS>MOLECULE
DATGEN
   136   146     2
SMALL
NO_CHARGES
****
Generated from CSD

@<TRIPOS>ATOM
      1 C1         2.4709    7.4884    2.6194 C.3       1 RES1    0.0000
      2 C2         3.7285    7.0873    1.8785 C.3       1 RES1    0.0000
      3 H1         3.5005    6.8582    0.9424 H         1 RES1    0.0000
      4 H2         4.1192    6.2827    2.3036 H         1 RES1    0.0000
      5 C3         4.7787    8.2402    1.8896 C.3       1 RES1    0.0000
      6 H3         5.5737    7.9610    1.3697 H         1 RES1    0.0000
      7 H4         5.0677    8.4079    2.8209 H         1 RES1    0.0000
      8 C4         4.2102    9.5641    1.2833 C.3       1 RES1    0.0000
      9 C5         2.9759    9.9546    1.9992 C.3       1 RES1    0.0000
     10 H5         2.5590   10.7043    1.5052 H         1 RES1    0.0000
     11 H6         3.2348   10.2987    2.8910 H         1 RES1    0.0000
     12 C6         1.8852    8.8421    2.2059 C.3       1 RES1    0.0000
     13 C7         1.0617    9.2374    3.4324 C.3       1 RES1    0.0000
     14 H7         0.8927   10.2130    3.4419 H         1 RES1    0.0000
     15 H8         0.1931    8.7624    3.4393 H         1 RES1    0.0000
     16 C8         1.9077    8.8270    4.6172 C.3       1 RES1    0.0000
     17 H9         2.5493    9.5597    4.8457 H         1 RES1    0.0000
     18 C9         2.6879    7.5689    4.1649 C.3       1 RES1    0.0000
     19 H10        2.3349    6.7583    4.6108 H         1 RES1    0.0000
     20 H11        3.6506    7.6570    4.3791 H         1 RES1    0.0000
     21 C10        1.0926    8.6279    0.9337 C.3       1 RES1    0.0000
     22 H12        1.6087    8.9319    0.1458 H         1 RES1    0.0000
     23 H13        0.2379    9.1262    0.9669 H         1 RES1    0.0000
     24 C11        0.8299    7.0777    0.8616 C.3       1 RES1    0.0000
     25 H14       -0.1397    6.8925    0.7831 H         1 RES1    0.0000
     26 H15        1.2933    6.6821    0.0816 H         1 RES1    0.0000
     27 C12        1.3690    6.5173    2.1310 C.3       1 RES1    0.0000
     28 H16        1.7733    5.6202    1.9516 H         1 RES1    0.0000
     29 C13        5.5291   11.0450    0.0763 C.3       1 RES1    0.0000
     30 H17        6.4947   11.2500    0.0023 H         1 RES1    0.0000
     31 H18        5.0063   11.8488   -0.1697 H         1 RES1    0.0000
     32 C14        5.1564    9.8723   -0.7811 C.3       1 RES1    0.0000
     33 H19        4.9294   10.1583   -1.7010 H         1 RES1    0.0000
     34 H20        5.8898    9.2084   -0.8187 H         1 RES1    0.0000
     35 C15       -0.4862    5.3448    3.0578 C.2       1 RES1    0.0000
     36 C16       -1.3882    5.1724    4.2398 C.ar      1 RES1    0.0000
     37 C17       -1.4053    6.0774    5.2928 C.ar      1 RES1    0.0000
     38 H21       -0.8670    6.8597    5.2583 H         1 RES1    0.0000
     39 C18       -2.2108    5.8332    6.3930 C.ar      1 RES1    0.0000
     40 H22       -2.2490    6.4523    7.1125 H         1 RES1    0.0000
     41 C19       -2.9576    4.6732    6.4235 C.ar      1 RES1    0.0000
     42 C20       -2.9840    3.7731    5.3858 C.ar      1 RES1    0.0000
     43 H23       -3.5239    2.9933    5.4257 H         1 RES1    0.0000
     44 C21       -2.1952    4.0432    4.2745 C.ar      1 RES1    0.0000
     45 H24       -2.2079    3.4505    3.5321 H         1 RES1    0.0000
     46 C22        1.6341    8.4910    6.9535 C.2       1 RES1    0.0000
     47 C23        0.6560    8.2569    8.0454 C.ar      1 RES1    0.0000
     48 C24        1.1078    7.6921    9.2205 C.ar      1 RES1    0.0000
     49 H25        2.0316    7.5017    9.3317 H         1 RES1    0.0000
     50 C25        0.2021    7.3994   10.2513 C.ar      1 RES1    0.0000
     51 H26        0.4940    6.9955   11.0605 H         1 RES1    0.0000
     52 C26       -1.1230    7.7150   10.0529 C.ar      1 RES1    0.0000
     53 C27       -1.5951    8.3381    8.9167 C.ar      1 RES1    0.0000
     54 H27       -2.5082    8.5863    8.8333 H         1 RES1    0.0000
     55 C28       -0.6866    8.5857    7.9025 C.ar      1 RES1    0.0000
     56 H28       -0.9859    8.9873    7.0945 H         1 RES1    0.0000
     57 N1        -3.7274    4.3714    7.6528 N.pl3     1 RES1    0.0000
     58 N2        -2.0882    7.3452   11.1115 N.pl3     1 RES1    0.0000
     59 O1         5.1947   10.5911    1.3888 O.3       1 RES1    0.0000
     60 O2         4.0116    9.3418   -0.1068 O.3       1 RES1    0.0000
     61 O3         0.3315    6.3870    3.1896 O.3       1 RES1    0.0000
     62 O4        -0.4996    4.5963    2.1046 O.2       1 RES1    0.0000
     63 O5        -3.8279    5.2439    8.5060 O.2       1 RES1    0.0000
     64 O6        -4.2013    3.2425    7.7679 O.2       1 RES1    0.0000
     65 O7         1.0350    8.5604    5.7562 O.3       1 RES1    0.0000
     66 O8         2.8277    8.5899    7.1283 O.2       1 RES1    0.0000
     67 O9        -3.2271    7.7960   11.0449 O.2       1 RES1    0.0000
     68 O10       -1.7008    6.5842   11.9897 O.2       1 RES1    0.0000
     69 C29        2.8056   -0.3504   11.5596 C.3       2 RES2    0.0000
     70 C30        2.8174   -1.0419   12.9359 C.3       2 RES2    0.0000
     71 H29        3.7374   -1.3450   13.1397 H         2 RES2    0.0000
     72 H30        2.5526   -0.3876   13.6304 H         2 RES2    0.0000
     73 C31        1.8772   -2.2344   12.9941 C.3       2 RES2    0.0000
     74 H31        1.8979   -2.6268   13.9028 H         2 RES2    0.0000
     75 H32        2.1836   -2.9265   12.3553 H         2 RES2    0.0000
     76 C32        0.4411   -1.8249   12.6501 C.3       2 RES2    0.0000
     77 C33        0.3671   -1.1831   11.2932 C.3       2 RES2    0.0000
     78 H33       -0.5484   -0.8294   11.1602 H         2 RES2    0.0000
     79 H34        0.5219   -1.8775   10.6051 H         2 RES2    0.0000
     80 C34        1.3774   -0.0330   11.0699 C.3       2 RES2    0.0000
     81 C35        1.5987    0.1604    9.5715 C.3       2 RES2    0.0000
     82 H35        0.7452    0.0864    9.0750 H         2 RES2    0.0000
     83 H36        2.0050    1.0432    9.3840 H         2 RES2    0.0000
     84 C36        2.5463   -0.9676    9.1969 C.3       2 RES2    0.0000
     85 H37        2.0190   -1.7895    8.9840 H         2 RES2    0.0000
     86 C37        3.4374   -1.2295   10.4372 C.3       2 RES2    0.0000
     87 H38        4.3736   -0.9609   10.2637 H         2 RES2    0.0000
     88 H39        3.4195   -2.1878   10.6879 H         2 RES2    0.0000
     89 C38        1.0029    1.2389   11.8190 C.3       2 RES2    0.0000
     90 H40        0.6829    1.0278   12.7310 H         2 RES2    0.0000
     91 H41        0.2928    1.7337   11.3373 H         2 RES2    0.0000
     92 C39        2.2983    2.0648   11.8745 C.3       2 RES2    0.0000
     93 H42        2.3276    2.7183   11.1305 H         2 RES2    0.0000
     94 H43        2.3621    2.5563   12.7313 H         2 RES2    0.0000
     95 C40        3.4417    1.0536   11.7469 C.3       2 RES2    0.0000
     96 H44        3.9996    1.0653   12.5770 H         2 RES2    0.0000
     97 C41       -0.6997   -1.9078   14.6465 C.3       2 RES2    0.0000
     98 H45       -1.5258   -1.5280   15.0386 H         2 RES2    0.0000
     99 H46       -0.0488   -2.0814   15.3722 H         2 RES2    0.0000
    100 C42       -0.9971   -3.1716   13.8682 C.3       2 RES2    0.0000
    101 H47       -0.6191   -3.9603   14.3318 H         2 RES2    0.0000
    102 H48       -1.9749   -3.2977   13.7745 H         2 RES2    0.0000
    103 C43        5.0231    2.4925   10.7091 C.2       2 RES2    0.0000
    104 C44        5.8697    2.7451    9.4980 C.ar      2 RES2    0.0000
    105 C45        5.8775    1.8814    8.4089 C.ar      2 RES2    0.0000
    106 H49        5.3318    1.1039    8.4132 H         2 RES2    0.0000
    107 C46        6.6869    2.1619    7.3115 C.ar      2 RES2    0.0000
    108 H50        6.7318    1.5607    6.5769 H         2 RES2    0.0000
    109 C47        7.4162    3.3159    7.3115 C.ar      2 RES2    0.0000
    110 C48        7.4270    4.2069    8.3811 C.ar      2 RES2    0.0000
    111 H51        7.9493    4.9994    8.3523 H         2 RES2    0.0000
    112 C49        6.6535    3.9005    9.4896 C.ar      2 RES2    0.0000
    113 H52        6.6556    4.4787   10.2435 H         2 RES2    0.0000
    114 C50        2.8364   -0.6116    6.8758 C.2       2 RES2    0.0000
    115 C51        3.8470   -0.3475    5.7909 C.ar      2 RES2    0.0000
    116 C52        5.1831   -0.7172    5.9491 C.ar      2 RES2    0.0000
    117 H53        5.4658   -1.1593    6.7407 H         2 RES2    0.0000
    118 C53        6.0939   -0.4372    4.9460 C.ar      2 RES2    0.0000
    119 H54        7.0070   -0.6828    5.0364 H         2 RES2    0.0000
    120 C54        5.6442    0.2133    3.8014 C.ar      2 RES2    0.0000
    121 C55        4.3086    0.5467    3.6210 C.ar      2 RES2    0.0000
    122 H55        4.0250    0.9701    2.8192 H         2 RES2    0.0000
    123 C56        3.4068    0.2618    4.6047 C.ar      2 RES2    0.0000
    124 H56        2.4880    0.4728    4.4880 H         2 RES2    0.0000
    125 N3         8.1879    3.6609    6.1100 N.pl3     2 RES2    0.0000
    126 N4         6.6208    0.5878    2.7747 N.pl3     2 RES2    0.0000
    127 O11       -0.1414   -1.0183   13.6504 O.3       2 RES2    0.0000
    128 O12       -0.3992   -3.0064   12.6085 O.3       2 RES2    0.0000
    129 O13        4.2751    1.3771   10.5815 O.3       2 RES2    0.0000
    130 O14        5.0305    3.2036   11.6748 O.2       2 RES2    0.0000
    131 O15        8.3022    2.8035    5.2290 O.2       2 RES2    0.0000
    132 O16        8.6637    4.7908    6.0226 O.2       2 RES2    0.0000
    133 O17        3.4184   -0.6442    8.0704 O.3       2 RES2    0.0000
    134 O18        1.6560   -0.7748    6.6691 O.2       2 RES2    0.0000
    135 O19        6.2245    1.3011    1.8521 O.2       2 RES2    0.0000
    136 O20        7.7770    0.1946    2.8941 O.2       2 RES2    0.0000
@<TRIPOS>BOND
     1    1    2 1
     2    2    3 1
     3    4    2 1
     4    5    2 1
     5    6    5 1
     6    7    5 1
     7    8    5 1
     8    9    8 1
     9   10    9 1
    10   11    9 1
    11   12    1 1
    12   13   12 1
    13   14   13 1
    14   15   13 1
    15   16   13 1
    16   17   16 1
    17   18    1 1
    18   19   18 1
    19   20   18 1
    20   21   12 1
    21   22   21 1
    22   23   21 1
    23   24   21 1
    24   25   24 1
    25   26   24 1
    26   27    1 1
    27   28   27 1
    28   29   30 1
    29   31   29 1
    30   32   29 1
    31   33   32 1
    32   34   32 1
    33   35   36 1
    34   36   37 ar
    35   37   38 1
    36   39   37 ar
    37   40   39 1
    38   41   39 ar
    39   42   41 ar
    40   43   42 1
    41   44   36 ar
    42   45   44 1
    43   46   47 1
    44   47   48 ar
    45   48   49 1
    46   50   48 ar
    47   51   50 1
    48   52   50 ar
    49   53   52 ar
    50   54   53 1
    51   55   47 ar
    52   56   55 1
    53   57   41 1
    54   58   52 1
    55   59    8 1
    56   60    8 1
    57   61   27 1
    58   62   35 2
    59   63   57 2
    60   64   57 2
    61   65   16 1
    62   66   46 2
    63   67   58 2
    64   68   58 2
    65   69   70 1
    66   70   71 1
    67   72   70 1
    68   73   70 1
    69   74   73 1
    70   75   73 1
    71   76   73 1
    72   77   76 1
    73   78   77 1
    74   79   77 1
    75   80   69 1
    76   81   80 1
    77   82   81 1
    78   83   81 1
    79   84   81 1
    80   85   84 1
    81   86   69 1
    82   87   86 1
    83   88   86 1
    84   89   80 1
    85   90   89 1
    86   91   89 1
    87   92   89 1
    88   93   92 1
    89   94   92 1
    90   95   69 1
    91   96   95 1
    92   97   98 1
    93   99   97 1
    94  100   97 1
    95  101  100 1
    96  102  100 1
    97  103  104 1
    98  104  105 ar
    99  105  106 1
   100  107  105 ar
   101  108  107 1
   102  109  107 ar
   103  110  109 ar
   104  111  110 1
   105  112  104 ar
   106  113  112 1
   107  114  115 1
   108  115  116 ar
   109  116  117 1
   110  118  116 ar
   111  119  118 1
   112  120  118 ar
   113  121  120 ar
   114  122  121 1
   115  123  115 ar
   116  124  123 1
   117  125  109 1
   118  126  120 1
   119  127   76 1
   120  128   76 1
   121  129   95 1
   122  130  103 2
   123  131  125 2
   124  132  125 2
   125  133   84 1
   126  134  114 2
   127  135  126 2
   128  136  126 2
   129    9   12 1
   130   16   18 1
   131   24   27 1
   132   29   59 1
   133   32   60 1
   134   35   61 1
   135   42   44 ar
   136   46   65 1
   137   53   55 ar
   138   77   80 1
   139   84   86 1
   140   92   95 1
   141   97  127 1
   142  100  128 1
   143  103  129 1
   144  110  112 ar
   145  114  133 1
   146  121  123 ar
@<TRIPOS>SUBSTRUCTURE
     1 RES1 1
     2 RES2 69

@<TRIPOS>CRYSIN
   7.3394   12.4108   14.7998 107.3120 100.0680  91.1400   1 1

