# MOL2 file generated by ConQuest
# Please check atom types

@<TRIPOS>MOLECULE
DATGAJ
    90    96     2
SMALL
NO_CHARGES
****
Generated from CSD

@<TRIPOS>ATOM
      1 O1         6.9462    4.6156    6.1341 O.2       1 RES1    0.0000
      2 O2        10.3208    2.5957    1.8705 O.2       1 RES1    0.0000
      3 O3        11.0399    2.7596    3.8777 O.2       1 RES1    0.0000
      4 N1         7.5412    4.6400    3.9915 N.am      1 RES1    0.0000
      5 N2        10.4044    3.1743    2.9253 N.pl3     1 RES1    0.0000
      6 N3         9.5921    5.4982    7.7849 N.1       1 RES1    0.0000
      7 N4         8.0439    7.8800    4.4526 N.1       1 RES1    0.0000
      8 C1         8.9364    4.5689    4.4058 C.3       1 RES1    0.0000
      9 H1         9.1013    3.7350    4.9327 H         1 RES1    0.0000
     10 C2         9.4789    5.8246    5.1838 C.3       1 RES1    0.0000
     11 C3        10.9276    5.9332    4.6845 C.3       1 RES1    0.0000
     12 H2        11.2973    6.8355    4.8572 H         1 RES1    0.0000
     13 H3        11.5046    5.2593    5.1227 H         1 RES1    0.0000
     14 C4        10.8153    5.6693    3.2015 C.3       1 RES1    0.0000
     15 H4        10.4179    6.4907    2.7940 H         1 RES1    0.0000
     16 C5         9.7379    4.5406    3.0819 C.3       1 RES1    0.0000
     17 C6         8.7107    4.7512    2.0174 C.ar      1 RES1    0.0000
     18 C7         8.8893    4.9085    0.6574 C.ar      1 RES1    0.0000
     19 H5         9.7598    4.8683    0.2777 H         1 RES1    0.0000
     20 C8         7.7806    5.1263   -0.1449 C.ar      1 RES1    0.0000
     21 H6         7.8834    5.2218   -1.0840 H         1 RES1    0.0000
     22 C9         6.5280    5.2040    0.4234 C.ar      1 RES1    0.0000
     23 H7         5.7782    5.3619   -0.1388 H         1 RES1    0.0000
     24 C10        6.3245    5.0585    1.7872 C.ar      1 RES1    0.0000
     25 H8         5.4560    5.1184    2.1655 H         1 RES1    0.0000
     26 C11        7.4447    4.8209    2.5801 C.ar      1 RES1    0.0000
     27 C12        6.5862    4.5761    4.9663 C.2       1 RES1    0.0000
     28 C13        5.1598    4.4215    4.5783 C.ar      1 RES1    0.0000
     29 C14        4.7210    3.1901    4.1298 C.ar      1 RES1    0.0000
     30 H9         5.3407    2.4832    3.9997 H         1 RES1    0.0000
     31 C15        3.3818    2.9887    3.8728 C.ar      1 RES1    0.0000
     32 H10        3.0771    2.1423    3.5662 H         1 RES1    0.0000
     33 C16        2.4946    4.0114    4.0602 C.ar      1 RES1    0.0000
     34 H11        1.5731    3.8706    3.8780 H         1 RES1    0.0000
     35 C17        2.9159    5.2441    4.5106 C.ar      1 RES1    0.0000
     36 H12        2.2891    5.9484    4.6282 H         1 RES1    0.0000
     37 C18        4.2613    5.4534    4.7924 C.ar      1 RES1    0.0000
     38 H13        4.5594    6.2913    5.1276 H         1 RES1    0.0000
     39 C19        9.4766    5.6377    6.6563 C.1       1 RES1    0.0000
     40 C20        8.6751    7.0034    4.8277 C.1       1 RES1    0.0000
     41 C21       12.1104    5.4205    2.4924 C.2       1 RES1    0.0000
     42 H14       12.5820    4.6202    2.6868 H         1 RES1    0.0000
     43 C22       12.6172    6.2340    1.6347 C.2       1 RES1    0.0000
     44 H15       12.1664    7.0422    1.4226 H         1 RES1    0.0000
     45 H16       13.4445    6.0267    1.2131 H         1 RES1    0.0000
     46 O4        13.2364    0.6081    7.1876 O.2       2 RES2    0.0000
     47 O5        11.9028   -0.9747   12.4674 O.2       2 RES2    0.0000
     48 O6        10.3946   -0.6983   10.9486 O.2       2 RES2    0.0000
     49 N5        13.6089    0.9945    9.3585 N.am      2 RES2    0.0000
     50 N6        11.4045   -0.3547   11.5540 N.pl3     2 RES2    0.0000
     51 N7        10.3602    2.2285    6.7837 N.1       2 RES2    0.0000
     52 N8        13.0469    4.3741    9.3867 N.1       2 RES2    0.0000
     53 C23       12.1733    1.0241    9.6028 C.3       2 RES2    0.0000
     54 H17       11.7340    0.2257    9.1907 H         2 RES2    0.0000
     55 C24       11.4347    2.3364    9.1668 C.3       2 RES2    0.0000
     56 C25       10.3176    2.4582   10.2259 C.3       2 RES2    0.0000
     57 H18        9.9423    3.3737   10.2430 H         2 RES2    0.0000
     58 H19        9.5871    1.8119   10.0505 H         2 RES2    0.0000
     59 C26       11.0363    2.1344   11.5350 C.3       2 RES2    0.0000
     60 H20       11.5967    2.9301   11.7654 H         2 RES2    0.0000
     61 C27       12.0181    0.9853   11.1411 C.3       2 RES2    0.0000
     62 C28       13.4183    1.1281   11.6499 C.ar      2 RES2    0.0000
     63 C29       13.8546    1.2959   12.9529 C.ar      2 RES2    0.0000
     64 H21       13.2352    1.3031   13.6727 H         2 RES2    0.0000
     65 C30       15.2134    1.4525   13.1885 C.ar      2 RES2    0.0000
     66 H22       15.5345    1.5552   14.0771 H         2 RES2    0.0000
     67 C31       16.1014    1.4585   12.1264 C.ar      2 RES2    0.0000
     68 H23       17.0312    1.5552   12.3013 H         2 RES2    0.0000
     69 C32       15.6711    1.3281   10.8120 C.ar      2 RES2    0.0000
     70 H24       16.2860    1.3650   10.0895 H         2 RES2    0.0000
     71 C33       14.3168    1.1425   10.5852 C.ar      2 RES2    0.0000
     72 C34       14.0444    0.6687    8.1018 C.2       2 RES2    0.0000
     73 C35       15.4965    0.3850    7.8874 C.ar      2 RES2    0.0000
     74 C36       16.0459   -0.8220    8.2930 C.ar      2 RES2    0.0000
     75 H25       15.5213   -1.4453    8.7839 H         2 RES2    0.0000
     76 C37       17.3645   -1.1142    7.9793 C.ar      2 RES2    0.0000
     77 H26       17.7454   -1.9422    8.2480 H         2 RES2    0.0000
     78 C38       18.1244   -0.2014    7.2775 C.ar      2 RES2    0.0000
     79 H27       19.0237   -0.4094    7.0519 H         2 RES2    0.0000
     80 C39       17.5869    1.0076    6.9016 C.ar      2 RES2    0.0000
     81 H28       18.1207    1.6408    6.4356 H         2 RES2    0.0000
     82 C40       16.2700    1.3018    7.2015 C.ar      2 RES2    0.0000
     83 H29       15.8965    2.1344    6.9350 H         2 RES2    0.0000
     84 C41       10.8736    2.2660    7.8085 C.1       2 RES2    0.0000
     85 C42       12.3419    3.4889    9.2484 C.1       2 RES2    0.0000
     86 C43       10.1484    1.8744   12.7081 C.2       2 RES2    0.0000
     87 H30        9.4979    1.1880   12.6301 H         2 RES2    0.0000
     88 C44       10.2133    2.5339   13.8335 C.2       2 RES2    0.0000
     89 H31       10.8531    3.2263   13.9431 H         2 RES2    0.0000
     90 H32        9.6184    2.3206   14.5448 H         2 RES2    0.0000
@<TRIPOS>BOND
     1    1   27 2
     2    2    5 2
     3    3    5 2
     4    4    8 1
     5    5   16 1
     6    6   39 3
     7    7   40 3
     8    8    9 1
     9   10    8 1
    10   11   10 1
    11   12   11 1
    12   13   11 1
    13   14   11 1
    14   15   14 1
    15   16    8 1
    16   17   16 1
    17   18   17 ar
    18   19   18 1
    19   20   18 ar
    20   21   20 1
    21   22   20 ar
    22   23   22 1
    23   24   22 ar
    24   25   24 1
    25   26    4 1
    26   27    4 1
    27   28   27 1
    28   29   28 ar
    29   30   29 1
    30   31   29 ar
    31   32   31 1
    32   33   31 ar
    33   34   33 1
    34   35   33 ar
    35   36   35 1
    36   37   28 ar
    37   38   37 1
    38   39   10 1
    39   40   10 1
    40   41   14 1
    41   42   41 1
    42   43   41 2
    43   44   43 1
    44   45   43 1
    45   46   72 2
    46   47   50 2
    47   48   50 2
    48   49   53 1
    49   50   61 1
    50   51   84 3
    51   52   85 3
    52   53   54 1
    53   55   53 1
    54   56   55 1
    55   57   56 1
    56   58   56 1
    57   59   56 1
    58   60   59 1
    59   61   53 1
    60   62   61 1
    61   63   62 ar
    62   64   63 1
    63   65   63 ar
    64   66   65 1
    65   67   65 ar
    66   68   67 1
    67   69   67 ar
    68   70   69 1
    69   71   49 1
    70   72   49 1
    71   73   72 1
    72   74   73 ar
    73   75   74 1
    74   76   74 ar
    75   77   76 1
    76   78   76 ar
    77   79   78 1
    78   80   78 ar
    79   81   80 1
    80   82   73 ar
    81   83   82 1
    82   84   55 1
    83   85   55 1
    84   86   59 1
    85   87   86 1
    86   88   86 2
    87   89   88 1
    88   90   88 1
    89   14   16 1
    90   17   26 ar
    91   24   26 ar
    92   35   37 ar
    93   59   61 1
    94   62   71 ar
    95   69   71 ar
    96   80   82 ar
@<TRIPOS>SUBSTRUCTURE
     1 RES1 1
     2 RES2 46

@<TRIPOS>CRYSIN
  23.5070    6.5815   25.1390  90.0000 104.3100  90.0000 231 1

