# MOL2 file generated by ConQuest
# Please check atom types

@<TRIPOS>MOLECULE
DATLEP
    46    49     1
SMALL
NO_CHARGES
****
Generated from CSD

@<TRIPOS>ATOM
      1 C1         6.6688    3.3852    2.2761 C.3       1 RES1    0.0000
      2 C2         5.9471    2.0706    2.3265 C.2       1 RES1    0.0000
      3 C3         5.3735    1.5443    1.2513 C.2       1 RES1    0.0000
      4 C4         5.3322    2.2511    0.0007 C.2       1 RES1    0.0000
      5 C5         5.7089    3.5121   -0.0762 C.2       1 RES1    0.0000
      6 C6         6.1683    4.3123    1.1262 C.3       1 RES1    0.0000
      7 C7         4.9780    5.2270    1.5022 C.3       1 RES1    0.0000
      8 C8         5.1305    5.9023    2.8630 C.3       1 RES1    0.0000
      9 C9         5.3252    4.8348    3.9062 C.3       1 RES1    0.0000
     10 C10        6.6265    4.1002    3.6478 C.3       1 RES1    0.0000
     11 C11        7.4208    5.0643    0.7848 C.2       1 RES1    0.0000
     12 C12        8.5089    4.4758    1.2166 C.2       1 RES1    0.0000
     13 C13        8.1879    3.2257    1.9524 C.3       1 RES1    0.0000
     14 C14        8.6704    0.9096    1.5900 C.2       1 RES1    0.0000
     15 C15        8.5794   -0.2009    0.5862 C.ar      1 RES1    0.0000
     16 C16        8.2426    0.0264   -0.7433 C.ar      1 RES1    0.0000
     17 C17        8.1539   -1.0550   -1.5913 C.ar      1 RES1    0.0000
     18 C18        8.3578   -2.3344   -1.1806 C.ar      1 RES1    0.0000
     19 C19        8.6776   -2.5305    0.1442 C.ar      1 RES1    0.0000
     20 C20        8.8104   -1.4922    1.0350 C.ar      1 RES1    0.0000
     21 O1         8.4206    2.0974    1.0337 O.3       1 RES1    0.0000
     22 O2         8.9327    0.7322    2.7372 O.2       1 RES1    0.0000
     23 N1         7.7949   -0.8326   -3.0106 N.pl3     1 RES1    0.0000
     24 N2         8.8768   -3.9107    0.6229 N.pl3     1 RES1    0.0000
     25 O3         7.4865    0.2757   -3.3493 O.2       1 RES1    0.0000
     26 O4         7.8341   -1.7889   -3.7600 O.2       1 RES1    0.0000
     27 O5         8.5697   -4.8183   -0.1081 O.2       1 RES1    0.0000
     28 O6         9.3546   -4.0722    1.7124 O.2       1 RES1    0.0000
     29 H1         5.9011    1.5771    3.1963 H         1 RES1    0.0000
     30 H2         4.9657    0.6316    1.3125 H         1 RES1    0.0000
     31 H3         5.0155    1.7851   -0.8229 H         1 RES1    0.0000
     32 H4         5.6856    3.9678   -0.9725 H         1 RES1    0.0000
     33 H5         4.1490    4.6691    1.5165 H         1 RES1    0.0000
     34 H6         4.8900    5.9330    0.8025 H         1 RES1    0.0000
     35 H7         4.3104    6.4304    3.0739 H         1 RES1    0.0000
     36 H8         5.9179    6.5165    2.8494 H         1 RES1    0.0000
     37 H9         5.3566    5.2542    4.8148 H         1 RES1    0.0000
     38 H10        4.5631    4.1918    3.8695 H         1 RES1    0.0000
     39 H11        7.3769    4.7548    3.6859 H         1 RES1    0.0000
     40 H12        6.7493    3.4192    4.3660 H         1 RES1    0.0000
     41 H13        7.4220    5.9241    0.2788 H         1 RES1    0.0000
     42 H14        9.4388    4.8282    1.0677 H         1 RES1    0.0000
     43 H15        8.7258    3.0687    2.7746 H         1 RES1    0.0000
     44 H16        8.0691    0.9586   -1.0745 H         1 RES1    0.0000
     45 H17        8.2813   -3.1112   -1.8157 H         1 RES1    0.0000
     46 H18        9.0644   -1.6602    1.9858 H         1 RES1    0.0000
@<TRIPOS>BOND
     1    1    2 1
     2    2    3 2
     3    3    4 1
     4    4    5 2
     5    5    6 1
     6    6    1 1
     7    7    6 1
     8    8    7 1
     9    9    8 1
    10   10    1 1
    11   11    6 1
    12   12   11 2
    13   13    1 1
    14   14   15 1
    15   15   16 ar
    16   16   17 ar
    17   17   18 ar
    18   18   19 ar
    19   19   20 ar
    20   20   15 ar
    21   21   13 1
    22   22   14 2
    23   23   17 1
    24   24   19 1
    25   25   23 2
    26   26   23 2
    27   27   24 2
    28   28   24 2
    29   29    2 1
    30   30    3 1
    31   31    4 1
    32   32    5 1
    33   33    7 1
    34   34    7 1
    35   35    8 1
    36   36    8 1
    37   37    9 1
    38   38    9 1
    39   39   10 1
    40   40   10 1
    41   41   11 1
    42   42   12 1
    43   43   13 1
    44   44   16 1
    45   45   18 1
    46   46   20 1
    47    9   10 1
    48   12   13 1
    49   14   21 1
@<TRIPOS>SUBSTRUCTURE
     1 RES1 1

@<TRIPOS>CRYSIN
  10.2080   13.3550    7.0680  99.3500 100.6300 100.7900   2 1

