# MOL2 file generated by ConQuest
# Please check atom types

@<TRIPOS>MOLECULE
DATLAO
    34    34     1
SMALL
NO_CHARGES
****
Generated from CSD

@<TRIPOS>ATOM
      1 O1         2.1546    8.0071    4.5283 O.2       1 RES1    0.0000
      2 O2         5.2799    8.5670    3.4940 O.2       1 RES1    0.0000
      3 O3         5.3569   10.1801    4.9199 O.2       1 RES1    0.0000
      4 N1         4.8479    9.6085    3.9687 N.pl3     1 RES1    0.0000
      5 C1         0.7153    8.4897    1.5503 C.3       1 RES1    0.0000
      6 C2         2.9229    9.4920    2.2867 C.3       1 RES1    0.0000
      7 C3         1.2719    8.5268    3.9031 C.2       1 RES1    0.0000
      8 C4         2.8848   11.4722    0.6047 C.3       1 RES1    0.0000
      9 C5         3.6491   10.2878    3.3742 C.3       1 RES1    0.0000
     10 C6         3.2288    9.9912    0.8445 C.3       1 RES1    0.0000
     11 C7         0.6445   10.6431    2.8674 C.3       1 RES1    0.0000
     12 C8         1.4182    9.3364    2.6337 C.3       1 RES1    0.0000
     13 C9         4.7327    9.8180    0.5770 C.3       1 RES1    0.0000
     14 C10        2.4582    9.1034   -0.1336 C.3       1 RES1    0.0000
     15 C11        0.9574    9.0329    0.1524 C.3       1 RES1    0.0000
     16 H1         1.0477    7.5583    1.5993 H         1 RES1    0.0000
     17 H2        -0.2583    8.4746    1.7298 H         1 RES1    0.0000
     18 H3         3.3032    8.5681    2.3346 H         1 RES1    0.0000
     19 H4         0.3899    8.4175    4.2397 H         1 RES1    0.0000
     20 H5         3.3845   12.0303    1.2369 H         1 RES1    0.0000
     21 H6         3.1278   11.7199   -0.3119 H         1 RES1    0.0000
     22 H7         1.9237   11.6102    0.7362 H         1 RES1    0.0000
     23 H8         3.9378   11.1536    2.9896 H         1 RES1    0.0000
     24 H9         3.0069   10.4849    4.1014 H         1 RES1    0.0000
     25 H10        0.7084   11.2074    2.0686 H         1 RES1    0.0000
     26 H11       -0.2966   10.4371    3.0473 H         1 RES1    0.0000
     27 H12        1.0281   11.1168    3.6341 H         1 RES1    0.0000
     28 H13        5.2419   10.3809    1.1961 H         1 RES1    0.0000
     29 H14        4.9817    8.8791    0.7081 H         1 RES1    0.0000
     30 H15        4.9327   10.0826   -0.3455 H         1 RES1    0.0000
     31 H16        2.8334    8.1881   -0.0977 H         1 RES1    0.0000
     32 H17        2.5930    9.4481   -1.0518 H         1 RES1    0.0000
     33 H18        0.5609    9.9373    0.0734 H         1 RES1    0.0000
     34 H19        0.5190    8.4459   -0.5139 H         1 RES1    0.0000
@<TRIPOS>BOND
     1    1    7 2
     2    2    4 2
     3    3    4 2
     4    4    9 1
     5    5   12 1
     6    6    9 1
     7    7   12 1
     8    8   10 1
     9    9   23 1
    10   10    6 1
    11   11   12 1
    12   12    6 1
    13   13   10 1
    14   14   10 1
    15   15    5 1
    16   16    5 1
    17   17    5 1
    18   18    6 1
    19   19    7 1
    20   20    8 1
    21   21    8 1
    22   22    8 1
    23   24    9 1
    24   25   11 1
    25   26   11 1
    26   27   11 1
    27   28   13 1
    28   29   13 1
    29   30   13 1
    30   31   14 1
    31   32   14 1
    32   33   15 1
    33   34   15 1
    34   14   15 1
@<TRIPOS>SUBSTRUCTURE
     1 RES1 1

@<TRIPOS>CRYSIN
   7.7840    9.7886   14.7958  90.0000  90.0000  90.0000  19 1

