# MOL2 file generated by ConQuest
# Please check atom types

@<TRIPOS>MOLECULE
DATMIU
    52    54     1
SMALL
NO_CHARGES
****
Generated from CSD

@<TRIPOS>ATOM
      1 O1        11.6541    1.4321    2.8006 O.2       1 RES1    0.0000
      2 O2        12.8742    2.7301    3.9727 O.2       1 RES1    0.0000
      3 O3         7.4666    3.9990    8.0457 O.2       1 RES1    0.0000
      4 H1         9.8193    3.9632    7.2921 H         1 RES1    0.0000
      5 H2         9.2831    1.8151    3.2545 H         1 RES1    0.0000
      6 H3         5.2270    3.8300    8.0262 H         1 RES1    0.0000
      7 H4        11.7234    3.4137    5.9951 H         1 RES1    0.0000
      8 H5         7.3864    2.4645    4.5269 H         1 RES1    0.0000
      9 H6         2.9217    2.7309    8.8092 H         1 RES1    0.0000
     10 H7         1.2985    1.1906    5.8483 H         1 RES1    0.0000
     11 H8         1.2621   -0.2581    6.4845 H         1 RES1    0.0000
     12 H9         3.6002    2.2147    5.2243 H         1 RES1    0.0000
     13 H10        4.9024    1.3571    5.5180 H         1 RES1    0.0000
     14 H11        4.0671    4.4960    5.4813 H         1 RES1    0.0000
     15 H12        4.7309    5.4785    6.5213 H         1 RES1    0.0000
     16 H13        3.6476   -0.3996    6.4111 H         1 RES1    0.0000
     17 H14        3.0713   -0.0333    4.9796 H         1 RES1    0.0000
     18 H15       -0.0657    2.2064    7.5735 H         1 RES1    0.0000
     19 H16        0.4231    2.1065    9.1028 H         1 RES1    0.0000
     20 H17       -0.1532    0.7577    8.3198 H         1 RES1    0.0000
     21 H18        3.0093    5.1954    8.1607 H         1 RES1    0.0000
     22 H19        2.3381    5.6117    6.7537 H         1 RES1    0.0000
     23 H20        1.2219    3.8300    7.6836 H         1 RES1    0.0000
     24 H21        1.7436    3.4137    6.2398 H         1 RES1    0.0000
     25 H22        4.8550    0.3747    8.0139 H         1 RES1    0.0000
     26 H23        5.0410    1.6236    8.9927 H         1 RES1    0.0000
     27 H24        6.0039    1.3988    7.8304 H         1 RES1    0.0000
     28 H25        3.1552   -0.3164    8.6746 H         1 RES1    0.0000
     29 H26        1.5320   -0.5162    8.9683 H         1 RES1    0.0000
     30 H27        2.3089    0.5412    9.7513 H         1 RES1    0.0000
     31 C1         8.4643    3.2496    6.0343 C.ar      1 RES1    0.0000
     32 C2        10.6269    2.5836    4.5110 C.ar      1 RES1    0.0000
     33 C3         9.7413    3.5527    6.4662 C.ar      1 RES1    0.0000
     34 C4         9.3736    2.2688    4.0535 C.ar      1 RES1    0.0000
     35 C5         4.9192    3.5569    7.1281 C.3       1 RES1    0.0000
     36 C6         7.3284    3.5893    6.9299 C.2       1 RES1    0.0000
     37 C7        10.8330    3.2238    5.7015 C.ar      1 RES1    0.0000
     38 C8         1.8012    0.5853    6.4552 C.3       1 RES1    0.0000
     39 C9         8.2870    2.6119    4.8120 C.ar      1 RES1    0.0000
     40 C10        4.0178    1.5744    5.8373 C.3       1 RES1    0.0000
     41 C11        4.1893    4.6967    6.4748 C.3       1 RES1    0.0000
     42 C12        2.7642    2.4603    7.8585 C.3       1 RES1    0.0000
     43 C13        3.1625    0.3189    5.8630 C.3       1 RES1    0.0000
     44 C14        1.8366    1.2031    7.8610 C.3       1 RES1    0.0000
     45 C15        4.1754    2.2147    7.2248 C.3       1 RES1    0.0000
     46 C16        0.3961    1.5786    8.2537 C.3       1 RES1    0.0000
     47 C17        2.8962    4.9273    7.2125 C.3       1 RES1    0.0000
     48 C18        2.0649    3.6584    7.2089 C.3       1 RES1    0.0000
     49 C19        5.0643    1.3238    8.1045 C.3       1 RES1    0.0000
     50 C20        2.2761    0.1399    8.8826 C.3       1 RES1    0.0000
     51 N1        11.8029    2.2222    3.7023 N.pl3     1 RES1    0.0000
     52 O4         6.1517    3.3371    6.3634 O.3       1 RES1    0.0000
@<TRIPOS>BOND
     1    1   51 2
     2    2   51 2
     3    3   36 2
     4    4   33 1
     5    5   34 1
     6    6   35 1
     7    7   37 1
     8    8   39 1
     9    9   42 1
    10   10   38 1
    11   11   38 1
    12   12   40 1
    13   13   40 1
    14   14   41 1
    15   15   41 1
    16   16   43 1
    17   17   43 1
    18   18   46 1
    19   19   46 1
    20   20   46 1
    21   21   47 1
    22   22   47 1
    23   23   48 1
    24   24   48 1
    25   25   49 1
    26   26   49 1
    27   27   49 1
    28   28   50 1
    29   29   50 1
    30   30   50 1
    31   31   33 ar
    32   32   34 ar
    33   33   37 ar
    34   34   39 ar
    35   35   41 1
    36   36   31 1
    37   37   32 ar
    38   38   43 1
    39   39   31 ar
    40   40   43 1
    41   41   47 1
    42   42   44 1
    43   44   38 1
    44   45   35 1
    45   46   44 1
    46   47   48 1
    47   48   42 1
    48   49   45 1
    49   50   44 1
    50   51   32 1
    51   52   35 1
    52   36   52 1
    53   40   45 1
    54   42   45 1
@<TRIPOS>SUBSTRUCTURE
     1 RES1 1

@<TRIPOS>CRYSIN
  36.4760    8.3260   12.2350  90.0000  90.0000  90.0000  61 1

