# MOL2 file generated by ConQuest
# Please check atom types

@<TRIPOS>MOLECULE
DATNBZ
    17    17     1
SMALL
NO_CHARGES
****
Generated from CSD

@<TRIPOS>ATOM
      1 C1         1.2830   -1.5288    0.0174 C.ar      1 RES1    0.0000
      2 C2         0.2200   -1.8476   -0.9417 C.ar      1 RES1    0.0000
      3 C3        -1.0068   -1.0364   -0.9949 C.ar      1 RES1    0.0000
      4 C4        -1.1156   -0.0354   -0.0335 C.ar      1 RES1    0.0000
      5 C5        -0.1240    0.2683    0.8746 C.ar      1 RES1    0.0000
      6 C6         1.0238   -0.4878    0.8942 C.ar      1 RES1    0.0000
      7 N1         2.3901   -2.2532    0.0347 N.pl3     1 RES1    0.0000
      8 N2         0.3922   -2.9229   -1.8452 N.pl3     1 RES1    0.0000
      9 N3        -1.9380   -1.3026   -1.8880 N.pl3     1 RES1    0.0000
     10 N4        -2.2533    0.8315    0.0474 N.pl3     1 RES1    0.0000
     11 N5         2.0523   -0.0099    1.8972 N.pl3     1 RES1    0.0000
     12 O1         1.4136   -3.6629   -1.8116 O.2       1 RES1    0.0000
     13 O2        -0.4905   -3.2084   -2.6711 O.2       1 RES1    0.0000
     14 O3        -3.2564    0.5824   -0.6721 O.2       1 RES1    0.0000
     15 O4        -2.2865    1.7602    0.8422 O.2       1 RES1    0.0000
     16 O5         1.8007    0.9542    2.5242 O.2       1 RES1    0.0000
     17 O6         3.0665   -0.7088    1.9944 O.2       1 RES1    0.0000
@<TRIPOS>BOND
     1    1    2 ar
     2    2    3 ar
     3    3    4 ar
     4    4    5 ar
     5    5    6 ar
     6    6    1 ar
     7    7    1 1
     8    8    2 1
     9    9    3 1
    10   10    4 1
    11   11    6 1
    12   12    8 2
    13   13    8 2
    14   14   10 2
    15   15   10 2
    16   16   11 2
    17   17   11 2
@<TRIPOS>SUBSTRUCTURE
     1 RES1 1

@<TRIPOS>CRYSIN
   7.3000    5.2000   11.6300  90.0000  95.9000  90.0000   7 1

