# MOL2 file generated by ConQuest
# Please check atom types

@<TRIPOS>MOLECULE
DAVCAH
    29    32     1
SMALL
NO_CHARGES
****
Generated from CSD

@<TRIPOS>ATOM
      1 O1         2.4729    3.2210    0.2148 O.3       1 RES1    0.0000
      2 N1        -0.0550    2.0715   -1.8452 N.2       1 RES1    0.0000
      3 C1         0.8500    2.4097   -0.8764 C.2       1 RES1    0.0000
      4 N2        -0.5009    1.6088    0.9924 N.2       1 RES1    0.0000
      5 C2         0.6120    2.2219    0.5078 C.2       1 RES1    0.0000
      6 N3         1.9898    3.0258   -1.0640 N.2       1 RES1    0.0000
      7 C3        -1.3829    1.2635    0.0672 C.2       1 RES1    0.0000
      8 C4        -1.1625    1.5479   -1.3866 C.2       1 RES1    0.0000
      9 N4         1.6164    2.7160    1.1980 N.2       1 RES1    0.0000
     10 N5        -2.7485    0.4726    1.9105 N.pl3     1 RES1    0.0000
     11 H1        -2.2469    0.8946    2.5418 H         1 RES1    0.0000
     12 C5        -3.8650   -0.2358    2.1632 C.2       1 RES1    0.0000
     13 H2        -4.1506   -0.3909    3.0581 H         1 RES1    0.0000
     14 C6        -4.4115   -0.6342    0.9647 C.2       1 RES1    0.0000
     15 H3        -5.2477   -1.1912    0.8442 H         1 RES1    0.0000
     16 C7        -3.5964   -0.1329   -0.0577 C.2       1 RES1    0.0000
     17 H4        -3.7347   -0.3013   -0.9809 H         1 RES1    0.0000
     18 C8        -2.5498    0.5751    0.5463 C.2       1 RES1    0.0000
     19 C9        -2.1828    1.2987   -2.4299 C.ar      1 RES1    0.0000
     20 C10       -1.8067    0.5832   -3.5654 C.ar      1 RES1    0.0000
     21 H5        -0.9357    0.1282   -3.5771 H         1 RES1    0.0000
     22 C11       -2.6728    0.4801   -4.6403 C.ar      1 RES1    0.0000
     23 H6        -2.3766   -0.0247   -5.4194 H         1 RES1    0.0000
     24 C12       -3.9167    1.0973   -4.5935 C.ar      1 RES1    0.0000
     25 H7        -4.5048    1.0274   -5.3822 H         1 RES1    0.0000
     26 C13       -4.2992    1.8049   -3.4648 C.ar      1 RES1    0.0000
     27 H8        -5.1580    2.2287   -3.4682 H         1 RES1    0.0000
     28 C14       -3.4405    1.9099   -2.3788 C.ar      1 RES1    0.0000
     29 H9        -3.6953    2.4148   -1.5928 H         1 RES1    0.0000
@<TRIPOS>BOND
     1    1    6 1
     2    2    3 1
     3    3    5 1
     4    4    5 1
     5    5    9 2
     6    6    3 2
     7    7    4 2
     8    8    2 2
     9    9    1 1
    10   10   11 1
    11   12   10 1
    12   13   12 1
    13   14   12 2
    14   15   14 1
    15   16   14 1
    16   17   16 1
    17   18    7 1
    18   19    8 1
    19   20   19 ar
    20   21   20 1
    21   22   20 ar
    22   23   22 1
    23   24   22 ar
    24   25   24 1
    25   26   24 ar
    26   27   26 1
    27   28   19 ar
    28   29   28 1
    29    7    8 1
    30   10   18 1
    31   16   18 2
    32   26   28 ar
@<TRIPOS>SUBSTRUCTURE
     1 RES1 1

@<TRIPOS>CRYSIN
  11.6264    7.7250   14.1019  90.0000 109.7420  90.0000  14 1

