# MOL2 file generated by ConQuest
# Please check atom types

@<TRIPOS>MOLECULE
DAVCOV
    47    52     1
SMALL
NO_CHARGES
****
Generated from CSD

@<TRIPOS>ATOM
      1 N1         0.7259    7.5228    0.2642 N.2       1 RES1    0.0000
      2 C1         2.7480    5.9888    8.7249 C.3       1 RES1    0.0000
      3 H1         3.2528    5.4169    9.3231 H         1 RES1    0.0000
      4 H2         3.3478    6.6683    8.3766 H         1 RES1    0.0000
      5 C2         0.7583    7.2855    1.5563 C.2       1 RES1    0.0000
      6 N2         1.3131    6.4713   -1.7954 N.2       1 RES1    0.0000
      7 C3         1.3557    6.0662    2.1349 C.2       1 RES1    0.0000
      8 O1         1.8060    5.2020   -2.0536 O.3       1 RES1    0.0000
      9 N3         2.0200    4.4615   -0.9038 N.2       1 RES1    0.0000
     10 N4         1.7551    5.0518    1.3942 N.2       1 RES1    0.0000
     11 C4         1.6627    6.6150    9.4431 C.3       1 RES1    0.0000
     12 H3         2.0174    7.1548   10.1525 H         1 RES1    0.0000
     13 H4         1.0903    5.9375    9.8112 H         1 RES1    0.0000
     14 H5         1.1580    7.1679    8.8416 H         1 RES1    0.0000
     15 C5         1.6587    5.2952    0.0475 C.2       1 RES1    0.0000
     16 N5         2.1860    5.1766    7.5942 N.pl3     1 RES1    0.0000
     17 C6         1.2292    6.5045   -0.4808 C.2       1 RES1    0.0000
     18 C7         2.0453    5.5837    6.2854 C.ar      1 RES1    0.0000
     19 C8         2.2525    6.8311    5.7220 C.ar      1 RES1    0.0000
     20 H6         2.6063    7.5317    6.1901 H         1 RES1    0.0000
     21 C9         1.9854    6.9719    4.3867 C.ar      1 RES1    0.0000
     22 H7         2.1715    7.8232    4.0448 H         1 RES1    0.0000
     23 C10        1.5674    5.9054    3.5878 C.ar      1 RES1    0.0000
     24 C11        1.3913    4.6640    4.1614 C.ar      1 RES1    0.0000
     25 H8         1.1531    3.9141    3.6128 H         1 RES1    0.0000
     26 C12        1.6154    4.4800    5.5078 C.ar      1 RES1    0.0000
     27 C13        1.4789    3.3653    6.4013 C.ar      1 RES1    0.0000
     28 C14        1.1115    2.0395    6.2282 C.ar      1 RES1    0.0000
     29 H9         0.9240    1.6656    5.3162 H         1 RES1    0.0000
     30 C15        1.0235    1.2153    7.3378 C.ar      1 RES1    0.0000
     31 H10        0.8225    0.2312    7.1795 H         1 RES1    0.0000
     32 C16        1.2932    1.7219    8.6009 C.ar      1 RES1    0.0000
     33 H11        1.2484    1.1057    9.3544 H         1 RES1    0.0000
     34 C17        1.7046    3.0095    8.7958 C.ar      1 RES1    0.0000
     35 H12        1.9047    3.3673    9.5985 H         1 RES1    0.0000
     36 C18        1.8096    3.8448    7.6785 C.ar      1 RES1    0.0000
     37 C19        0.0692    8.2866    2.3924 C.ar      1 RES1    0.0000
     38 C20       -0.8562    7.9047    3.3577 C.ar      1 RES1    0.0000
     39 H13       -0.9999    7.0010    3.5205 H         1 RES1    0.0000
     40 C21       -1.5559    8.8334    4.0678 C.ar      1 RES1    0.0000
     41 H14       -2.1772    8.5620    4.7044 H         1 RES1    0.0000
     42 C22       -1.3425   10.1603    3.8438 C.ar      1 RES1    0.0000
     43 H15       -1.8192   10.7935    4.3301 H         1 RES1    0.0000
     44 C23       -0.4246   10.5714    2.9005 C.ar      1 RES1    0.0000
     45 H16       -0.2741   11.4790    2.7620 H         1 RES1    0.0000
     46 C24        0.2732    9.6305    2.1571 C.ar      1 RES1    0.0000
     47 H17        0.8755    9.9049    1.5038 H         1 RES1    0.0000
@<TRIPOS>BOND
     1    1    5 2
     2    2    3 1
     3    4    2 1
     4    5    7 1
     5    6    8 1
     6    7   10 2
     7    8    9 1
     8    9   15 2
     9   10   15 1
    10   11    2 1
    11   12   11 1
    12   13   11 1
    13   14   11 1
    14   15   17 1
    15   16    2 1
    16   17    1 1
    17   18   16 1
    18   19   18 ar
    19   20   19 1
    20   21   19 ar
    21   22   21 1
    22   23    7 1
    23   24   23 ar
    24   25   24 1
    25   26   18 ar
    26   27   26 1
    27   28   27 ar
    28   29   28 1
    29   30   28 ar
    30   31   30 1
    31   32   30 ar
    32   33   32 1
    33   34   32 ar
    34   35   34 1
    35   36   16 1
    36   37    5 1
    37   38   37 ar
    38   39   38 1
    39   40   38 ar
    40   41   40 1
    41   42   40 ar
    42   43   42 1
    43   44   42 ar
    44   45   44 1
    45   46   37 ar
    46   47   46 1
    47    6   17 2
    48   21   23 ar
    49   24   26 ar
    50   27   36 ar
    51   34   36 ar
    52   44   46 ar
@<TRIPOS>SUBSTRUCTURE
     1 RES1 1

@<TRIPOS>CRYSIN
  12.0497   10.0517   16.4916  90.0000  90.9370  90.0000 231 1

