# MOL2 file generated by ConQuest
# Please check atom types

@<TRIPOS>MOLECULE
DAVCOS
    65    66     1
SMALL
NO_CHARGES
****
Generated from CSD

@<TRIPOS>ATOM
      1 C1        10.0089   12.5898    2.2395 C.2       1 RES1    0.0000
      2 C2         7.0190   10.9629    1.4390 C.3       1 RES1    0.0000
      3 H1         7.6252   11.1516    0.7191 H         1 RES1    0.0000
      4 H2         7.0421   11.6825    2.0739 H         1 RES1    0.0000
      5 H3         6.1286   10.8710    1.0917 H         1 RES1    0.0000
      6 C3        11.0389   12.2542   -0.0345 C.3       1 RES1    0.0000
      7 H4        11.2796   11.3418    0.1414 H         1 RES1    0.0000
      8 H5        11.7027   12.6570   -0.5990 H         1 RES1    0.0000
      9 H6        10.1859   12.2810   -0.4741 H         1 RES1    0.0000
     10 C4         9.6458   11.1533    4.2552 C.3       1 RES1    0.0000
     11 H7         9.7630   10.2607    4.5883 H         1 RES1    0.0000
     12 H8         8.7099   11.3289    4.1333 H         1 RES1    0.0000
     13 H9        10.0098   11.7801    4.8845 H         1 RES1    0.0000
     14 C5        14.6963   11.1565    1.0463 C.3       1 RES1    0.0000
     15 H10       15.6137   10.8761    1.0812 H         1 RES1    0.0000
     16 H11       14.6311   11.9782    0.5545 H         1 RES1    0.0000
     17 H12       14.1715   10.4805    0.6111 H         1 RES1    0.0000
     18 C6        15.0846   12.4275    3.1593 C.3       1 RES1    0.0000
     19 H13       15.0365   13.2628    2.6889 H         1 RES1    0.0000
     20 H14       15.9943   12.1218    3.1767 H         1 RES1    0.0000
     21 H15       14.7704   12.5480    4.0584 H         1 RES1    0.0000
     22 C7         9.1488    8.1056    2.7715 C.ar      1 RES1    0.0000
     23 C8        12.4161   13.0745    1.8829 C.3       1 RES1    0.0000
     24 C9         8.7783    9.3394    2.2843 C.ar      1 RES1    0.0000
     25 C10        8.1611    7.1495    2.9945 C.ar      1 RES1    0.0000
     26 C11        6.8141    7.4028    2.7682 C.ar      1 RES1    0.0000
     27 C12       12.7635   11.7466    2.4914 C.2       1 RES1    0.0000
     28 C13        7.4465    9.6349    2.0157 C.ar      1 RES1    0.0000
     29 C14       14.2366   11.3433    2.4932 C.3       1 RES1    0.0000
     30 C15        6.4838    8.6440    2.2764 C.ar      1 RES1    0.0000
     31 C16       11.7838   10.9743    2.9659 C.2       1 RES1    0.0000
     32 C17       14.4580   10.0310    3.2605 C.3       1 RES1    0.0000
     33 H16       13.9772    9.3643    2.7644 H         1 RES1    0.0000
     34 H17       14.1545   10.0328    4.1712 H         1 RES1    0.0000
     35 H18       15.3969    9.8325    3.2363 H         1 RES1    0.0000
     36 C18       10.3063   11.2468    2.8861 C.3       1 RES1    0.0000
     37 C19       10.5993    7.7286    3.0334 C.3       1 RES1    0.0000
     38 H19       11.0771    8.0946    2.2857 H         1 RES1    0.0000
     39 H20       10.7216    6.7766    3.0564 H         1 RES1    0.0000
     40 H21       10.9339    8.1139    3.8466 H         1 RES1    0.0000
     41 C20       11.0264   13.1145    1.2321 C.3       1 RES1    0.0000
     42 C21        5.7610    6.3066    2.9806 C.3       1 RES1    0.0000
     43 C22        5.8823    5.3063    1.8553 C.3       1 RES1    0.0000
     44 H22        5.2447    4.5909    1.9107 H         1 RES1    0.0000
     45 H23        6.7625    4.9419    1.7366 H         1 RES1    0.0000
     46 H24        5.6662    5.8703    1.1090 H         1 RES1    0.0000
     47 C23        4.3406    6.8413    2.9520 C.3       1 RES1    0.0000
     48 H25        4.3972    7.4110    3.7225 H         1 RES1    0.0000
     49 H26        3.6983    6.1465    3.1142 H         1 RES1    0.0000
     50 H27        4.0669    7.3587    2.1910 H         1 RES1    0.0000
     51 C24        5.9834    5.5697    4.2695 C.3       1 RES1    0.0000
     52 H28        6.8591    5.1996    4.4025 H         1 RES1    0.0000
     53 H29        5.3208    4.9100    4.4869 H         1 RES1    0.0000
     54 H30        5.8703    6.3359    4.8365 H         1 RES1    0.0000
     55 N1        12.4147   14.1493    2.9647 N.pl3     1 RES1    0.0000
     56 O1         9.7722   10.2669    1.9270 O.3       1 RES1    0.0000
     57 O2         9.0162   13.2420    2.4733 O.2       1 RES1    0.0000
     58 O3        10.6994   14.4521    0.8894 O.3       1 RES1    0.0000
     59 O4        11.6498   13.9917    3.9089 O.2       1 RES1    0.0000
     60 O5        13.1567   15.1048    2.8375 O.2       1 RES1    0.0000
     61 H31       13.1123   13.4032    1.2109 H         1 RES1    0.0000
     62 H32        8.4655    6.2852    3.3608 H         1 RES1    0.0000
     63 H33       11.9955    9.9996    3.3910 H         1 RES1    0.0000
     64 H34        5.5027    8.9258    2.0935 H         1 RES1    0.0000
     65 H35        9.9629   14.5758    1.3963 H         1 RES1    0.0000
@<TRIPOS>BOND
     1    1   36 1
     2    2    3 1
     3    4    2 1
     4    5    2 1
     5    6    7 1
     6    8    6 1
     7    9    6 1
     8   10   11 1
     9   12   10 1
    10   13   10 1
    11   14   15 1
    12   16   14 1
    13   17   14 1
    14   18   19 1
    15   20   18 1
    16   21   18 1
    17   22   24 ar
    18   23   27 1
    19   24   28 ar
    20   25   22 ar
    21   26   25 ar
    22   27   29 1
    23   28    2 1
    24   29   14 1
    25   30   26 ar
    26   31   27 2
    27   32   29 1
    28   33   32 1
    29   34   32 1
    30   35   32 1
    31   36   10 1
    32   37   22 1
    33   38   37 1
    34   39   37 1
    35   40   37 1
    36   41    1 1
    37   42   26 1
    38   43   42 1
    39   44   43 1
    40   45   43 1
    41   46   43 1
    42   47   42 1
    43   48   47 1
    44   49   47 1
    45   50   47 1
    46   51   42 1
    47   52   51 1
    48   53   51 1
    49   54   51 1
    50   55   23 1
    51   56   24 1
    52   57    1 2
    53   58   41 1
    54   59   55 2
    55   60   55 2
    56   61   23 1
    57   62   25 1
    58   63   31 1
    59   64   30 1
    60   65   58 1
    61    6   41 1
    62   18   29 1
    63   23   41 1
    64   28   30 ar
    65   31   36 1
    66   36   56 1
@<TRIPOS>SUBSTRUCTURE
     1 RES1 1

@<TRIPOS>CRYSIN
  12.2770    9.6830   20.1960  90.0000  93.9200  90.0000  14 1

