# MOL2 file generated by ConQuest
# Please check atom types

@<TRIPOS>MOLECULE
DAVFIS
    61    66     1
SMALL
NO_CHARGES
****
Generated from CSD

@<TRIPOS>ATOM
      1 O1        -0.2735    7.4115    1.9720 O.2       1 RES1    0.0000
      2 O2         1.7100    3.6779    3.7465 O.2       1 RES1    0.0000
      3 N1         3.0239    7.5430    2.5457 N.2       1 RES1    0.0000
      4 N2         1.4396    5.2012    1.3330 N.3       1 RES1    0.0000
      5 N3         0.9710    5.5640    2.6164 N.am      1 RES1    0.0000
      6 C1         0.0401    6.5986    2.8080 C.2       1 RES1    0.0000
      7 O3         4.7913    0.4318   -1.5008 O.3       1 RES1    0.0000
      8 C2         3.3699    3.7895    0.4994 C.ar      1 RES1    0.0000
      9 C3        -0.4309    6.4333    4.2130 C.ar      1 RES1    0.0000
     10 C4         1.0559    4.6975    3.7103 C.2       1 RES1    0.0000
     11 C5         2.6309    8.7117    0.4098 C.ar      1 RES1    0.0000
     12 C6         3.3043    2.5064    1.0571 C.ar      1 RES1    0.0000
     13 H1         2.9415    2.3923    1.9058 H         1 RES1    0.0000
     14 C7         4.4233   10.1970    4.7092 C.ar      1 RES1    0.0000
     15 H2         5.2163   10.4085    5.1471 H         1 RES1    0.0000
     16 C8         4.3253    1.5739   -0.9065 C.ar      1 RES1    0.0000
     17 C9         3.1373    8.7569    3.2523 C.ar      1 RES1    0.0000
     18 C10       -1.3454    7.1782    4.9293 C.ar      1 RES1    0.0000
     19 H3        -1.7372    7.9422    4.5718 H         1 RES1    0.0000
     20 O4         4.4457   12.4952    6.1881 O.2       1 RES1    0.0000
     21 C11        4.3756    2.8324   -1.4853 C.ar      1 RES1    0.0000
     22 H4         4.7238    2.9408   -2.3409 H         1 RES1    0.0000
     23 C12        2.3820    6.2032    0.6779 C.3       1 RES1    0.0000
     24 H5         2.3685    6.2054   -0.3018 H         1 RES1    0.0000
     25 C13        3.7262    9.5718    0.3206 C.ar      1 RES1    0.0000
     26 H6         4.4941    9.3974    0.8153 H         1 RES1    0.0000
     27 C14        4.3363    9.0714    3.9034 C.ar      1 RES1    0.0000
     28 H7         5.0786    8.5224    3.7949 H         1 RES1    0.0000
     29 C15        2.6932    7.5200    1.3082 C.2       1 RES1    0.0000
     30 C16        2.1007   10.7105    4.2130 C.ar      1 RES1    0.0000
     31 H8         1.3624   11.2649    4.3217 H         1 RES1    0.0000
     32 C17        3.8992    3.9372   -0.7755 C.ar      1 RES1    0.0000
     33 H9         3.9371    4.7819   -1.1621 H         1 RES1    0.0000
     34 C18        2.9109    4.9616    1.2954 C.3       1 RES1    0.0000
     35 H10        3.3725    5.0886    2.1509 H         1 RES1    0.0000
     36 N4         3.3739   12.2027    5.6791 N.pl3     1 RES1    0.0000
     37 O5         2.3549   12.8686    5.8313 O.2       1 RES1    0.0000
     38 C19        3.3006   11.0007    4.8464 C.ar      1 RES1    0.0000
     39 C20        3.6735   10.6897   -0.5057 C.ar      1 RES1    0.0000
     40 H11        4.4074   11.2583   -0.5669 H         1 RES1    0.0000
     41 C21        3.7727    1.4079    0.3606 C.ar      1 RES1    0.0000
     42 H12        3.7186    0.5591    0.7386 H         1 RES1    0.0000
     43 C22        2.0213    9.5832    3.4165 C.ar      1 RES1    0.0000
     44 H13        1.2233    9.3736    2.9879 H         1 RES1    0.0000
     45 C23       -1.0708    5.5814    6.7465 C.ar      1 RES1    0.0000
     46 H14       -1.3061    5.3040    7.6030 H         1 RES1    0.0000
     47 C24        1.4375   10.0898   -1.1646 C.ar      1 RES1    0.0000
     48 H15        0.6708   10.2657   -1.6607 H         1 RES1    0.0000
     49 C25        1.4912    8.9636   -0.3525 C.ar      1 RES1    0.0000
     50 H16        0.7685    8.3796   -0.3168 H         1 RES1    0.0000
     51 C26       -0.1397    4.8377    6.0182 C.ar      1 RES1    0.0000
     52 H17        0.2570    4.0735    6.3709 H         1 RES1    0.0000
     53 C27       -1.6542    6.7301    6.2167 C.ar      1 RES1    0.0000
     54 H18       -2.2625    7.2099    6.7310 H         1 RES1    0.0000
     55 C28        0.1654    5.2911    4.7454 C.ar      1 RES1    0.0000
     56 C29        2.5230   10.9564   -1.2417 C.ar      1 RES1    0.0000
     57 H19        2.4795   11.7117   -1.7824 H         1 RES1    0.0000
     58 C30        5.5638    0.5960   -2.6854 C.3       1 RES1    0.0000
     59 H20        4.9973    0.9054   -3.3964 H         1 RES1    0.0000
     60 H21        5.9554   -0.2458   -2.9312 H         1 RES1    0.0000
     61 H22        6.2593    1.2384   -2.5277 H         1 RES1    0.0000
@<TRIPOS>BOND
     1    1    6 2
     2    2   10 2
     3    3   17 1
     4    4    5 1
     5    5    6 1
     6    6    9 1
     7    7   16 1
     8    8   12 ar
     9    9   18 ar
    10   10    5 1
    11   11   25 ar
    12   12   13 1
    13   14   15 1
    14   16   21 ar
    15   17   27 ar
    16   18   19 1
    17   20   36 2
    18   21   22 1
    19   23    4 1
    20   24   23 1
    21   25   26 1
    22   27   14 ar
    23   28   27 1
    24   29    3 2
    25   30   31 1
    26   32    8 ar
    27   33   32 1
    28   34    4 1
    29   35   34 1
    30   36   37 2
    31   38   14 ar
    32   39   25 ar
    33   40   39 1
    34   41   12 ar
    35   42   41 1
    36   43   17 ar
    37   44   43 1
    38   45   46 1
    39   47   48 1
    40   49   11 ar
    41   50   49 1
    42   51   45 ar
    43   52   51 1
    44   53   18 ar
    45   54   53 1
    46   55    9 ar
    47   56   39 ar
    48   57   56 1
    49   58    7 1
    50   59   58 1
    51   60   58 1
    52   61   58 1
    53    8   34 1
    54   10   55 1
    55   11   29 1
    56   16   41 ar
    57   21   32 ar
    58   23   29 1
    59   23   34 1
    60   30   38 ar
    61   30   43 ar
    62   36   38 1
    63   45   53 ar
    64   47   49 ar
    65   47   56 ar
    66   51   55 ar
@<TRIPOS>SUBSTRUCTURE
     1 RES1 1

@<TRIPOS>CRYSIN
  11.4272   13.2171   16.8337  90.0000  97.9146  90.0000  14 1

