# MOL2 file generated by ConQuest
# Please check atom types

@<TRIPOS>MOLECULE
DAVGUE
    78    86     2
SMALL
NO_CHARGES
****
Generated from CSD

@<TRIPOS>ATOM
      1 O1         3.4397    1.1532   18.4531 O.3       1 RES1    0.0000
      2 N1         2.8797    0.4445   19.5845 N.3       1 RES1    0.0000
      3 C1         3.1070    1.4077   20.6891 C.3       1 RES1    0.0000
      4 H1         3.1507    0.9148   21.5584 H         1 RES1    0.0000
      5 C2         3.6538   -0.7639   19.7998 C.ar      1 RES1    0.0000
      6 C3         2.9952   -1.8402   20.4645 C.ar      1 RES1    0.0000
      7 C4         1.0148    2.5379   19.7737 C.ar      1 RES1    0.0000
      8 H2         1.0082    1.9226   19.0498 H         1 RES1    0.0000
      9 C5         1.9906    3.3538   21.8176 C.ar      1 RES1    0.0000
     10 H3         2.6632    3.3042   22.4868 H         1 RES1    0.0000
     11 C6         3.7200   -3.0549   20.6658 C.ar      1 RES1    0.0000
     12 C7         4.9662   -0.8596   19.3866 C.ar      1 RES1    0.0000
     13 C8         5.6561    0.3458   18.7875 C.3       1 RES1    0.0000
     14 H4         5.8546    0.1765   17.8330 H         1 RES1    0.0000
     15 H5         6.5121    0.5086   19.2572 H         1 RES1    0.0000
     16 C9         4.7564    1.5660   18.9180 C.3       1 RES1    0.0000
     17 H6         5.1048    2.3230   18.3663 H         1 RES1    0.0000
     18 C10        0.0327    3.5290   19.8504 C.ar      1 RES1    0.0000
     19 H7        -0.6291    3.5946   19.1723 H         1 RES1    0.0000
     20 C11        3.0853   -4.1300   21.3467 C.ar      1 RES1    0.0000
     21 H8         3.5537   -4.9478   21.4715 H         1 RES1    0.0000
     22 C12        5.0583   -3.1511   20.1974 C.ar      1 RES1    0.0000
     23 H9         5.5416   -3.9609   20.3179 H         1 RES1    0.0000
     24 C13        2.0051    2.4460   20.7527 C.ar      1 RES1    0.0000
     25 C14        4.5045    2.0196   20.3691 C.3       1 RES1    0.0000
     26 H10        4.4865    3.0063   20.4365 H         1 RES1    0.0000
     27 H11        5.1986    1.6645   20.9797 H         1 RES1    0.0000
     28 C15        0.0242    4.4202   20.9222 C.ar      1 RES1    0.0000
     29 H12       -0.6475    5.0902   20.9797 H         1 RES1    0.0000
     30 C16        1.0854   -2.8041   21.6133 C.ar      1 RES1    0.0000
     31 H13        0.1969   -2.7273   21.9397 H         1 RES1    0.0000
     32 C17        1.6592   -1.7499   20.9402 C.ar      1 RES1    0.0000
     33 H14        1.1589   -0.9565   20.7920 H         1 RES1    0.0000
     34 C18        1.8107   -4.0036   21.8227 C.ar      1 RES1    0.0000
     35 H15        1.4089   -4.7220   22.2952 H         1 RES1    0.0000
     36 C19        5.6593   -2.0888   19.5729 C.ar      1 RES1    0.0000
     37 H16        6.5521   -2.1750   19.2592 H         1 RES1    0.0000
     38 C20        0.9990    4.3282   21.9063 C.ar      1 RES1    0.0000
     39 H17        0.9897    4.9307   22.6409 H         1 RES1    0.0000
     40 C21        2.1367   10.6689   15.4842 C.ar      2 RES2    0.0000
     41 O2         0.6996   12.0052   13.2175 O.3       2 RES2    0.0000
     42 N2         1.1646   12.6861   14.4078 N.3       2 RES2    0.0000
     43 C22       -0.0139   16.0388   15.6497 C.ar      2 RES2    0.0000
     44 C23        3.0422   10.5453   14.4347 C.ar      2 RES2    0.0000
     45 H18        2.9615   11.1084   13.6750 H         2 RES2    0.0000
     46 C24        0.8180   14.9023   15.4277 C.ar      2 RES2    0.0000
     47 C25        0.2988   13.8258   14.6468 C.ar      2 RES2    0.0000
     48 C26        1.6605   16.9828   17.1363 C.ar      2 RES2    0.0000
     49 H19        1.9380   17.6657   17.7362 H         2 RES2    0.0000
     50 C27        0.4405   17.0729   16.5088 C.ar      2 RES2    0.0000
     51 H20       -0.1054   17.8365   16.6518 H         2 RES2    0.0000
     52 C28        4.2129    8.7749   15.5968 C.ar      2 RES2    0.0000
     53 H21        4.9095    8.1287   15.6286 H         2 RES2    0.0000
     54 C29       -0.5997   11.4741   13.6078 C.3       2 RES2    0.0000
     55 H22       -0.8705   10.7231   13.0054 H         2 RES2    0.0000
     56 C30       -1.7689   15.0350   14.3211 C.ar      2 RES2    0.0000
     57 H23       -2.6309   15.0845   13.9259 H         2 RES2    0.0000
     58 C31        0.9733   11.6393   15.4463 C.3       2 RES2    0.0000
     59 H24        0.8736   12.0744   16.3417 H         2 RES2    0.0000
     60 C32       -0.3764   10.9672   15.0437 C.3       2 RES2    0.0000
     61 H25       -0.3053    9.9792   15.0676 H         2 RES2    0.0000
     62 H26       -1.1112   11.2545   15.6424 H         2 RES2    0.0000
     63 C33       -0.9924   13.8577   14.1550 C.ar      2 RES2    0.0000
     64 C34        2.2927    9.8419   16.6038 C.ar      2 RES2    0.0000
     65 H27        1.6896    9.9203   17.3333 H         2 RES2    0.0000
     66 C35        2.1017   14.8619   16.0410 C.ar      2 RES2    0.0000
     67 H28        2.6862   14.1337   15.8656 H         2 RES2    0.0000
     68 C36        4.0681    9.6013   14.4898 C.ar      2 RES2    0.0000
     69 H29        4.6742    9.5237   13.7619 H         2 RES2    0.0000
     70 C37        2.5028   15.8727   16.8878 C.ar      2 RES2    0.0000
     71 H30        3.3530   15.8247   17.3096 H         2 RES2    0.0000
     72 C38       -1.5805   12.6317   13.4978 C.3       2 RES2    0.0000
     73 H31       -1.7688   12.8203   12.5451 H         2 RES2    0.0000
     74 H32       -2.4332   12.3914   13.9397 H         2 RES2    0.0000
     75 C39        3.3247    8.9049   16.6591 C.ar      2 RES2    0.0000
     76 H33        3.4214    8.3527   17.4261 H         2 RES2    0.0000
     77 C40       -1.2981   16.1006   15.0423 C.ar      2 RES2    0.0000
     78 H34       -1.8303   16.8818   15.1367 H         2 RES2    0.0000
@<TRIPOS>BOND
     1    1    2 1
     2    2    3 1
     3    3    4 1
     4    5    2 1
     5    6    5 ar
     6    7    8 1
     7    9   10 1
     8   11    6 ar
     9   12    5 ar
    10   13   12 1
    11   14   13 1
    12   15   13 1
    13   16    1 1
    14   17   16 1
    15   18    7 ar
    16   19   18 1
    17   20   11 ar
    18   21   20 1
    19   22   11 ar
    20   23   22 1
    21   24    3 1
    22   25    3 1
    23   26   25 1
    24   27   25 1
    25   28   18 ar
    26   29   28 1
    27   30   31 1
    28   32    6 ar
    29   33   32 1
    30   34   20 ar
    31   35   34 1
    32   36   12 ar
    33   37   36 1
    34   38    9 ar
    35   39   38 1
    36   40   44 ar
    37   41   42 1
    38   42   47 1
    39   43   46 ar
    40   44   45 1
    41   46   47 ar
    42   47   63 ar
    43   48   49 1
    44   50   43 ar
    45   51   50 1
    46   52   53 1
    47   54   41 1
    48   55   54 1
    49   56   57 1
    50   58   40 1
    51   59   58 1
    52   60   54 1
    53   61   60 1
    54   62   60 1
    55   63   56 ar
    56   64   40 ar
    57   65   64 1
    58   66   46 ar
    59   67   66 1
    60   68   44 ar
    61   69   68 1
    62   70   48 ar
    63   71   70 1
    64   72   54 1
    65   73   72 1
    66   74   72 1
    67   75   52 ar
    68   76   75 1
    69   77   43 ar
    70   78   77 1
    71    7   24 ar
    72    9   24 ar
    73   13   16 1
    74   16   25 1
    75   22   36 ar
    76   28   38 ar
    77   30   32 ar
    78   30   34 ar
    79   42   58 1
    80   48   50 ar
    81   52   68 ar
    82   56   77 ar
    83   58   60 1
    84   63   72 1
    85   64   75 ar
    86   66   70 ar
@<TRIPOS>SUBSTRUCTURE
     1 RES1 1
     2 RES2 40

@<TRIPOS>CRYSIN
   7.6903   18.9790   19.7530  90.0000  90.0000  90.0000  19 1

