# MOL2 file generated by ConQuest
# Please check atom types

@<TRIPOS>MOLECULE
DAVHAJ
    42    44     1
SMALL
NO_CHARGES
****
Generated from CSD

@<TRIPOS>ATOM
      1 C1         2.5052   -3.6417   -0.2351 C.3       1 RES1    0.0000
      2 C2         1.3708   -2.5850   -0.1318 C.3       1 RES1    0.0000
      3 C3         1.9566   -1.2410    0.2289 C.ar      1 RES1    0.0000
      4 C4         2.2605   -0.9489    1.5411 C.ar      1 RES1    0.0000
      5 C5         3.1296    0.0838    1.8704 C.ar      1 RES1    0.0000
      6 C6         3.7755    0.7781    0.8601 C.ar      1 RES1    0.0000
      7 C7         3.4861    0.5124   -0.4768 C.ar      1 RES1    0.0000
      8 C8         2.4939   -0.4174   -0.7736 C.ar      1 RES1    0.0000
      9 C9         4.4581    0.9386   -1.5535 C.3       1 RES1    0.0000
     10 C10        5.6195   -0.1022   -1.6571 C.3       1 RES1    0.0000
     11 C11        5.0969   -1.4845   -1.9543 C.ar      1 RES1    0.0000
     12 C12        5.0817   -1.9937   -3.2384 C.ar      1 RES1    0.0000
     13 C13        4.3511   -3.1397   -3.4921 C.ar      1 RES1    0.0000
     14 C14        3.5370   -3.7311   -2.5481 C.ar      1 RES1    0.0000
     15 C15        3.5451   -3.2379   -1.2539 C.ar      1 RES1    0.0000
     16 C16        4.4242   -2.1956   -0.9500 C.ar      1 RES1    0.0000
     17 C17        4.2753    1.2690    3.5972 C.3       1 RES1    0.0000
     18 C18        1.0155   -0.0455   -2.5563 C.3       1 RES1    0.0000
     19 O1         3.3285    0.2841    3.2129 O.3       1 RES1    0.0000
     20 O2         2.1977   -0.6832   -2.1048 O.3       1 RES1    0.0000
     21 O3         5.1556   -3.2028   -5.6649 O.2       1 RES1    0.0000
     22 O4         3.7524   -4.7120   -5.0816 O.2       1 RES1    0.0000
     23 N1         4.4238   -3.7207   -4.8400 N.pl3     1 RES1    0.0000
     24 H1         1.9380   -1.4924    2.2238 H         1 RES1    0.0000
     25 H2         4.4800    1.3807    1.0626 H         1 RES1    0.0000
     26 H3         5.5448   -1.5244   -3.9748 H         1 RES1    0.0000
     27 H4         2.9398   -4.4135   -2.7919 H         1 RES1    0.0000
     28 H5         4.5209   -1.9075   -0.0334 H         1 RES1    0.0000
     29 H6         2.9501   -3.7431    0.6716 H         1 RES1    0.0000
     30 H7         2.1058   -4.4773   -0.4561 H         1 RES1    0.0000
     31 H8         0.7577   -2.8971    0.5814 H         1 RES1    0.0000
     32 H9         0.8653   -2.5220   -0.9373 H         1 RES1    0.0000
     33 H10        4.8627    1.7957   -1.3483 H         1 RES1    0.0000
     34 H11        4.0033    0.9976   -2.4644 H         1 RES1    0.0000
     35 H12        6.1063   -0.0958   -0.8087 H         1 RES1    0.0000
     36 H13        6.2316    0.1915   -2.4092 H         1 RES1    0.0000
     37 H14        4.2585    1.2291    4.5612 H         1 RES1    0.0000
     38 H15        3.9626    2.1788    3.2563 H         1 RES1    0.0000
     39 H16        5.1634    1.0774    3.2129 H         1 RES1    0.0000
     40 H17        0.1815   -0.3033   -1.9715 H         1 RES1    0.0000
     41 H18        0.8758   -0.3432   -3.4585 H         1 RES1    0.0000
     42 H19        1.1403    0.8779   -2.5061 H         1 RES1    0.0000
@<TRIPOS>BOND
     1    1    2 1
     2    2    3 1
     3    3    4 ar
     4    4    5 ar
     5    5    6 ar
     6    6    7 ar
     7    7    8 ar
     8    8    3 ar
     9    9    7 1
    10   10    9 1
    11   11   10 1
    12   12   11 ar
    13   13   12 ar
    14   14   13 ar
    15   15    1 1
    16   16   11 ar
    17   17   19 1
    18   18   20 1
    19   19    5 1
    20   20    8 1
    21   21   23 2
    22   22   23 2
    23   23   13 1
    24   24    4 1
    25   25    6 1
    26   26   12 1
    27   27   14 1
    28   28   16 1
    29   29    1 1
    30   30    1 1
    31   31    2 1
    32   32    2 1
    33   33    9 1
    34   34    9 1
    35   35   10 1
    36   36   10 1
    37   37   17 1
    38   38   17 1
    39   39   17 1
    40   40   18 1
    41   41   18 1
    42   42   18 1
    43   14   15 ar
    44   15   16 ar
@<TRIPOS>SUBSTRUCTURE
     1 RES1 1

@<TRIPOS>CRYSIN
  23.8860    7.9810   18.5310  90.0000 115.6300  90.0000  15 1

