# MOL2 file generated by ConQuest
# Please check atom types

@<TRIPOS>MOLECULE
DAVJER
    35    37     1
SMALL
NO_CHARGES
****
Generated from CSD

@<TRIPOS>ATOM
      1 O1         4.8273    8.4401    9.5917 O.2       1 RES1    0.0000
      2 O2         7.8386    3.7880    8.6589 O.2       1 RES1    0.0000
      3 O3         4.5067   -0.3448    3.3603 O.3       1 RES1    0.0000
      4 N1         6.6023    5.6203    9.1318 N.am      1 RES1    0.0000
      5 N2         5.5265    6.4297    8.8279 N.2       1 RES1    0.0000
      6 N3         5.6520    7.4768    9.6106 N.pl3     1 RES1    0.0000
      7 C1         6.7763    7.3836   10.4444 C.ar      1 RES1    0.0000
      8 C2         7.2491    8.2655   11.4067 C.ar      1 RES1    0.0000
      9 H1         6.8136    9.0871   11.6008 H         1 RES1    0.0000
     10 C3         8.3948    7.8683   12.0617 C.ar      1 RES1    0.0000
     11 H2         8.7629    8.4272   12.7366 H         1 RES1    0.0000
     12 C4         9.0306    6.6510   11.7512 C.ar      1 RES1    0.0000
     13 H3         9.8196    6.4153   12.2255 H         1 RES1    0.0000
     14 C5         8.5525    5.7805   10.7816 C.ar      1 RES1    0.0000
     15 H4         8.9887    4.9619   10.5764 H         1 RES1    0.0000
     16 C6         7.3895    6.1873   10.1273 C.ar      1 RES1    0.0000
     17 C7         6.8275    4.4236    8.4197 C.2       1 RES1    0.0000
     18 C8         5.7893    4.0644    7.4481 C.2       1 RES1    0.0000
     19 H5         5.0339    4.6297    7.3382 H         1 RES1    0.0000
     20 C9         5.8919    2.9565    6.7181 C.2       1 RES1    0.0000
     21 H6         6.6585    2.4153    6.8672 H         1 RES1    0.0000
     22 C10        4.9373    2.4877    5.7051 C.ar      1 RES1    0.0000
     23 C11        5.2154    1.2925    5.0313 C.ar      1 RES1    0.0000
     24 H7         6.0046    0.8047    5.2358 H         1 RES1    0.0000
     25 C12        4.3329    0.8158    4.0586 C.ar      1 RES1    0.0000
     26 C13        3.1892    1.5416    3.7472 C.ar      1 RES1    0.0000
     27 H8         2.5954    1.2274    3.0745 H         1 RES1    0.0000
     28 C14        2.9150    2.7204    4.4157 C.ar      1 RES1    0.0000
     29 H9         2.1291    3.2101    4.2025 H         1 RES1    0.0000
     30 C15        3.7791    3.1981    5.3978 C.ar      1 RES1    0.0000
     31 H10        3.5784    4.0053    5.8561 H         1 RES1    0.0000
     32 C16        5.7028   -1.0906    3.5918 C.3       1 RES1    0.0000
     33 H11        6.4807   -0.5398    3.3629 H         1 RES1    0.0000
     34 H12        5.6982   -1.8964    3.0344 H         1 RES1    0.0000
     35 H13        5.7502   -1.3466    4.5365 H         1 RES1    0.0000
@<TRIPOS>BOND
     1    1    6 1
     2    2   17 2
     3    3   25 1
     4    4    5 1
     5    5    6 2
     6    6    7 1
     7    7    8 ar
     8    8    9 1
     9   10    8 ar
    10   11   10 1
    11   12   10 ar
    12   13   12 1
    13   14   12 ar
    14   15   14 1
    15   16    4 1
    16   17    4 1
    17   18   17 1
    18   19   18 1
    19   20   18 2
    20   21   20 1
    21   22   20 1
    22   23   22 ar
    23   24   23 1
    24   25   23 ar
    25   26   25 ar
    26   27   26 1
    27   28   26 ar
    28   29   28 1
    29   30   22 ar
    30   31   30 1
    31   32    3 1
    32   33   32 1
    33   34   32 1
    34   35   32 1
    35    7   16 ar
    36   14   16 ar
    37   28   30 ar
@<TRIPOS>SUBSTRUCTURE
     1 RES1 1

@<TRIPOS>CRYSIN
   5.7297   10.8440   11.4965  89.6890  76.0190  75.0470   2 1

