# MOL2 file generated by ConQuest
# Please check atom types

@<TRIPOS>MOLECULE
DAVJAN
    33    35     1
SMALL
NO_CHARGES
****
Generated from CSD

@<TRIPOS>ATOM
      1 O1        17.2490    1.9597    3.7667 O.2       1 RES1    0.0000
      2 O2        16.7257    2.5336    9.3218 O.2       1 RES1    0.0000
      3 O3        14.0211    0.3126   11.9761 O.2       1 RES1    0.0000
      4 O4        12.2751    1.3685   12.7049 O.2       1 RES1    0.0000
      5 N1        16.9387    2.3390    7.0926 N.am      1 RES1    0.0000
      6 N2        16.4280    1.9094    5.8789 N.2       1 RES1    0.0000
      7 N3        17.3615    2.2121    4.9932 N.pl3     1 RES1    0.0000
      8 N4        12.8799    0.7584   11.8377 N.pl3     1 RES1    0.0000
      9 C1        18.4750    2.8262    5.5908 C.ar      1 RES1    0.0000
     10 C2        19.6614    3.2642    5.0175 C.ar      1 RES1    0.0000
     11 H1        19.8283    3.2043    4.0847 H         1 RES1    0.0000
     12 C3        20.5831    3.7929    5.9003 C.ar      1 RES1    0.0000
     13 H2        21.4096    4.1192    5.5666 H         1 RES1    0.0000
     14 C4        20.3235    3.8592    7.2880 C.ar      1 RES1    0.0000
     15 H3        20.9911    4.2125    7.8628 H         1 RES1    0.0000
     16 C5        19.1298    3.4270    7.8343 C.ar      1 RES1    0.0000
     17 H4        18.9536    3.4892    8.7656 H         1 RES1    0.0000
     18 C6        18.1955    2.8939    6.9429 C.ar      1 RES1    0.0000
     19 C7        16.2140    2.1373    8.2921 C.2       1 RES1    0.0000
     20 C8        14.9098    1.4943    8.1709 C.2       1 RES1    0.0000
     21 H5        14.5855    1.1935    7.3294 H         1 RES1    0.0000
     22 C9        14.1833    1.3423    9.2890 C.2       1 RES1    0.0000
     23 H6        14.5604    1.6508   10.1034 H         1 RES1    0.0000
     24 C10       12.8508    0.7359    9.3475 C.ar      1 RES1    0.0000
     25 C11       12.1864    0.4961   10.5698 C.ar      1 RES1    0.0000
     26 C12       10.8895    0.0244   10.6639 C.ar      1 RES1    0.0000
     27 H7        10.4680   -0.0762   11.5097 H         1 RES1    0.0000
     28 C13       10.2209   -0.2989    9.4916 C.ar      1 RES1    0.0000
     29 H8         9.3377   -0.6445    9.5301 H         1 RES1    0.0000
     30 C14       10.8366   -0.1199    8.2693 C.ar      1 RES1    0.0000
     31 H9        10.3853   -0.3641    7.4692 H         1 RES1    0.0000
     32 C15       12.1210    0.4199    8.2065 C.ar      1 RES1    0.0000
     33 H10       12.5105    0.5775    7.3551 H         1 RES1    0.0000
@<TRIPOS>BOND
     1    1    7 1
     2    2   19 2
     3    3    8 2
     4    4    8 2
     5    5    6 1
     6    6    7 2
     7    7    9 1
     8    8   25 1
     9    9   10 ar
    10   10   11 1
    11   12   10 ar
    12   13   12 1
    13   14   12 ar
    14   15   14 1
    15   16   14 ar
    16   17   16 1
    17   18    5 1
    18   19    5 1
    19   20   19 1
    20   21   20 1
    21   22   20 2
    22   23   22 1
    23   24   22 1
    24   25   24 ar
    25   26   25 ar
    26   27   26 1
    27   28   26 ar
    28   29   28 1
    29   30   28 ar
    30   31   30 1
    31   32   24 ar
    32   33   32 1
    33    9   18 ar
    34   16   18 ar
    35   30   32 ar
@<TRIPOS>SUBSTRUCTURE
     1 RES1 1

@<TRIPOS>CRYSIN
  25.0610    3.6997   14.2623  90.0000  90.0000  90.0000  33 1

