# MOL2 file generated by ConQuest
# Please check atom types

@<TRIPOS>MOLECULE
DAVSOL
    33    34     1
SMALL
NO_CHARGES
****
Generated from CSD

@<TRIPOS>ATOM
      1 N1         6.4875    1.9048   13.1741 N.pl3     1 RES1    0.0000
      2 O1         4.3098    2.8671    9.4907 O.3       1 RES1    0.0000
      3 O2         3.7069    3.6220    6.9781 O.3       1 RES1    0.0000
      4 H1         4.1508    2.8828    7.2067 H         1 RES1    0.0000
      5 O3        -0.0754    6.8508    7.1343 O.3       1 RES1    0.0000
      6 H2        -0.4509    6.1029    6.8395 H         1 RES1    0.0000
      7 O4         7.3509    1.7662   14.0264 O.2       1 RES1    0.0000
      8 O5         5.4530    2.5183   13.3786 O.2       1 RES1    0.0000
      9 C1         4.7529    2.6125   10.8208 C.3       1 RES1    0.0000
     10 H3         4.0152    2.2277   11.3581 H         1 RES1    0.0000
     11 H4         5.0444    3.4561   11.2482 H         1 RES1    0.0000
     12 C2         5.9057    1.6410   10.7543 C.ar      1 RES1    0.0000
     13 C3         6.7110    1.3037   11.8523 C.ar      1 RES1    0.0000
     14 C4         7.7653    0.4093   11.7569 C.ar      1 RES1    0.0000
     15 H5         8.2905    0.2116   12.5240 H         1 RES1    0.0000
     16 C5         8.0517   -0.1926   10.5528 C.ar      1 RES1    0.0000
     17 H6         8.7652   -0.8163   10.4817 H         1 RES1    0.0000
     18 C6         7.2834    0.1257    9.4448 C.ar      1 RES1    0.0000
     19 H7         7.4774   -0.2758    8.6057 H         1 RES1    0.0000
     20 C7         6.2351    1.0242    9.5512 C.ar      1 RES1    0.0000
     21 H8         5.7234    1.2266    8.7772 H         1 RES1    0.0000
     22 C8         3.3145    3.8031    9.3556 C.ar      1 RES1    0.0000
     23 C9         3.0209    4.1644    8.0394 C.ar      1 RES1    0.0000
     24 C10        2.0438    5.1013    7.7655 C.ar      1 RES1    0.0000
     25 H9         1.8657    5.3452    6.8637 H         1 RES1    0.0000
     26 C11        1.3190    5.6908    8.7944 C.ar      1 RES1    0.0000
     27 C12        1.6010    5.3239   10.1060 C.ar      1 RES1    0.0000
     28 H10        1.1089    5.7153   10.8194 H         1 RES1    0.0000
     29 C13        2.5951    4.3907   10.3885 C.ar      1 RES1    0.0000
     30 H11        2.7824    4.1556   11.2884 H         1 RES1    0.0000
     31 C14        0.2404    6.7150    8.5173 C.3       1 RES1    0.0000
     32 H12       -0.5788    6.4567    9.0077 H         1 RES1    0.0000
     33 H13        0.5362    7.5928    8.8657 H         1 RES1    0.0000
@<TRIPOS>BOND
     1    1    7 2
     2    2    9 1
     3    3    4 1
     4    5    6 1
     5    8    1 2
     6    9   10 1
     7   11    9 1
     8   12    9 1
     9   13    1 1
    10   14   13 ar
    11   15   14 1
    12   16   14 ar
    13   17   16 1
    14   18   16 ar
    15   19   18 1
    16   20   12 ar
    17   21   20 1
    18   22    2 1
    19   23    3 1
    20   24   23 ar
    21   25   24 1
    22   26   24 ar
    23   27   26 ar
    24   28   27 1
    25   29   22 ar
    26   30   29 1
    27   31    5 1
    28   32   31 1
    29   33   31 1
    30   12   13 ar
    31   18   20 ar
    32   22   23 ar
    33   26   31 1
    34   27   29 ar
@<TRIPOS>SUBSTRUCTURE
     1 RES1 1

@<TRIPOS>CRYSIN
  10.0994    4.6199   26.9151  90.0000  95.2851  90.0000  14 1

