# MOL2 file generated by ConQuest
# Please check atom types

@<TRIPOS>MOLECULE
DAVWAB
    90    94     1
SMALL
NO_CHARGES
****
Generated from CSD

@<TRIPOS>ATOM
      1 C1         3.0695    4.6397    6.5229 C.2       1 RES1    0.0000
      2 C2         3.7116    5.8285    6.0394 C.2       1 RES1    0.0000
      3 C3         4.1286    6.5641    7.1183 C.2       1 RES1    0.0000
      4 C4         3.7478    5.8132    8.2965 C.2       1 RES1    0.0000
      5 C5         3.9100    6.1008    9.6527 C.2       1 RES1    0.0000
      6 C6         3.5081    5.3613   10.7724 C.2       1 RES1    0.0000
      7 C7         3.7227    5.6602   12.1953 C.2       1 RES1    0.0000
      8 C8         3.1817    4.6100   12.8728 C.2       1 RES1    0.0000
      9 C9         2.6383    3.7007   11.8773 C.2       1 RES1    0.0000
     10 C10        1.9808    2.5251   12.2056 C.2       1 RES1    0.0000
     11 H1         1.9217    2.3538   13.1378 H         1 RES1    0.0000
     12 C11        1.3955    1.5568   11.4039 C.2       1 RES1    0.0000
     13 C12        0.6999    0.4017   11.8836 C.2       1 RES1    0.0000
     14 C13        0.2653   -0.3200   10.8034 C.2       1 RES1    0.0000
     15 C14        0.7074    0.3873    9.6281 C.2       1 RES1    0.0000
     16 C15        0.5729    0.0817    8.2695 C.2       1 RES1    0.0000
     17 C16        1.0255    0.7871    7.1536 C.2       1 RES1    0.0000
     18 C17        0.8751    0.4545    5.7291 C.2       1 RES1    0.0000
     19 C18        1.4082    1.5078    5.0577 C.2       1 RES1    0.0000
     20 C19        1.8929    2.4517    6.0575 C.2       1 RES1    0.0000
     21 C20        2.5148    3.6526    5.7218 C.2       1 RES1    0.0000
     22 H2         2.5686    3.8243    4.7884 H         1 RES1    0.0000
     23 C21        3.9127    6.1559    4.5935 C.3       1 RES1    0.0000
     24 H3         4.0633    7.1301    4.4999 H         1 RES1    0.0000
     25 H4         3.0900    5.9268    4.0924 H         1 RES1    0.0000
     26 C22        5.0998    5.4041    3.9806 C.3       1 RES1    0.0000
     27 H5         5.2388    5.7083    3.0598 H         1 RES1    0.0000
     28 H6         4.9118    4.4425    3.9823 H         1 RES1    0.0000
     29 H7         5.9058    5.5806    4.5088 H         1 RES1    0.0000
     30 C23        4.8447    7.8898    7.0070 C.3       1 RES1    0.0000
     31 H8         4.7212    8.3938    7.8495 H         1 RES1    0.0000
     32 H9         4.4339    8.4178    6.2766 H         1 RES1    0.0000
     33 C24        6.3433    7.7422    6.7309 C.3       1 RES1    0.0000
     34 H10        6.4746    7.2968    5.8678 H         1 RES1    0.0000
     35 H11        6.7562    7.2067    7.4408 H         1 RES1    0.0000
     36 H12        6.7600    8.6293    6.7068 H         1 RES1    0.0000
     37 C25        4.3727    6.8490   12.8541 C.3       1 RES1    0.0000
     38 H13        5.0412    7.2328   12.2330 H         1 RES1    0.0000
     39 H14        4.8537    6.5437   13.6629 H         1 RES1    0.0000
     40 C26        3.3839    7.9404   13.2515 C.3       1 RES1    0.0000
     41 H15        2.8736    8.2217   12.4633 H         1 RES1    0.0000
     42 H16        3.8728    8.7081   13.6148 H         1 RES1    0.0000
     43 H17        2.7702    7.5924   13.9312 H         1 RES1    0.0000
     44 C27        3.1233    4.4026   14.3603 C.3       1 RES1    0.0000
     45 H18        3.8427    4.9324   14.7866 H         1 RES1    0.0000
     46 H19        3.2961    3.4473   14.5576 H         1 RES1    0.0000
     47 C28        1.7861    4.8015   14.9753 C.3       1 RES1    0.0000
     48 H20        1.0739    4.2445   14.5968 H         1 RES1    0.0000
     49 H21        1.6042    5.7442   14.7778 H         1 RES1    0.0000
     50 H22        1.8214    4.6721   15.9458 H         1 RES1    0.0000
     51 C29        0.4726    0.0761   13.3240 C.3       1 RES1    0.0000
     52 H23        1.2505    0.3844   13.8527 H         1 RES1    0.0000
     53 H24        0.4045   -0.9066   13.4288 H         1 RES1    0.0000
     54 C30       -0.7995    0.7294   13.8722 C.3       1 RES1    0.0000
     55 H25       -1.5710    0.4310   13.3478 H         1 RES1    0.0000
     56 H26       -0.7183    1.7037   13.8097 H         1 RES1    0.0000
     57 H27       -0.9212    0.4713   14.8094 H         1 RES1    0.0000
     58 C31       -0.4599   -1.6406   10.9354 C.3       1 RES1    0.0000
     59 H28       -0.9883   -1.8069   10.1146 H         1 RES1    0.0000
     60 H29       -1.0883   -1.5937   11.6990 H         1 RES1    0.0000
     61 C32        0.5097   -2.7959   11.1522 C.3       1 RES1    0.0000
     62 H30        1.1231   -2.8547   10.3905 H         1 RES1    0.0000
     63 H31        0.0073   -3.6334   11.2333 H         1 RES1    0.0000
     64 H32        1.0233   -2.6420   11.9723 H         1 RES1    0.0000
     65 C33        0.3275   -0.7905    5.0797 C.3       1 RES1    0.0000
     66 H33       -0.0609   -0.5503    4.2012 H         1 RES1    0.0000
     67 H34       -0.4025   -1.1517    5.6426 H         1 RES1    0.0000
     68 C34        1.3779   -1.8794    4.8743 C.3       1 RES1    0.0000
     69 H35        2.1147   -1.5255    4.3341 H         1 RES1    0.0000
     70 H36        0.9724   -2.6428    4.4126 H         1 RES1    0.0000
     71 H37        1.7218   -2.1692    5.7451 H         1 RES1    0.0000
     72 C35        1.5169    1.6906    3.5733 C.3       1 RES1    0.0000
     73 H38        1.3232    2.6361    3.3496 H         1 RES1    0.0000
     74 H39        0.8342    1.1288    3.1282 H         1 RES1    0.0000
     75 C36        2.8956    1.3236    3.0268 C.3       1 RES1    0.0000
     76 H40        2.8734    1.3428    2.0475 H         1 RES1    0.0000
     77 H41        3.1384    0.4243    3.3319 H         1 RES1    0.0000
     78 H42        3.5582    1.9693    3.3509 H         1 RES1    0.0000
     79 N1         3.1153    4.6706    7.8882 N.pl3     1 RES1    0.0000
     80 H43        2.7872    4.0570    8.4240 H         1 RES1    0.0000
     81 N2         2.8443    4.1750   10.6157 N.2       1 RES1    0.0000
     82 N3         1.3682    1.5130   10.0390 N.pl3     1 RES1    0.0000
     83 H44        1.6750    2.0835    9.4781 H         1 RES1    0.0000
     84 N4         1.6598    1.9963    7.3179 N.2       1 RES1    0.0000
     85 N5         4.6394    7.3491    9.9282 N.pl3     1 RES1    0.0000
     86 O1         3.9791    8.3529   10.1980 O.2       1 RES1    0.0000
     87 O2         5.8562    7.3096    9.8808 O.2       1 RES1    0.0000
     88 N6        -0.1936   -1.1503    8.0024 N.pl3     1 RES1    0.0000
     89 O3        -1.4043   -1.0342    7.8647 O.2       1 RES1    0.0000
     90 O4         0.4159   -2.2041    7.9495 O.2       1 RES1    0.0000
@<TRIPOS>BOND
     1    1    2 1
     2    2    3 2
     3    3    4 1
     4    4    5 2
     5    5    6 1
     6    6    7 1
     7    7    8 2
     8    8    9 1
     9    9   10 2
    10   10   11 1
    11   12   10 1
    12   13   12 2
    13   14   13 1
    14   15   14 2
    15   16   15 1
    16   17   16 2
    17   18   17 1
    18   19   18 2
    19   20   19 1
    20   21    1 2
    21   22   21 1
    22   23    2 1
    23   24   23 1
    24   25   23 1
    25   26   23 1
    26   27   26 1
    27   28   26 1
    28   29   26 1
    29   30    3 1
    30   31   30 1
    31   32   30 1
    32   33   30 1
    33   34   33 1
    34   35   33 1
    35   36   33 1
    36   37    7 1
    37   38   37 1
    38   39   37 1
    39   40   37 1
    40   41   40 1
    41   42   40 1
    42   43   40 1
    43   44    8 1
    44   45   44 1
    45   46   44 1
    46   47   44 1
    47   48   47 1
    48   49   47 1
    49   50   47 1
    50   51   13 1
    51   52   51 1
    52   53   51 1
    53   54   51 1
    54   55   54 1
    55   56   54 1
    56   57   54 1
    57   58   14 1
    58   59   58 1
    59   60   58 1
    60   61   58 1
    61   62   61 1
    62   63   61 1
    63   64   61 1
    64   65   18 1
    65   66   65 1
    66   67   65 1
    67   68   65 1
    68   69   68 1
    69   70   68 1
    70   71   68 1
    71   72   19 1
    72   73   72 1
    73   74   72 1
    74   75   72 1
    75   76   75 1
    76   77   75 1
    77   78   75 1
    78   79    1 1
    79   80   79 1
    80   81    6 2
    81   82   12 1
    82   83   82 1
    83   84   17 1
    84   85    5 1
    85   86   85 2
    86   87   85 2
    87   88   16 1
    88   89   88 2
    89   90   88 2
    90    4   79 1
    91    9   81 1
    92   15   82 1
    93   20   21 1
    94   20   84 2
@<TRIPOS>SUBSTRUCTURE
     1 RES1 1

@<TRIPOS>CRYSIN
   9.6015   13.6688   13.7637 101.5680 106.0440 104.7050   2 1

