# MOL2 file generated by ConQuest
# Please check atom types

@<TRIPOS>MOLECULE
DAVWEF
    90    94     1
SMALL
NO_CHARGES
****
Generated from CSD

@<TRIPOS>ATOM
      1 C1         2.2874    3.9961    8.0514 C.2       1 RES1    0.0000
      2 C2         1.1199    3.1802    7.8366 C.2       1 RES1    0.0000
      3 C3         0.9710    2.3605    8.9368 C.2       1 RES1    0.0000
      4 C4         2.0759    2.6179    9.8182 C.2       1 RES1    0.0000
      5 C5         2.4168    2.0389   11.0434 C.2       1 RES1    0.0000
      6 C6         3.5836    2.1359   11.8067 C.2       1 RES1    0.0000
      7 C7         3.9203    1.3789   13.0283 C.2       1 RES1    0.0000
      8 C8         5.1943    1.7413   13.3211 C.2       1 RES1    0.0000
      9 C9         5.5943    2.7322   12.3275 C.2       1 RES1    0.0000
     10 C10        6.8490    3.3528   12.3642 C.2       1 RES1    0.0000
     11 H1         7.3803    3.1625   13.1291 H         1 RES1    0.0000
     12 C11        7.4146    4.2016   11.4407 C.2       1 RES1    0.0000
     13 C12        8.7485    4.7516   11.4590 C.2       1 RES1    0.0000
     14 C13        8.9134    5.4752   10.3096 C.2       1 RES1    0.0000
     15 C14        7.6698    5.4211    9.5821 C.2       1 RES1    0.0000
     16 C15        7.3282    6.1051    8.4341 C.2       1 RES1    0.0000
     17 H2         8.0168    6.6104    8.0182 H         1 RES1    0.0000
     18 C16        6.0688    6.1322    7.8175 C.2       1 RES1    0.0000
     19 C17        5.7299    7.0623    6.7466 C.2       1 RES1    0.0000
     20 C18        4.4284    6.8511    6.4354 C.2       1 RES1    0.0000
     21 C19        4.0090    5.7343    7.3078 C.2       1 RES1    0.0000
     22 C20        2.7955    5.0377    7.2674 C.2       1 RES1    0.0000
     23 C21        0.3094    3.0783    6.5713 C.3       1 RES1    0.0000
     24 H3         0.0801    3.9881    6.2557 H         1 RES1    0.0000
     25 H4        -0.5358    2.6004    6.7619 H         1 RES1    0.0000
     26 C22        1.0751    2.3325    5.4581 C.3       1 RES1    0.0000
     27 H5         0.5657    2.3817    4.6210 H         1 RES1    0.0000
     28 H6         1.1920    1.3943    5.7147 H         1 RES1    0.0000
     29 H7         1.9533    2.7480    5.3315 H         1 RES1    0.0000
     30 C23       -0.1156    1.3174    9.0689 C.3       1 RES1    0.0000
     31 H8        -0.9383    1.6501    8.6312 H         1 RES1    0.0000
     32 H9        -0.3173    1.1810   10.0291 H         1 RES1    0.0000
     33 C24        0.2763   -0.0277    8.4431 C.3       1 RES1    0.0000
     34 H10        0.4219    0.0897    7.4818 H         1 RES1    0.0000
     35 H11       -0.4431   -0.6769    8.5871 H         1 RES1    0.0000
     36 H12        1.0996   -0.3543    8.8611 H         1 RES1    0.0000
     37 C25        3.1340    0.3669   13.8280 C.3       1 RES1    0.0000
     38 H13        2.1677    0.5304   13.6910 H         1 RES1    0.0000
     39 H14        3.3275    0.4976   14.7894 H         1 RES1    0.0000
     40 C26        3.4524   -1.0875   13.4498 C.3       1 RES1    0.0000
     41 H15        3.2899   -1.2193   12.4928 H         1 RES1    0.0000
     42 H16        2.8780   -1.6917   13.9650 H         1 RES1    0.0000
     43 H17        4.3923   -1.2794   13.6516 H         1 RES1    0.0000
     44 C27        6.1114    1.1807   14.3647 C.3       1 RES1    0.0000
     45 H18        5.5766    0.6944   15.0402 H         1 RES1    0.0000
     46 H19        6.5768    1.9246   14.8219 H         1 RES1    0.0000
     47 C28        7.1502    0.2292   13.7632 C.3       1 RES1    0.0000
     48 H20        7.6662    0.7010   13.0757 H         1 RES1    0.0000
     49 H21        6.6946   -0.5391   13.3613 H         1 RES1    0.0000
     50 H22        7.7549   -0.0820   14.4689 H         1 RES1    0.0000
     51 C29        9.7371    4.5341   12.5674 C.3       1 RES1    0.0000
     52 H23        9.2558    4.5535   13.4333 H         1 RES1    0.0000
     53 H24       10.3854    5.2817   12.5671 H         1 RES1    0.0000
     54 C30       10.5020    3.2208   12.4601 C.3       1 RES1    0.0000
     55 H25       10.9843    3.1920   11.6081 H         1 RES1    0.0000
     56 H26        9.8724    2.4714   12.5044 H         1 RES1    0.0000
     57 H27       11.1413    3.1537   13.1987 H         1 RES1    0.0000
     58 C31       10.1554    6.1685    9.8359 C.3       1 RES1    0.0000
     59 H28       10.6771    6.4715   10.6212 H         1 RES1    0.0000
     60 H29        9.9007    6.9702    9.3139 H         1 RES1    0.0000
     61 C32       11.0302    5.2686    8.9737 C.3       1 RES1    0.0000
     62 H30       10.5308    4.9952    8.1761 H         1 RES1    0.0000
     63 H31       11.2881    4.4747    9.4857 H         1 RES1    0.0000
     64 H32       11.8355    5.7585    8.7032 H         1 RES1    0.0000
     65 C33        6.6860    8.0134    6.0892 C.3       1 RES1    0.0000
     66 H33        7.3671    8.3065    6.7457 H         1 RES1    0.0000
     67 H34        6.1950    8.8139    5.7750 H         1 RES1    0.0000
     68 C34        7.3722    7.3411    4.9080 C.3       1 RES1    0.0000
     69 H35        6.6999    7.0784    4.2448 H         1 RES1    0.0000
     70 H36        7.8528    6.5459    5.2177 H         1 RES1    0.0000
     71 H37        8.0058    7.9664    4.5002 H         1 RES1    0.0000
     72 C35        3.6346    7.7255    5.4978 C.3       1 RES1    0.0000
     73 H38        2.9853    7.1648    5.0041 H         1 RES1    0.0000
     74 H39        4.2487    8.1326    4.8369 H         1 RES1    0.0000
     75 C36        2.8787    8.8404    6.2332 C.3       1 RES1    0.0000
     76 H40        3.5218    9.4437    6.6597 H         1 RES1    0.0000
     77 H41        2.2973    8.4453    6.9175 H         1 RES1    0.0000
     78 H42        2.3338    9.3431    5.5916 H         1 RES1    0.0000
     79 N1         1.3761    1.1593   11.6144 N.pl3     1 RES1    0.0000
     80 N2         1.8746    5.4920    6.2116 N.pl3     1 RES1    0.0000
     81 N3         2.8534    3.5867    9.2289 N.pl3     1 RES1    0.0000
     82 H43        3.5709    3.8897    9.5786 H         1 RES1    0.0000
     83 N4         4.6157    2.9488   11.4142 N.2       1 RES1    0.0000
     84 N5         6.8130    4.6284   10.2947 N.pl3     1 RES1    0.0000
     85 H44        6.0085    4.4441   10.0384 H         1 RES1    0.0000
     86 N6         5.0088    5.3528    8.1554 N.2       1 RES1    0.0000
     87 O1         1.4282   -0.0409   11.3694 O.2       1 RES1    0.0000
     88 O2         0.5244    1.6899   12.3166 O.2       1 RES1    0.0000
     89 O3         0.9547    6.2304    6.5462 O.2       1 RES1    0.0000
     90 O4         2.0831    5.1305    5.0582 O.2       1 RES1    0.0000
@<TRIPOS>BOND
     1    1    2 2
     2    2    3 1
     3    3    4 2
     4    4    5 1
     5    5    6 2
     6    6    7 1
     7    7    8 2
     8    8    9 1
     9    9   10 1
    10   10   11 1
    11   12   10 2
    12   13   12 1
    13   14   13 2
    14   15   14 1
    15   16   15 2
    16   17   16 1
    17   18   16 1
    18   19   18 1
    19   20   19 2
    20   21   20 1
    21   22    1 1
    22   23    2 1
    23   24   23 1
    24   25   23 1
    25   26   23 1
    26   27   26 1
    27   28   26 1
    28   29   26 1
    29   30    3 1
    30   31   30 1
    31   32   30 1
    32   33   30 1
    33   34   33 1
    34   35   33 1
    35   36   33 1
    36   37    7 1
    37   38   37 1
    38   39   37 1
    39   40   37 1
    40   41   40 1
    41   42   40 1
    42   43   40 1
    43   44    8 1
    44   45   44 1
    45   46   44 1
    46   47   44 1
    47   48   47 1
    48   49   47 1
    49   50   47 1
    50   51   13 1
    51   52   51 1
    52   53   51 1
    53   54   51 1
    54   55   54 1
    55   56   54 1
    56   57   54 1
    57   58   14 1
    58   59   58 1
    59   60   58 1
    60   61   58 1
    61   62   61 1
    62   63   61 1
    63   64   61 1
    64   65   19 1
    65   66   65 1
    66   67   65 1
    67   68   65 1
    68   69   68 1
    69   70   68 1
    70   71   68 1
    71   72   20 1
    72   73   72 1
    73   74   72 1
    74   75   72 1
    75   76   75 1
    76   77   75 1
    77   78   75 1
    78   79    5 1
    79   80   22 1
    80   81    1 1
    81   82   81 1
    82   83    6 1
    83   84   12 1
    84   85   84 1
    85   86   18 2
    86   87   79 2
    87   88   79 2
    88   89   80 2
    89   90   80 2
    90    4   81 1
    91    9   83 2
    92   15   84 1
    93   21   22 2
    94   21   86 1
@<TRIPOS>SUBSTRUCTURE
     1 RES1 1

@<TRIPOS>CRYSIN
  12.7085   10.9353   23.2462  90.0000  92.6748  90.0000  14 1

