# MOL2 file generated by ConQuest
# Please check atom types

@<TRIPOS>MOLECULE
DAVWOP
    92    96     1
SMALL
NO_CHARGES
****
Generated from CSD

@<TRIPOS>ATOM
      1 C1         8.6691   -0.2625    5.5458 C.2       1 RES1    0.0000
      2 C2         9.1093   -0.7052    4.2574 C.2       1 RES1    0.0000
      3 C3         8.2367   -0.2366    3.3131 C.2       1 RES1    0.0000
      4 C4         7.2349    0.5383    4.0279 C.2       1 RES1    0.0000
      5 C5         6.1274    1.2468    3.5815 C.2       1 RES1    0.0000
      6 C6         5.1794    2.0021    4.2829 C.2       1 RES1    0.0000
      7 C7         4.0451    2.7457    3.7233 C.2       1 RES1    0.0000
      8 C8         3.4012    3.3037    4.7823 C.2       1 RES1    0.0000
      9 C9         4.1517    2.8886    5.9803 C.2       1 RES1    0.0000
     10 C10        3.8449    3.2342    7.3054 C.2       1 RES1    0.0000
     11 C11        4.3779    2.8879    8.5513 C.2       1 RES1    0.0000
     12 C12        3.9039    3.2378    9.8727 C.2       1 RES1    0.0000
     13 C13        4.7496    2.6476   10.7867 C.2       1 RES1    0.0000
     14 C14        5.7531    1.9292   10.0462 C.2       1 RES1    0.0000
     15 C15        6.8129    1.1458   10.4920 C.2       1 RES1    0.0000
     16 C16        7.7930    0.4582    9.7781 C.2       1 RES1    0.0000
     17 C17        8.9429   -0.2992   10.3152 C.2       1 RES1    0.0000
     18 C18        9.6223   -0.7238    9.2204 C.2       1 RES1    0.0000
     19 C19        8.8883   -0.2527    8.0513 C.2       1 RES1    0.0000
     20 C20        9.2661   -0.5744    6.7567 C.2       1 RES1    0.0000
     21 H1        10.0608   -1.0914    6.6880 H         1 RES1    0.0000
     22 C21       10.3649   -1.5059    4.0495 C.3       1 RES1    0.0000
     23 H2        10.3389   -1.9273    3.1524 H         1 RES1    0.0000
     24 H3        10.4074   -2.2288    4.7259 H         1 RES1    0.0000
     25 C22       11.6232   -0.6322    4.1625 C.3       1 RES1    0.0000
     26 H4        11.5712    0.1005    3.5137 H         1 RES1    0.0000
     27 H5        12.4169   -1.1765    3.9789 H         1 RES1    0.0000
     28 H6        11.6830   -0.2610    5.0680 H         1 RES1    0.0000
     29 C23        8.3770   -0.4913    1.8296 C.3       1 RES1    0.0000
     30 H7         7.4897   -0.4019    1.4011 H         1 RES1    0.0000
     31 H8         8.6881   -1.4207    1.6912 H         1 RES1    0.0000
     32 C24        9.3614    0.4731    1.1507 C.3       1 RES1    0.0000
     33 H9         9.3701    0.3042    0.1861 H         1 RES1    0.0000
     34 H10       10.2601    0.3336    1.5160 H         1 RES1    0.0000
     35 H11        9.0807    1.3970    1.3190 H         1 RES1    0.0000
     36 C25        3.5980    2.9392    2.2962 C.3       1 RES1    0.0000
     37 H12        2.6092    2.9824    2.2713 H         1 RES1    0.0000
     38 H13        3.8787    2.1548    1.7623 H         1 RES1    0.0000
     39 C26        4.1664    4.2078    1.6528 C.3       1 RES1    0.0000
     40 H14        3.7557    4.3403    0.7744 H         1 RES1    0.0000
     41 H15        5.1361    4.1143    1.5489 H         1 RES1    0.0000
     42 H16        3.9714    4.9795    2.2248 H         1 RES1    0.0000
     43 C27        2.0979    4.0515    4.6367 C.3       1 RES1    0.0000
     44 H17        2.0927    4.5357    3.7736 H         1 RES1    0.0000
     45 H18        2.0191    4.7186    5.3635 H         1 RES1    0.0000
     46 C28        0.8995    3.0941    4.6912 C.3       1 RES1    0.0000
     47 H19        0.9593    2.4535    3.9515 H         1 RES1    0.0000
     48 H20        0.0685    3.6063    4.6110 H         1 RES1    0.0000
     49 H21        0.9056    2.6098    5.5441 H         1 RES1    0.0000
     50 C29        2.6612    3.9887   10.2939 C.3       1 RES1    0.0000
     51 H22        2.4411    4.6697    9.6079 H         1 RES1    0.0000
     52 H23        2.8354    4.4590   11.1485 H         1 RES1    0.0000
     53 C30        1.4688    3.0396   10.4696 C.3       1 RES1    0.0000
     54 H24        1.2868    2.5833    9.6215 H         1 RES1    0.0000
     55 H25        0.6802    3.5532   10.7408 H         1 RES1    0.0000
     56 H26        1.6794    2.3753   11.1594 H         1 RES1    0.0000
     57 C31        4.6066    2.8205   12.2787 C.3       1 RES1    0.0000
     58 H27        4.9689    2.0194   12.7329 H         1 RES1    0.0000
     59 H28        3.6456    2.8875   12.5058 H         1 RES1    0.0000
     60 C32        5.3337    4.0654   12.8033 C.3       1 RES1    0.0000
     61 H29        4.9481    4.8665   12.3909 H         1 RES1    0.0000
     62 H30        6.2860    4.0082   12.5770 H         1 RES1    0.0000
     63 H31        5.2323    4.1170   13.7755 H         1 RES1    0.0000
     64 C33        9.3632   -0.6113   11.7316 C.3       1 RES1    0.0000
     65 H32        9.0044    0.0851   12.3361 H         1 RES1    0.0000
     66 H33       10.3511   -0.5820   11.7888 H         1 RES1    0.0000
     67 C34        8.8788   -1.9776   12.2048 C.3       1 RES1    0.0000
     68 H34        9.2185   -2.6712   11.6028 H         1 RES1    0.0000
     69 H35        7.8987   -1.9957   12.2021 H         1 RES1    0.0000
     70 H36        9.2072   -2.1437   13.1133 H         1 RES1    0.0000
     71 C35       10.9282   -1.4693    9.1779 C.3       1 RES1    0.0000
     72 H37       10.9065   -2.1311    8.4421 H         1 RES1    0.0000
     73 H38       11.0547   -1.9608   10.0265 H         1 RES1    0.0000
     74 C36       12.1067   -0.5052    8.9648 C.3       1 RES1    0.0000
     75 H39       11.9802   -0.0154    8.1247 H         1 RES1    0.0000
     76 H40       12.9421   -1.0160    8.9210 H         1 RES1    0.0000
     77 H41       12.1483    0.1284    9.7118 H         1 RES1    0.0000
     78 N1         5.9160    1.1567    2.1170 N.pl3     1 RES1    0.0000
     79 O1         5.2080    0.2413    1.6988 O.2       1 RES1    0.0000
     80 O2         6.4628    1.9982    1.4131 O.2       1 RES1    0.0000
     81 N2         2.7487    4.2221    7.4165 N.pl3     1 RES1    0.0000
     82 O3         1.6040    3.8008    7.5432 O.2       1 RES1    0.0000
     83 O4         3.0702    5.4016    7.3834 O.2       1 RES1    0.0000
     84 N3         6.8779    1.0078   11.9643 N.pl3     1 RES1    0.0000
     85 O5         6.3337    0.0244   12.4541 O.2       1 RES1    0.0000
     86 O6         7.4472    1.8839   12.6005 O.2       1 RES1    0.0000
     87 N4         7.5521    0.4956    5.3603 N.pl3     1 RES1    0.0000
     88 H42        7.0971    0.8095    5.9054 H         1 RES1    0.0000
     89 N5         5.2210    2.1050    5.6487 N.2       1 RES1    0.0000
     90 N6         5.4949    2.1099    8.7122 N.pl3     1 RES1    0.0000
     91 H43        5.9359    1.7306    8.1137 H         1 RES1    0.0000
     92 N7         7.7921    0.4788    8.4112 N.2       1 RES1    0.0000
@<TRIPOS>BOND
     1    1    2 1
     2    2    3 2
     3    3    4 1
     4    4    5 2
     5    5    6 1
     6    6    7 1
     7    7    8 2
     8    8    9 1
     9    9   10 2
    10   10   11 1
    11   11   12 2
    12   12   13 1
    13   13   14 2
    14   14   15 1
    15   15   16 2
    16   16   17 1
    17   17   18 2
    18   18   19 1
    19   19   20 1
    20   20    1 2
    21   21   20 1
    22   22    2 1
    23   23   22 1
    24   24   22 1
    25   25   22 1
    26   26   25 1
    27   27   25 1
    28   28   25 1
    29   29    3 1
    30   30   29 1
    31   31   29 1
    32   32   29 1
    33   33   32 1
    34   34   32 1
    35   35   32 1
    36   36    7 1
    37   37   36 1
    38   38   36 1
    39   39   36 1
    40   40   39 1
    41   41   39 1
    42   42   39 1
    43   43    8 1
    44   44   43 1
    45   45   43 1
    46   46   43 1
    47   47   46 1
    48   48   46 1
    49   49   46 1
    50   50   12 1
    51   51   50 1
    52   52   50 1
    53   53   50 1
    54   54   53 1
    55   55   53 1
    56   56   53 1
    57   57   13 1
    58   58   57 1
    59   59   57 1
    60   60   57 1
    61   61   60 1
    62   62   60 1
    63   63   60 1
    64   64   17 1
    65   65   64 1
    66   66   64 1
    67   67   64 1
    68   68   67 1
    69   69   67 1
    70   70   67 1
    71   71   18 1
    72   72   71 1
    73   73   71 1
    74   74   71 1
    75   75   74 1
    76   76   74 1
    77   77   74 1
    78   78    5 1
    79   79   78 2
    80   80   78 2
    81   81   10 1
    82   82   81 2
    83   83   81 2
    84   84   15 1
    85   85   84 2
    86   86   84 2
    87   87    1 1
    88   88   87 1
    89   89    6 2
    90   90   11 1
    91   91   90 1
    92   92   16 1
    93    4   87 1
    94    9   89 1
    95   14   90 1
    96   19   92 2
@<TRIPOS>SUBSTRUCTURE
     1 RES1 1

@<TRIPOS>CRYSIN
   8.6656   13.9561   27.3650  90.0000  90.0000  90.0000  19 1

