# MOL2 file generated by ConQuest
# Please check atom types

@<TRIPOS>MOLECULE
DAVXUT
    34    34     1
SMALL
NO_CHARGES
****
Generated from CSD

@<TRIPOS>ATOM
      1 C1         2.8122   14.8061    0.9799 C.2       1 RES1    0.0000
      2 C2         2.4625   13.7949    2.0878 C.3       1 RES1    0.0000
      3 C3         2.1361   14.4198    3.4320 C.2       1 RES1    0.0000
      4 C4         2.0074   15.7352    3.5118 C.2       1 RES1    0.0000
      5 C5         2.1772   16.7753    2.4446 C.3       1 RES1    0.0000
      6 C6         3.1349   16.2461    1.3475 C.3       1 RES1    0.0000
      7 C7         1.3867   12.8460    1.6004 C.3       1 RES1    0.0000
      8 C8         1.8645   13.4877    4.5765 C.3       1 RES1    0.0000
      9 C9         2.5825   18.1438    2.9595 C.3       1 RES1    0.0000
     10 C10        4.5808   16.2841    1.8283 C.3       1 RES1    0.0000
     11 N1         3.7704   12.9738    2.2683 N.pl3     1 RES1    0.0000
     12 N2         1.5381   16.3069    4.8169 N.pl3     1 RES1    0.0000
     13 N3         0.8069   16.8969    1.7285 N.pl3     1 RES1    0.0000
     14 O1         2.8840   14.4457   -0.1680 O.2       1 RES1    0.0000
     15 O2         4.5246   13.2946    3.1442 O.2       1 RES1    0.0000
     16 O3         3.9974   12.0918    1.4906 O.2       1 RES1    0.0000
     17 O4         2.3473   16.3282    5.7369 O.2       1 RES1    0.0000
     18 O5         0.4024   16.7281    4.8435 O.2       1 RES1    0.0000
     19 O6         0.3422   15.8811    1.2735 O.2       1 RES1    0.0000
     20 O7         0.2797   17.9826    1.6586 O.2       1 RES1    0.0000
     21 O8         3.0038   17.0809    0.2354 O.3       1 RES1    0.0000
     22 H1         2.8962   16.7296   -0.3668 H         1 RES1    0.0000
     23 H2         2.0163   12.5830    4.2954 H         1 RES1    0.0000
     24 H3         0.9522   13.5866    4.8602 H         1 RES1    0.0000
     25 H4         2.4507   13.6991    5.3068 H         1 RES1    0.0000
     26 H5         4.6726   15.7367    2.6127 H         1 RES1    0.0000
     27 H6         4.8251   17.1873    2.0387 H         1 RES1    0.0000
     28 H7         5.1576   15.9496    1.1371 H         1 RES1    0.0000
     29 H8         0.5673   13.3296    1.4731 H         1 RES1    0.0000
     30 H9         1.2529   12.1526    2.2517 H         1 RES1    0.0000
     31 H10        1.6599   12.4537    0.7677 H         1 RES1    0.0000
     32 H11        3.4306   18.0799    3.4037 H         1 RES1    0.0000
     33 H12        1.9206   18.4616    3.5784 H         1 RES1    0.0000
     34 H13        2.6518   18.7551    2.2234 H         1 RES1    0.0000
@<TRIPOS>BOND
     1    1    2 1
     2    2    3 1
     3    3    4 2
     4    4    5 1
     5    5    6 1
     6    6    1 1
     7    7    2 1
     8    8    3 1
     9    9    5 1
    10   10    6 1
    11   11    2 1
    12   12    4 1
    13   13    5 1
    14   14    1 2
    15   15   11 2
    16   16   11 2
    17   17   12 2
    18   18   12 2
    19   19   13 2
    20   20   13 2
    21   21    6 1
    22   22   21 1
    23   23    8 1
    24   24    8 1
    25   25    8 1
    26   26   10 1
    27   27   10 1
    28   28   10 1
    29   29    7 1
    30   30    7 1
    31   31    7 1
    32   32    9 1
    33   33    9 1
    34   34    9 1
@<TRIPOS>SUBSTRUCTURE
     1 RES1 1

@<TRIPOS>CRYSIN
  10.6480   15.2060    8.3630  90.0000  95.9500  90.0000  14 1

