# MOL2 file generated by ConQuest
# Please check atom types

@<TRIPOS>MOLECULE
DAVXIH
    34    34     1
SMALL
NO_CHARGES
****
Generated from CSD

@<TRIPOS>ATOM
      1 C1         2.4235    2.8752    1.5089 C.2       1 RES1    0.0000
      2 C2         2.3301    4.0993    2.4371 C.3       1 RES1    0.0000
      3 C3         1.4938    3.8389    3.6866 C.2       1 RES1    0.0000
      4 C4         1.0448    2.6231    3.9626 C.2       1 RES1    0.0000
      5 C5         1.2108    1.3603    3.1463 C.3       1 RES1    0.0000
      6 C6         1.3132    1.8249    1.6684 C.3       1 RES1    0.0000
      7 C7         3.7118    4.6177    2.7798 C.3       1 RES1    0.0000
      8 C8         1.2139    5.0328    4.5505 C.3       1 RES1    0.0000
      9 C9         0.1506    0.3033    3.3867 C.3       1 RES1    0.0000
     10 C10       -0.0140    2.3996    1.1662 C.3       1 RES1    0.0000
     11 N1         0.3073    2.4147    5.2240 N.pl3     1 RES1    0.0000
     12 N2         2.6042    0.7889    3.5818 N.pl3     1 RES1    0.0000
     13 N3         1.6857    0.6528    0.7449 N.pl3     1 RES1    0.0000
     14 O1         3.2381    2.8071    0.6283 O.2       1 RES1    0.0000
     15 O2         1.5784    5.0706    1.6850 O.3       1 RES1    0.0000
     16 O3        -0.8080    2.8936    5.3192 O.2       1 RES1    0.0000
     17 O4         0.8576    1.7619    6.0784 O.2       1 RES1    0.0000
     18 O5         3.5677    1.4746    3.2986 O.2       1 RES1    0.0000
     19 O6         2.6496   -0.2462    4.1983 O.2       1 RES1    0.0000
     20 O7         1.3646    0.7478   -0.4236 O.2       1 RES1    0.0000
     21 O8         2.2893   -0.2815    1.2209 O.2       1 RES1    0.0000
     22 H1         2.0899    5.4638    1.2804 H         1 RES1    0.0000
     23 H2        -0.7077    0.6453    3.1249 H         1 RES1    0.0000
     24 H3         0.1332    0.0723    4.3172 H         1 RES1    0.0000
     25 H4         0.3550   -0.4781    2.8679 H         1 RES1    0.0000
     26 H5         1.6350    5.8075    4.1721 H         1 RES1    0.0000
     27 H6         1.5610    4.8782    5.4335 H         1 RES1    0.0000
     28 H7         0.2657    5.1756    4.6028 H         1 RES1    0.0000
     29 H8        -0.2745    3.1365    1.7255 H         1 RES1    0.0000
     30 H9        -0.6903    1.7190    1.1995 H         1 RES1    0.0000
     31 H10        0.0901    2.7029    0.2618 H         1 RES1    0.0000
     32 H11        4.1872    3.9515    3.2820 H         1 RES1    0.0000
     33 H12        3.6318    5.4176    3.3058 H         1 RES1    0.0000
     34 H13        4.1912    4.8118    1.9706 H         1 RES1    0.0000
@<TRIPOS>BOND
     1    1    2 1
     2    2    3 1
     3    3    4 2
     4    4    5 1
     5    5    6 1
     6    6    1 1
     7    7    2 1
     8    8    3 1
     9    9    5 1
    10   10    6 1
    11   11    4 1
    12   12    5 1
    13   13    6 1
    14   14    1 2
    15   15    2 1
    16   16   11 2
    17   17   11 2
    18   18   12 2
    19   19   12 2
    20   20   13 2
    21   21   13 2
    22   22   15 1
    23   23    9 1
    24   24    9 1
    25   25    9 1
    26   26    8 1
    27   27    8 1
    28   28    8 1
    29   29   10 1
    30   30   10 1
    31   31   10 1
    32   32    7 1
    33   33    7 1
    34   34    7 1
@<TRIPOS>SUBSTRUCTURE
     1 RES1 1

@<TRIPOS>CRYSIN
   6.6280    8.4020   23.9410  90.0000  96.2300  90.0000  14 1

