# MOL2 file generated by ConQuest
# Please check atom types

@<TRIPOS>MOLECULE
DAVXON
    34    34     1
SMALL
NO_CHARGES
****
Generated from CSD

@<TRIPOS>ATOM
      1 C1        10.6834    4.5714   -0.2768 C.2       1 RES1    0.0000
      2 C2         9.3403    3.8521    0.0867 C.3       1 RES1    0.0000
      3 C3         9.2747    3.4192    1.5365 C.2       1 RES1    0.0000
      4 C4        10.3238    3.6124    2.3278 C.2       1 RES1    0.0000
      5 C5        11.6465    4.2286    2.0356 C.3       1 RES1    0.0000
      6 C6        11.9514    4.1710    0.4949 C.3       1 RES1    0.0000
      7 C7         9.0714    2.7103   -0.8808 C.3       1 RES1    0.0000
      8 C8         8.0067    2.7711    1.9657 C.3       1 RES1    0.0000
      9 C9        12.8019    3.6522    2.8312 C.3       1 RES1    0.0000
     10 C10       12.3657    2.7858    0.0322 C.3       1 RES1    0.0000
     11 N1         8.2912    4.9498   -0.1286 N.pl3     1 RES1    0.0000
     12 N2        10.1831    3.2469    3.7609 N.pl3     1 RES1    0.0000
     13 N3        11.5558    5.7396    2.3278 N.pl3     1 RES1    0.0000
     14 O1        10.7256    5.3489   -1.1912 O.2       1 RES1    0.0000
     15 O2         7.9785    5.6371    0.8249 O.2       1 RES1    0.0000
     16 O3         7.8410    5.0736   -1.2387 O.2       1 RES1    0.0000
     17 O4        10.0689    2.1057    4.0894 O.2       1 RES1    0.0000
     18 O5        10.1987    4.1667    4.5480 O.2       1 RES1    0.0000
     19 O6        12.3798    6.2571    3.0786 O.2       1 RES1    0.0000
     20 O7        10.6834    6.3472    1.7211 O.2       1 RES1    0.0000
     21 O8        12.9520    5.1172    0.2363 O.3       1 RES1    0.0000
     22 H1        12.8723    2.7110    2.6564 H         1 RES1    0.0000
     23 H2        12.6487    3.7939    3.7665 H         1 RES1    0.0000
     24 H3        13.6181    4.0870    2.5711 H         1 RES1    0.0000
     25 H4        12.8301    5.2122   -0.5886 H         1 RES1    0.0000
     26 H5         7.3985    2.7355    1.2247 H         1 RES1    0.0000
     27 H6         7.6127    3.2788    2.6774 H         1 RES1    0.0000
     28 H7         8.1912    1.8801    2.2705 H         1 RES1    0.0000
     29 H8        11.6637    2.1603    0.2251 H         1 RES1    0.0000
     30 H9        13.1662    2.5203    0.4907 H         1 RES1    0.0000
     31 H10       12.5299    2.7999   -0.9130 H         1 RES1    0.0000
     32 H11        9.7281    2.0211   -0.7522 H         1 RES1    0.0000
     33 H12        9.1230    3.0360   -1.7812 H         1 RES1    0.0000
     34 H13        8.1959    2.3522   -0.7186 H         1 RES1    0.0000
@<TRIPOS>BOND
     1    1    2 1
     2    2    3 1
     3    3    4 2
     4    4    5 1
     5    5    6 1
     6    6    1 1
     7    7    2 1
     8    8    3 1
     9    9    5 1
    10   10    6 1
    11   11    2 1
    12   12    4 1
    13   13    5 1
    14   14    1 2
    15   15   11 2
    16   16   11 2
    17   17   12 2
    18   18   12 2
    19   19   13 2
    20   20   13 2
    21   21    6 1
    22   22    9 1
    23   23    9 1
    24   24    9 1
    25   25   21 1
    26   26    8 1
    27   27    8 1
    28   28    8 1
    29   29   10 1
    30   30   10 1
    31   31   10 1
    32   32    7 1
    33   33    7 1
    34   34    7 1
@<TRIPOS>SUBSTRUCTURE
     1 RES1 1

@<TRIPOS>CRYSIN
  15.6350    6.1320   13.9810  90.0000  90.0000  90.0000  33 1

