# MOL2 file generated by ConQuest
# Please check atom types

@<TRIPOS>MOLECULE
DAVXAZ
    35    35     1
SMALL
NO_CHARGES
****
Generated from CSD

@<TRIPOS>ATOM
      1 C1         2.9269    6.1338    5.2931 C.2       1 RES1    0.0000
      2 C2         2.6799    5.0411    6.3510 C.3       1 RES1    0.0000
      3 C3         1.6481    5.3715    7.3772 C.2       1 RES1    0.0000
      4 C4         1.1356    6.6025    7.4392 C.2       1 RES1    0.0000
      5 C5         1.4260    7.7849    6.5587 C.3       1 RES1    0.0000
      6 C6         1.9438    7.3145    5.1652 C.3       1 RES1    0.0000
      7 C7         4.0099    4.5980    6.9692 C.3       1 RES1    0.0000
      8 C8         1.2854    4.2890    8.3818 C.3       1 RES1    0.0000
      9 C9         0.3259    8.8452    6.4929 C.3       1 RES1    0.0000
     10 C10        2.5195    8.4252    4.3113 C.3       1 RES1    0.0000
     11 N1         2.1095    3.8749    5.4781 N.pl3     1 RES1    0.0000
     12 N2         0.2405    6.9346    8.5630 N.pl3     1 RES1    0.0000
     13 N3         2.7088    8.4687    7.1618 N.pl3     1 RES1    0.0000
     14 N4         0.7347    6.6853    4.3885 N.pl3     1 RES1    0.0000
     15 O1         3.8391    6.0476    4.5380 O.2       1 RES1    0.0000
     16 O2         0.9253    3.7725    5.3767 O.2       1 RES1    0.0000
     17 O3         2.9033    3.1211    4.9941 O.2       1 RES1    0.0000
     18 O4         0.6545    7.7704    9.3472 O.2       1 RES1    0.0000
     19 O5        -0.8543    6.4062    8.6251 O.2       1 RES1    0.0000
     20 O6         3.6998    7.7712    7.2213 O.2       1 RES1    0.0000
     21 O7         2.6562    9.6221    7.5229 O.2       1 RES1    0.0000
     22 O8         0.9700    6.3968    3.2483 O.2       1 RES1    0.0000
     23 O9        -0.3351    6.5752    4.9219 O.2       1 RES1    0.0000
     24 H1        -0.4731    8.4542    6.1318 H         1 RES1    0.0000
     25 H2         0.6111    9.5666    5.9278 H         1 RES1    0.0000
     26 H3         0.1498    9.1790    7.3759 H         1 RES1    0.0000
     27 H4         1.8847    9.1431    4.2504 H         1 RES1    0.0000
     28 H5         2.7075    8.0888    3.4320 H         1 RES1    0.0000
     29 H6         3.3304    8.7487    4.7116 H         1 RES1    0.0000
     30 H7         1.7533    3.4797    8.1626 H         1 RES1    0.0000
     31 H8         0.3391    4.1293    8.3527 H         1 RES1    0.0000
     32 H9         1.5351    4.5741    9.2648 H         1 RES1    0.0000
     33 H10        4.6369    4.3983    6.2686 H         1 RES1    0.0000
     34 H11        3.8693    3.8152    7.5064 H         1 RES1    0.0000
     35 H12        4.3595    5.3040    7.5178 H         1 RES1    0.0000
@<TRIPOS>BOND
     1    1    2 1
     2    2    3 1
     3    3    4 2
     4    4    5 1
     5    5    6 1
     6    6    1 1
     7    7    2 1
     8    8    3 1
     9    9    5 1
    10   10    6 1
    11   11    2 1
    12   12    4 1
    13   13    5 1
    14   14    6 1
    15   15    1 2
    16   16   11 2
    17   17   11 2
    18   18   12 2
    19   19   12 2
    20   20   13 2
    21   21   13 2
    22   22   14 2
    23   23   14 2
    24   24    9 1
    25   25    9 1
    26   26    9 1
    27   27   10 1
    28   28   10 1
    29   29   10 1
    30   30    8 1
    31   31    8 1
    32   32    8 1
    33   33    7 1
    34   34    7 1
    35   35    7 1
@<TRIPOS>SUBSTRUCTURE
     1 RES1 1

@<TRIPOS>CRYSIN
  13.1430    8.5370   12.6690  90.0000  90.0000  90.0000  29 1

