# MOL2 file generated by ConQuest
# Please check atom types

@<TRIPOS>MOLECULE
DAVXED
    35    35     1
SMALL
NO_CHARGES
****
Generated from CSD

@<TRIPOS>ATOM
      1 C1         1.3421    0.7895    4.6697 C.2       1 RES1    0.0000
      2 C2         2.4643    0.5574    3.6413 C.3       1 RES1    0.0000
      3 C3         3.7515    0.0019    4.2139 C.2       1 RES1    0.0000
      4 C4         3.9009   -0.0824    5.5293 C.2       1 RES1    0.0000
      5 C5         2.9353    0.2397    6.6387 C.3       1 RES1    0.0000
      6 C6         1.4723    0.2435    6.1148 C.3       1 RES1    0.0000
      7 C7         1.9018   -0.2295    2.4589 C.3       1 RES1    0.0000
      8 C8         4.7951   -0.4350    3.2310 C.3       1 RES1    0.0000
      9 C9         3.1429   -0.6309    7.8682 C.3       1 RES1    0.0000
     10 C10        0.4877    0.9461    7.0296 C.3       1 RES1    0.0000
     11 N1         2.8080    1.9784    3.0963 N.pl3     1 RES1    0.0000
     12 N2         5.2154   -0.4775    6.0418 N.pl3     1 RES1    0.0000
     13 N3         3.1791    1.7222    7.0312 N.pl3     1 RES1    0.0000
     14 N4         1.0644   -1.2390    6.0256 N.pl3     1 RES1    0.0000
     15 O1         0.3448    1.3684    4.3615 O.2       1 RES1    0.0000
     16 O2         3.8725    2.4584    3.3786 O.2       1 RES1    0.0000
     17 O3         1.9606    2.5148    2.3940 O.2       1 RES1    0.0000
     18 O4         5.8732    0.4027    6.5447 O.2       1 RES1    0.0000
     19 O5         5.5580   -1.6271    5.9559 O.2       1 RES1    0.0000
     20 O6         3.0660    2.5282    6.1359 O.2       1 RES1    0.0000
     21 O7         3.4032    1.9993    8.1877 O.2       1 RES1    0.0000
     22 O8         1.4161   -1.8414    5.0346 O.2       1 RES1    0.0000
     23 O9         0.4373   -1.7254    6.9372 O.2       1 RES1    0.0000
     24 H1         2.9953   -1.5510    7.6379 H         1 RES1    0.0000
     25 H2         2.5212   -0.3697    8.5559 H         1 RES1    0.0000
     26 H3         4.0392   -0.5212    8.1893 H         1 RES1    0.0000
     27 H4         0.7224    1.8738    7.0977 H         1 RES1    0.0000
     28 H5         0.5129    0.5428    7.9006 H         1 RES1    0.0000
     29 H6        -0.3967    0.8662    6.6695 H         1 RES1    0.0000
     30 H7         4.4769   -0.2866    2.3389 H         1 RES1    0.0000
     31 H8         4.9788   -1.3697    3.3526 H         1 RES1    0.0000
     32 H9         5.5986    0.0698    3.3688 H         1 RES1    0.0000
     33 H10        1.6747   -1.1173    2.7444 H         1 RES1    0.0000
     34 H11        2.5621   -0.2752    1.7615 H         1 RES1    0.0000
     35 H12        1.1168    0.2112    2.1296 H         1 RES1    0.0000
@<TRIPOS>BOND
     1    1    2 1
     2    2    3 1
     3    3    4 2
     4    4    5 1
     5    5    6 1
     6    6    1 1
     7    7    2 1
     8    8    3 1
     9    9    5 1
    10   10    6 1
    11   11    2 1
    12   12    4 1
    13   13    5 1
    14   14    6 1
    15   15    1 2
    16   16   11 2
    17   17   11 2
    18   18   12 2
    19   19   12 2
    20   20   13 2
    21   21   13 2
    22   22   14 2
    23   23   14 2
    24   24    9 1
    25   25    9 1
    26   26    9 1
    27   27   10 1
    28   28   10 1
    29   29   10 1
    30   30    8 1
    31   31    8 1
    32   32    8 1
    33   33    7 1
    34   34    7 1
    35   35    7 1
@<TRIPOS>SUBSTRUCTURE
     1 RES1 1

@<TRIPOS>CRYSIN
  13.4780    6.3410   16.2950  90.0000  95.5100  90.0000  14 1

