# MOL2 file generated by ConQuest
# Please check atom types

@<TRIPOS>MOLECULE
DAWDOV
    91    95     1
SMALL
NO_CHARGES
****
Generated from CSD

@<TRIPOS>ATOM
      1 O1        17.4599    8.9679   14.0740 O.2       1 RES1    0.0000
      2 O2        16.7359    4.9019   16.1905 O.2       1 RES1    0.0000
      3 O3        13.4861    6.2812    9.3723 O.2       1 RES1    0.0000
      4 O4        12.4736    4.7149   10.6996 O.3       1 RES1    0.0000
      5 O5        11.2495    3.0685   12.6857 O.2       1 RES1    0.0000
      6 O6        12.3144    0.4935    8.9907 O.2       1 RES1    0.0000
      7 O7         9.7115    7.9233    8.5396 O.2       1 RES1    0.0000
      8 O8         8.1033    4.6139    5.7370 O.2       1 RES1    0.0000
      9 N1        17.4222    8.0200   14.9377 N.pl3     1 RES1    0.0000
     10 N2        17.0909    6.1028   15.9295 N.3       1 RES1    0.0000
     11 N3        11.6873    2.1025   11.9599 N.pl3     1 RES1    0.0000
     12 N4        12.1800    0.8821   10.2212 N.3       1 RES1    0.0000
     13 N5         9.0752    7.2987    7.5838 N.pl3     1 RES1    0.0000
     14 N6         8.2593    5.7414    6.3236 N.3       1 RES1    0.0000
     15 C1        16.8753    6.7680   14.8159 C.2       1 RES1    0.0000
     16 C2        17.9811    6.8707   16.8878 C.3       1 RES1    0.0000
     17 C3        17.8287    8.2742   16.3658 C.3       1 RES1    0.0000
     18 C4        17.5909    6.6332   18.2972 C.3       1 RES1    0.0000
     19 C5        19.4115    6.3129   16.6218 C.3       1 RES1    0.0000
     20 C6        16.6162    9.0069   16.9661 C.3       1 RES1    0.0000
     21 C7        19.0605    9.1919   16.4217 C.3       1 RES1    0.0000
     22 C8        16.1035    6.3361   13.6539 C.ar      1 RES1    0.0000
     23 C9        15.0318    5.5029   13.8341 C.ar      1 RES1    0.0000
     24 C10       14.1104    5.2499   12.8187 C.ar      1 RES1    0.0000
     25 C11       14.3706    5.8013   11.5522 C.ar      1 RES1    0.0000
     26 C12       15.5038    6.5475   11.3385 C.ar      1 RES1    0.0000
     27 C13       16.3628    6.8609   12.3924 C.ar      1 RES1    0.0000
     28 C14       13.3905    5.6566   10.4362 C.2       1 RES1    0.0000
     29 C15       11.4469    4.4297    9.7688 C.ar      1 RES1    0.0000
     30 C16       11.1047    3.0777    9.7340 C.ar      1 RES1    0.0000
     31 C17       10.1471    2.6681    8.7993 C.ar      1 RES1    0.0000
     32 C18        9.5366    3.6177    7.9902 C.ar      1 RES1    0.0000
     33 C19        9.7999    4.9750    8.1058 C.ar      1 RES1    0.0000
     34 C20       10.7975    5.3842    9.0566 C.ar      1 RES1    0.0000
     35 C21       11.7074    2.0820   10.5990 C.2       1 RES1    0.0000
     36 C22       12.3315   -0.0504   11.3745 C.3       1 RES1    0.0000
     37 C23       12.3979    0.9132   12.5714 C.3       1 RES1    0.0000
     38 C24       11.1082   -0.9545   11.3745 C.3       1 RES1    0.0000
     39 C25       13.6170   -0.8732   11.1707 C.3       1 RES1    0.0000
     40 C26       11.6110    0.4795   13.8030 C.3       1 RES1    0.0000
     41 C27       13.8164    1.3864   12.9455 C.3       1 RES1    0.0000
     42 C28        9.0880    5.9812    7.3912 C.2       1 RES1    0.0000
     43 C29        8.0921    8.0639    6.7474 C.3       1 RES1    0.0000
     44 C30        7.7702    7.0271    5.6612 C.3       1 RES1    0.0000
     45 C31        6.9437    8.3804    7.6311 C.3       1 RES1    0.0000
     46 C32        8.7672    9.3301    6.2378 C.3       1 RES1    0.0000
     47 C33        6.2918    6.8418    5.3604 C.3       1 RES1    0.0000
     48 C34        8.5546    7.1684    4.3736 C.3       1 RES1    0.0000
     49 H1        18.1814    7.1152   18.8651 H         1 RES1    0.0000
     50 H2        17.6485    5.7061   18.4948 H         1 RES1    0.0000
     51 H3        16.7007    6.9335   18.4376 H         1 RES1    0.0000
     52 H4        20.0345    6.7591   17.1836 H         1 RES1    0.0000
     53 H5        19.4333    5.3805   16.8008 H         1 RES1    0.0000
     54 H6        19.6391    6.4665   15.7120 H         1 RES1    0.0000
     55 H7        16.7863    9.2106   17.8771 H         1 RES1    0.0000
     56 H8        15.8613    8.4325   16.9052 H         1 RES1    0.0000
     57 H9        16.4406    9.8090   16.4888 H         1 RES1    0.0000
     58 H10       18.8674   10.0119   15.9830 H         1 RES1    0.0000
     59 H11       19.2732    9.3607   17.3315 H         1 RES1    0.0000
     60 H12       19.7999    8.7714   15.9966 H         1 RES1    0.0000
     61 H13       14.9101    5.0877   14.6792 H         1 RES1    0.0000
     62 H14       13.3501    4.6986   12.9616 H         1 RES1    0.0000
     63 H15       15.6844    6.8758   10.4660 H         1 RES1    0.0000
     64 H16       17.1356    7.3921   12.2482 H         1 RES1    0.0000
     65 H17        9.9528    1.7449    8.6875 H         1 RES1    0.0000
     66 H18        8.8627    3.3411    7.3800 H         1 RES1    0.0000
     67 H19       11.0334    6.2989    9.1560 H         1 RES1    0.0000
     68 H20       10.3491   -0.4034   11.5224 H         1 RES1    0.0000
     69 H21       11.1763   -1.5944   12.0730 H         1 RES1    0.0000
     70 H22       11.0183   -1.4029   10.5418 H         1 RES1    0.0000
     71 H23       14.3661   -0.2905   11.1309 H         1 RES1    0.0000
     72 H24       13.5531   -1.3624   10.3591 H         1 RES1    0.0000
     73 H25       13.7238   -1.4768   11.8965 H         1 RES1    0.0000
     74 H26       10.7251    0.2371   13.5594 H         1 RES1    0.0000
     75 H27       12.0459   -0.2664   14.1983 H         1 RES1    0.0000
     76 H28       11.5827    1.1960   14.4257 H         1 RES1    0.0000
     77 H29       13.7576    2.0841   13.5868 H         1 RES1    0.0000
     78 H30       14.3013    0.6574   13.3146 H         1 RES1    0.0000
     79 H31       14.2648    1.7047   12.1699 H         1 RES1    0.0000
     80 H32        6.5557    7.5881    7.9828 H         1 RES1    0.0000
     81 H33        7.2624    8.9203    8.3445 H         1 RES1    0.0000
     82 H34        6.2893    8.8615    7.1377 H         1 RES1    0.0000
     83 H35        9.0345    9.8713    6.9711 H         1 RES1    0.0000
     84 H36        8.1492    9.8098    5.6984 H         1 RES1    0.0000
     85 H37        9.5283    9.0989    5.7196 H         1 RES1    0.0000
     86 H38        5.9635    7.6204    4.9241 H         1 RES1    0.0000
     87 H39        6.1414    6.0829    4.8086 H         1 RES1    0.0000
     88 H40        5.8387    6.7266    6.1869 H         1 RES1    0.0000
     89 H41        8.3970    6.4074    3.8280 H         1 RES1    0.0000
     90 H42        8.2730    7.9516    3.9150 H         1 RES1    0.0000
     91 H43        9.4825    7.2322    4.5675 H         1 RES1    0.0000
@<TRIPOS>BOND
     1    1    9 1
     2    2   10 1
     3    3   28 2
     4    4   28 1
     5    5   11 1
     6    6   12 1
     7    7   13 1
     8    8   14 1
     9    9   15 2
    10   10   15 1
    11   11   35 2
    12   12   35 1
    13   13   42 2
    14   14   42 1
    15   15   22 1
    16   16   10 1
    17   17    9 1
    18   18   16 1
    19   19   16 1
    20   20   17 1
    21   21   17 1
    22   22   23 ar
    23   23   24 ar
    24   24   25 ar
    25   25   26 ar
    26   26   27 ar
    27   27   22 ar
    28   28   25 1
    29   29    4 1
    30   30   29 ar
    31   31   30 ar
    32   32   31 ar
    33   33   32 ar
    34   34   29 ar
    35   35   30 1
    36   36   12 1
    37   37   11 1
    38   38   36 1
    39   39   36 1
    40   40   37 1
    41   41   37 1
    42   42   33 1
    43   43   13 1
    44   44   14 1
    45   45   43 1
    46   46   43 1
    47   47   44 1
    48   48   44 1
    49   49   18 1
    50   50   18 1
    51   51   18 1
    52   52   19 1
    53   53   19 1
    54   54   19 1
    55   55   20 1
    56   56   20 1
    57   57   20 1
    58   58   21 1
    59   59   21 1
    60   60   21 1
    61   61   23 1
    62   62   24 1
    63   63   26 1
    64   64   27 1
    65   65   31 1
    66   66   32 1
    67   67   34 1
    68   68   38 1
    69   69   38 1
    70   70   38 1
    71   71   39 1
    72   72   39 1
    73   73   39 1
    74   74   40 1
    75   75   40 1
    76   76   40 1
    77   77   41 1
    78   78   41 1
    79   79   41 1
    80   80   45 1
    81   81   45 1
    82   82   45 1
    83   83   46 1
    84   84   46 1
    85   85   46 1
    86   86   47 1
    87   87   47 1
    88   88   47 1
    89   89   48 1
    90   90   48 1
    91   91   48 1
    92   16   17 1
    93   33   34 ar
    94   36   37 1
    95   43   44 1
@<TRIPOS>SUBSTRUCTURE
     1 RES1 1

@<TRIPOS>CRYSIN
  11.7730   12.1730   14.4930  62.9500  67.7600  70.4900   2 1

