# MOL2 file generated by ConQuest
# Please check atom types

@<TRIPOS>MOLECULE
DAWNEU
    39    39     1
SMALL
NO_CHARGES
****
Generated from CSD

@<TRIPOS>ATOM
      1 C1        -0.5993   -0.1117    4.9360 C.2       1 RES1    0.0000
      2 C2        -1.5599    0.3369    3.8821 C.2       1 RES1    0.0000
      3 C3        -2.6320    1.0181    4.2714 C.2       1 RES1    0.0000
      4 C4        -3.0020    1.4410    5.6689 C.3       1 RES1    0.0000
      5 C5        -2.1137    0.7542    6.7034 C.3       1 RES1    0.0000
      6 C6        -0.6411    0.6812    6.2703 C.3       1 RES1    0.0000
      7 C7        -1.2423    0.0006    2.4233 C.3       1 RES1    0.0000
      8 C8        -3.0949    2.9531    5.7846 C.3       1 RES1    0.0000
      9 C9         0.1233    1.9755    6.0757 C.3       1 RES1    0.0000
     10 C10       -2.3189    0.5732    1.4957 C.3       1 RES1    0.0000
     11 C11       -1.1756   -1.5023    2.2093 C.3       1 RES1    0.0000
     12 C12        0.1102    0.6567    2.0761 C.3       1 RES1    0.0000
     13 N1        -4.4490    0.8481    5.8477 N.pl3     1 RES1    0.0000
     14 N2        -2.2969    1.3839    8.0711 N.pl3     1 RES1    0.0000
     15 N3         0.0911   -0.2142    7.2786 N.pl3     1 RES1    0.0000
     16 O1         0.2494   -0.9500    4.7834 O.2       1 RES1    0.0000
     17 O2        -4.5590   -0.3332    6.0564 O.2       1 RES1    0.0000
     18 O3        -5.3827    1.5981    5.6531 O.2       1 RES1    0.0000
     19 O4        -3.4556    1.4925    8.4499 O.2       1 RES1    0.0000
     20 O5        -1.3345    1.7214    8.7111 O.2       1 RES1    0.0000
     21 O6        -0.5068   -1.1875    7.6871 O.2       1 RES1    0.0000
     22 O7         1.2345    0.0632    7.5574 O.2       1 RES1    0.0000
     23 H1        -3.6039    3.1655    6.5702 H         1 RES1    0.0000
     24 H2        -3.5444    3.2974    5.0096 H         1 RES1    0.0000
     25 H3        -2.2235    3.3490    5.8530 H         1 RES1    0.0000
     26 H4         0.1365    2.5518    6.8437 H         1 RES1    0.0000
     27 H5        -0.2360    2.4523    5.3235 H         1 RES1    0.0000
     28 H6         1.0172    1.6889    5.8758 H         1 RES1    0.0000
     29 H7        -2.0968    0.3019    0.6014 H         1 RES1    0.0000
     30 H8        -2.3146    1.5318    1.5500 H         1 RES1    0.0000
     31 H9        -3.1912    0.2443    1.7219 H         1 RES1    0.0000
     32 H10       -0.4399   -1.9375    2.6460 H         1 RES1    0.0000
     33 H11       -1.0799   -1.5907    1.2572 H         1 RES1    0.0000
     34 H12       -1.9998   -1.9104    2.4864 H         1 RES1    0.0000
     35 H13        0.2905    0.3529    1.1836 H         1 RES1    0.0000
     36 H14        0.7805    0.3148    2.6723 H         1 RES1    0.0000
     37 H15        0.1229    1.6165    2.0971 H         1 RES1    0.0000
     38 H16       -3.2622    1.3017    3.6086 H         1 RES1    0.0000
     39 H17       -2.4199   -0.0779    6.8174 H         1 RES1    0.0000
@<TRIPOS>BOND
     1    1    2 1
     2    2    3 2
     3    3    4 1
     4    4    5 1
     5    5    6 1
     6    6    1 1
     7    7    2 1
     8    8    4 1
     9    9    6 1
    10   10    7 1
    11   11    7 1
    12   12    7 1
    13   13    4 1
    14   14    5 1
    15   15    6 1
    16   16    1 2
    17   17   13 2
    18   18   13 2
    19   19   14 2
    20   20   14 2
    21   21   15 2
    22   22   15 2
    23   23    8 1
    24   24    8 1
    25   25    8 1
    26   26    9 1
    27   27    9 1
    28   28    9 1
    29   29   10 1
    30   30   10 1
    31   31   10 1
    32   32   11 1
    33   33   11 1
    34   34   11 1
    35   35   12 1
    36   36   12 1
    37   37   12 1
    38   38    3 1
    39   39    5 1
@<TRIPOS>SUBSTRUCTURE
     1 RES1 1

@<TRIPOS>CRYSIN
  13.7160    6.1370   18.7310  90.0000 110.5900  90.0000 231 1

