# MOL2 file generated by ConQuest
# Please check atom types

@<TRIPOS>MOLECULE
DAWNOE
    96    96     2
SMALL
NO_CHARGES
****
Generated from CSD

@<TRIPOS>ATOM
      1 C1        13.7746    3.8673    1.9846 C.2       1 RES1    0.0000
      2 C2        12.9518    2.7293    2.5897 C.3       1 RES1    0.0000
      3 C3        12.6733    2.9901    4.0530 C.2       1 RES1    0.0000
      4 C4        13.0527    4.0116    4.7798 C.2       1 RES1    0.0000
      5 C5        13.8451    5.1459    4.1484 C.3       1 RES1    0.0000
      6 C6        14.6846    4.6003    2.9958 C.3       1 RES1    0.0000
      7 C7        11.6731    2.3014    1.7659 C.3       1 RES1    0.0000
      8 C8        12.7883    4.1154    6.2843 C.3       1 RES1    0.0000
      9 C9        15.7978    3.7167    3.5696 C.3       1 RES1    0.0000
     10 C10       10.8779    1.2203    2.4992 C.3       1 RES1    0.0000
     11 C11       12.0212    1.7786    0.3700 C.3       1 RES1    0.0000
     12 C12       10.7720    3.5331    1.6130 C.3       1 RES1    0.0000
     13 C13       12.0861    5.3775    6.6509 C.3       1 RES1    0.0000
     14 C14       12.0543    2.9065    6.8022 C.3       1 RES1    0.0000
     15 C15       14.1146    4.1395    7.0061 C.3       1 RES1    0.0000
     16 N1        13.9059    1.4900    2.5617 N.pl3     1 RES1    0.0000
     17 N2        12.8589    6.2219    3.6831 N.pl3     1 RES1    0.0000
     18 N3        15.3869    5.7269    2.2263 N.pl3     1 RES1    0.0000
     19 O1        13.7300    4.1939    0.8402 O.2       1 RES1    0.0000
     20 O2        13.7377    0.6076    3.3723 O.2       1 RES1    0.0000
     21 O3        14.7630    1.4862    1.6936 O.2       1 RES1    0.0000
     22 O4        12.1750    5.9396    2.7146 O.2       1 RES1    0.0000
     23 O5        12.8401    7.2701    4.2849 O.2       1 RES1    0.0000
     24 O6        16.2431    5.3991    1.4420 O.2       1 RES1    0.0000
     25 O7        15.0093    6.8662    2.4039 O.2       1 RES1    0.0000
     26 H1        12.2535    2.2305    4.4378 H         1 RES1    0.0000
     27 H2        14.3764    5.5877    4.8225 H         1 RES1    0.0000
     28 H3        15.4825    2.9761    4.0925 H         1 RES1    0.0000
     29 H4        16.3114    4.3066    4.1270 H         1 RES1    0.0000
     30 H5        16.3505    3.3901    2.8560 H         1 RES1    0.0000
     31 H6        10.5428    1.5279    3.3444 H         1 RES1    0.0000
     32 H7        11.4687    0.4772    2.6406 H         1 RES1    0.0000
     33 H8        10.1435    0.9456    1.9451 H         1 RES1    0.0000
     34 H9        12.5494    2.3963   -0.1398 H         1 RES1    0.0000
     35 H10       11.1958    1.6090   -0.0888 H         1 RES1    0.0000
     36 H11       12.5045    0.9570    0.4768 H         1 RES1    0.0000
     37 H12       10.5657    3.9268    2.4631 H         1 RES1    0.0000
     38 H13        9.9612    3.2318    1.1954 H         1 RES1    0.0000
     39 H14       11.1954    4.1876    1.0523 H         1 RES1    0.0000
     40 H15       11.2844    5.2535    6.1396 H         1 RES1    0.0000
     41 H16       12.5046    6.2029    6.3961 H         1 RES1    0.0000
     42 H17       11.8677    5.4054    7.5865 H         1 RES1    0.0000
     43 H18       11.2146    3.0888    6.3764 H         1 RES1    0.0000
     44 H19       11.9505    2.9597    7.7542 H         1 RES1    0.0000
     45 H20       12.3508    2.0254    6.5605 H         1 RES1    0.0000
     46 H21       14.6831    4.8876    6.8088 H         1 RES1    0.0000
     47 H22       14.5613    3.3255    6.7644 H         1 RES1    0.0000
     48 H23       13.9163    4.1281    7.9466 H         1 RES1    0.0000
     49 C16        4.9750    7.6448   13.3874 C.2       2 RES2    0.0000
     50 C17        3.5492    7.1966   13.7656 C.3       2 RES2    0.0000
     51 C18        3.1062    7.8802   15.0333 C.2       2 RES2    0.0000
     52 C19        3.7787    8.7246   15.7863 C.2       2 RES2    0.0000
     53 C20        5.2073    9.0917   15.4131 C.3       2 RES2    0.0000
     54 C21        5.8615    7.9866   14.5860 C.3       2 RES2    0.0000
     55 C22        2.4934    7.2840   12.6064 C.3       2 RES2    0.0000
     56 C23        3.1384    9.3753   17.0195 C.3       2 RES2    0.0000
     57 C24        6.1689    6.8118   15.5052 C.3       2 RES2    0.0000
     58 C25        1.1308    6.7586   13.0963 C.3       2 RES2    0.0000
     59 C26        2.8793    6.4675   11.3748 C.3       2 RES2    0.0000
     60 C27        2.3559    8.7461   12.2167 C.3       2 RES2    0.0000
     61 C28        2.0996    8.4511   17.6640 C.3       2 RES2    0.0000
     62 C29        4.1857    9.7512   18.0965 C.3       2 RES2    0.0000
     63 C30        2.3997   10.6576   16.5739 C.3       2 RES2    0.0000
     64 N4         3.7107    5.6839   14.1092 N.pl3     2 RES2    0.0000
     65 N5         5.1847   10.4234   14.6649 N.pl3     2 RES2    0.0000
     66 N6         7.2068    8.4132   14.0319 N.pl3     2 RES2    0.0000
     67 O8         5.3544    7.7562   12.2512 O.2       2 RES2    0.0000
     68 O9         4.5856    5.0750   13.5107 O.2       2 RES2    0.0000
     69 O10        2.9679    5.1902   14.9231 O.2       2 RES2    0.0000
     70 O11        4.8535   10.3892   13.4992 O.2       2 RES2    0.0000
     71 O12        5.4627   11.4222   15.3062 O.2       2 RES2    0.0000
     72 O13        7.6173    9.5170   14.3213 O.2       2 RES2    0.0000
     73 O14        7.8218    7.5840   13.3857 O.2       2 RES2    0.0000
     74 H24        2.2245    7.6005   15.2322 H         2 RES2    0.0000
     75 H25        5.7317    9.2955   16.1727 H         2 RES2    0.0000
     76 H26        5.4226    6.4637   15.9984 H         2 RES2    0.0000
     77 H27        6.8659    7.0650   16.1152 H         2 RES2    0.0000
     78 H28        6.4975    6.1396   14.9050 H         2 RES2    0.0000
     79 H29        0.8552    7.3346   13.8116 H         2 RES2    0.0000
     80 H30        1.1486    5.8497   13.4055 H         2 RES2    0.0000
     81 H31        0.5110    6.8359   12.3663 H         2 RES2    0.0000
     82 H32        3.7137    6.7498   10.9917 H         2 RES2    0.0000
     83 H33        2.1782    6.5713   10.7270 H         2 RES2    0.0000
     84 H34        2.9433    5.5459   11.6346 H         2 RES2    0.0000
     85 H35        1.6753    8.7917   11.5409 H         2 RES2    0.0000
     86 H36        3.1821    9.0816   11.8615 H         2 RES2    0.0000
     87 H37        2.0915    9.2765   12.9730 H         2 RES2    0.0000
     88 H38        2.5326    7.6258   17.8926 H         2 RES2    0.0000
     89 H39        1.3581    8.2714   17.0820 H         2 RES2    0.0000
     90 H40        1.7834    8.8790   18.4631 H         2 RES2    0.0000
     91 H41        4.6621    8.9816   18.4171 H         2 RES2    0.0000
     92 H42        3.6387   10.1044   18.8018 H         2 RES2    0.0000
     93 H43        4.8118   10.4196   17.8120 H         2 RES2    0.0000
     94 H44        3.0566   11.2589   16.2155 H         2 RES2    0.0000
     95 H45        1.9946   11.0538   17.3500 H         2 RES2    0.0000
     96 H46        1.7240   10.4880   15.9129 H         2 RES2    0.0000
@<TRIPOS>BOND
     1    1    2 1
     2    2    3 1
     3    3    4 2
     4    4    5 1
     5    5    6 1
     6    6    1 1
     7    7    2 1
     8    8    4 1
     9    9    6 1
    10   10    7 1
    11   11    7 1
    12   12    7 1
    13   13    8 1
    14   14    8 1
    15   15    8 1
    16   16    2 1
    17   17    5 1
    18   18    6 1
    19   19    1 2
    20   20   16 2
    21   21   16 2
    22   22   17 2
    23   23   17 2
    24   24   18 2
    25   25   18 2
    26   26    3 1
    27   27    5 1
    28   28    9 1
    29   29    9 1
    30   30    9 1
    31   31   10 1
    32   32   10 1
    33   33   10 1
    34   34   11 1
    35   35   11 1
    36   36   11 1
    37   37   12 1
    38   38   12 1
    39   39   12 1
    40   40   13 1
    41   41   13 1
    42   42   13 1
    43   43   14 1
    44   44   14 1
    45   45   14 1
    46   46   15 1
    47   47   15 1
    48   48   15 1
    49   49   50 1
    50   50   51 1
    51   51   52 2
    52   52   53 1
    53   53   54 1
    54   54   49 1
    55   55   50 1
    56   56   52 1
    57   57   54 1
    58   58   55 1
    59   59   55 1
    60   60   55 1
    61   61   56 1
    62   62   56 1
    63   63   56 1
    64   64   50 1
    65   65   53 1
    66   66   54 1
    67   67   49 2
    68   68   64 2
    69   69   64 2
    70   70   65 2
    71   71   65 2
    72   72   66 2
    73   73   66 2
    74   74   51 1
    75   75   53 1
    76   76   57 1
    77   77   57 1
    78   78   57 1
    79   79   58 1
    80   80   58 1
    81   81   58 1
    82   82   59 1
    83   83   59 1
    84   84   59 1
    85   85   60 1
    86   86   60 1
    87   87   60 1
    88   88   61 1
    89   89   61 1
    90   90   61 1
    91   91   62 1
    92   92   62 1
    93   93   62 1
    94   94   63 1
    95   95   63 1
    96   96   63 1
@<TRIPOS>SUBSTRUCTURE
     1 RES1 1
     2 RES2 49

@<TRIPOS>CRYSIN
  17.2590   12.6590   18.2690  90.0000 115.8400  90.0000  14 1

