# MOL2 file generated by ConQuest
# Please check atom types

@<TRIPOS>MOLECULE
DAWNIY
    48    48     1
SMALL
NO_CHARGES
****
Generated from CSD

@<TRIPOS>ATOM
      1 C1         3.7144    3.6743    7.5459 C.2       1 RES1    0.0000
      2 C2         2.8087    2.4462    7.6483 C.3       1 RES1    0.0000
      3 C3         1.8239    2.3661    6.5423 C.2       1 RES1    0.0000
      4 C4         1.7795    3.0565    5.4214 C.2       1 RES1    0.0000
      5 C5         2.8753    4.0795    5.1827 C.3       1 RES1    0.0000
      6 C6         3.4162    4.7098    6.4324 C.3       1 RES1    0.0000
      7 C7         2.0971    2.2511    9.0745 C.3       1 RES1    0.0000
      8 C8         0.7518    2.9089    4.3524 C.3       1 RES1    0.0000
      9 C9         4.6534    5.5777    6.2064 C.3       1 RES1    0.0000
     10 C10        3.0722    2.5012   10.2249 C.3       1 RES1    0.0000
     11 C11        0.9723    3.2516    9.1579 C.3       1 RES1    0.0000
     12 C12        1.5146    0.8529    9.1896 C.3       1 RES1    0.0000
     13 C13        1.3190    2.7938    2.9780 C.3       1 RES1    0.0000
     14 C14       -0.1581    1.7183    4.6144 C.3       1 RES1    0.0000
     15 C15       -0.1886    4.1570    4.3777 C.3       1 RES1    0.0000
     16 N1         3.7560    1.2156    7.4899 N.pl3     1 RES1    0.0000
     17 N2         4.0792    3.4041    4.4960 N.pl3     1 RES1    0.0000
     18 N3         2.3343    5.6402    6.9659 N.pl3     1 RES1    0.0000
     19 O1         4.6548    3.8268    8.2547 O.2       1 RES1    0.0000
     20 O2         3.3579    0.3252    6.7979 O.2       1 RES1    0.0000
     21 O3         4.8004    1.1881    8.0952 O.2       1 RES1    0.0000
     22 O4         4.6437    2.5287    5.1119 O.2       1 RES1    0.0000
     23 O5         4.3704    3.7943    3.4006 O.2       1 RES1    0.0000
     24 O6         2.4564    5.9429    8.1522 O.2       1 RES1    0.0000
     25 O7         1.5104    6.0679    6.2740 O.2       1 RES1    0.0000
     26 H1         1.1429    1.6858    6.5867 H         1 RES1    0.0000
     27 H2         2.6048    4.7123    4.5911 H         1 RES1    0.0000
     28 H3         5.3289    4.9924    5.8556 H         1 RES1    0.0000
     29 H4         4.9932    6.0279    6.9839 H         1 RES1    0.0000
     30 H5         4.4162    6.2280    5.5408 H         1 RES1    0.0000
     31 H6         3.9197    2.0610   10.1309 H         1 RES1    0.0000
     32 H7         2.6228    2.1710   11.0056 H         1 RES1    0.0000
     33 H8         3.2109    3.4467   10.3136 H         1 RES1    0.0000
     34 H9         1.1928    4.1845    9.1072 H         1 RES1    0.0000
     35 H10        0.6214    3.0515   10.0284 H         1 RES1    0.0000
     36 H11        0.3135    3.0415    8.4913 H         1 RES1    0.0000
     37 H12        2.2317    0.2176    9.1431 H         1 RES1    0.0000
     38 H13        0.8780    0.6703    8.4945 H         1 RES1    0.0000
     39 H14        1.0819    0.7879   10.0443 H         1 RES1    0.0000
     40 H15        1.9945    3.4316    2.7403 H         1 RES1    0.0000
     41 H16        0.6283    2.7938    2.3114 H         1 RES1    0.0000
     42 H17        1.7116    1.9184    3.0329 H         1 RES1    0.0000
     43 H18       -0.5909    1.6333    5.4679 H         1 RES1    0.0000
     44 H19        0.5118    1.0355    4.5267 H         1 RES1    0.0000
     45 H20       -0.8086    1.6183    3.9150 H         1 RES1    0.0000
     46 H21       -0.5964    3.9644    5.2260 H         1 RES1    0.0000
     47 H22       -0.8572    4.1320    3.6889 H         1 RES1    0.0000
     48 H23        0.2122    5.0274    4.4052 H         1 RES1    0.0000
@<TRIPOS>BOND
     1    1    2 1
     2    2    3 1
     3    3    4 2
     4    4    5 1
     5    5    6 1
     6    6    1 1
     7    7    2 1
     8    8    4 1
     9    9    6 1
    10   10    7 1
    11   11    7 1
    12   12    7 1
    13   13    8 1
    14   14    8 1
    15   15    8 1
    16   16    2 1
    17   17    5 1
    18   18    6 1
    19   19    1 2
    20   20   16 2
    21   21   16 2
    22   22   17 2
    23   23   17 2
    24   24   18 2
    25   25   18 2
    26   26    3 1
    27   27    5 1
    28   28    9 1
    29   29    9 1
    30   30    9 1
    31   31   10 1
    32   32   10 1
    33   33   10 1
    34   34   11 1
    35   35   11 1
    36   36   11 1
    37   37   12 1
    38   38   12 1
    39   39   12 1
    40   40   13 1
    41   41   13 1
    42   42   13 1
    43   43   14 1
    44   44   14 1
    45   45   14 1
    46   46   15 1
    47   47   15 1
    48   48   15 1
@<TRIPOS>SUBSTRUCTURE
     1 RES1 1

@<TRIPOS>CRYSIN
  13.8700   25.0120   10.5640  90.0000  90.0000  90.0000  61 1

