# MOL2 file generated by ConQuest
# Please check atom types

@<TRIPOS>MOLECULE
DAWPIA
    47    47     1
SMALL
NO_CHARGES
****
Generated from CSD

@<TRIPOS>ATOM
      1 C1         6.0633    1.3825   12.6784 C.2       1 RES1    0.0000
      2 C2         4.6525    1.6552   13.2095 C.3       1 RES1    0.0000
      3 C3         3.6240    1.4300   12.1401 C.2       1 RES1    0.0000
      4 C4         3.7869    0.8235   10.9765 C.2       1 RES1    0.0000
      5 C5         5.1209    0.2401   10.6521 C.3       1 RES1    0.0000
      6 C6         6.2531    1.0854   11.1831 C.3       1 RES1    0.0000
      7 C7         4.5084    3.0634   13.9037 C.3       1 RES1    0.0000
      8 C8         2.7126    0.7014    9.9089 C.3       1 RES1    0.0000
      9 C9         6.3352    2.3769   10.3711 C.3       1 RES1    0.0000
     10 C10        3.1138    3.2602   14.4891 C.3       1 RES1    0.0000
     11 C11        5.4992    3.2927   15.0419 C.3       1 RES1    0.0000
     12 C12        4.7265    4.1325   12.8180 C.3       1 RES1    0.0000
     13 C13        1.3610    1.1044   10.4509 C.3       1 RES1    0.0000
     14 C14        2.6237   -0.7313    9.3670 C.3       1 RES1    0.0000
     15 C15        3.0680    1.6430    8.7526 C.3       1 RES1    0.0000
     16 N1         4.3738    0.6159   14.3351 N.pl3     1 RES1    0.0000
     17 N2         5.2313   -1.1464   11.2774 N.pl3     1 RES1    0.0000
     18 O1         7.0218    1.4232   13.3763 O.2       1 RES1    0.0000
     19 O2         3.2470    0.1899   14.4130 O.2       1 RES1    0.0000
     20 O3         5.2515    0.2849   15.0818 O.2       1 RES1    0.0000
     21 O4         5.3067   -1.1912   12.4972 O.2       1 RES1    0.0000
     22 O5         5.2475   -2.1219   10.5596 O.2       1 RES1    0.0000
     23 O6         7.4364    0.3405   11.0055 O.3       1 RES1    0.0000
     24 H1         7.9695    0.4871   11.7178 H         1 RES1    0.0000
     25 H2         2.8122    1.7895   12.3613 H         1 RES1    0.0000
     26 H3         5.2677    0.0882    9.7639 H         1 RES1    0.0000
     27 H4         5.5100    2.8477   10.3385 H         1 RES1    0.0000
     28 H5         6.6166    2.1707    9.4776 H         1 RES1    0.0000
     29 H6         6.9868    2.9264   10.7989 H         1 RES1    0.0000
     30 H7         2.4070    3.1923   13.8548 H         1 RES1    0.0000
     31 H8         3.1070    4.1339   14.8879 H         1 RES1    0.0000
     32 H9         3.0128    2.5967   15.1743 H         1 RES1    0.0000
     33 H10        6.3918    3.2615   14.7266 H         1 RES1    0.0000
     34 H11        5.3713    2.6157   15.7108 H         1 RES1    0.0000
     35 H12        5.3256    4.1569   15.4226 H         1 RES1    0.0000
     36 H13        4.5259    4.9818   13.2186 H         1 RES1    0.0000
     37 H14        4.1678    3.9941   12.0549 H         1 RES1    0.0000
     38 H15        5.6338    4.1217   12.5407 H         1 RES1    0.0000
     39 H16        1.0998    0.5495   11.1886 H         1 RES1    0.0000
     40 H17        0.7364    1.0080    9.7349 H         1 RES1    0.0000
     41 H18        1.3866    2.0215   10.7318 H         1 RES1    0.0000
     42 H19        3.4449   -1.0365    8.9972 H         1 RES1    0.0000
     43 H20        1.9601   -0.7285    8.6819 H         1 RES1    0.0000
     44 H21        2.3585   -1.3187   10.0775 H         1 RES1    0.0000
     45 H22        2.3882    1.5548    8.0892 H         1 RES1    0.0000
     46 H23        3.8999    1.3852    8.3738 H         1 RES1    0.0000
     47 H24        3.1138    2.5560    9.0462 H         1 RES1    0.0000
@<TRIPOS>BOND
     1    1    2 1
     2    2    3 1
     3    3    4 2
     4    4    5 1
     5    5    6 1
     6    6    1 1
     7    7    2 1
     8    8    4 1
     9    9    6 1
    10   10    7 1
    11   11    7 1
    12   12    7 1
    13   13    8 1
    14   14    8 1
    15   15    8 1
    16   16    2 1
    17   17    5 1
    18   18    1 2
    19   19   16 2
    20   20   16 2
    21   21   17 2
    22   22   17 2
    23   23    6 1
    24   24   23 1
    25   25    3 1
    26   26    5 1
    27   27    9 1
    28   28    9 1
    29   29    9 1
    30   30   10 1
    31   31   10 1
    32   32   10 1
    33   33   11 1
    34   34   11 1
    35   35   11 1
    36   36   12 1
    37   37   12 1
    38   38   12 1
    39   39   13 1
    40   40   13 1
    41   41   13 1
    42   42   14 1
    43   43   14 1
    44   44   14 1
    45   45   15 1
    46   46   15 1
    47   47   15 1
@<TRIPOS>SUBSTRUCTURE
     1 RES1 1

@<TRIPOS>CRYSIN
  13.4620   13.5670   18.1250  90.0000  90.0000  90.0000  61 1

