# MOL2 file generated by ConQuest
# Please check atom types

@<TRIPOS>MOLECULE
DAXBOW
    27    30     1
SMALL
NO_CHARGES
****
Generated from CSD

@<TRIPOS>ATOM
      1 C1         2.3636    1.3120    5.4018 C.2       1 RES1    0.0000
      2 C2         2.8737    0.2429    6.2101 C.2       1 RES1    0.0000
      3 C3         2.5471   -0.3254    7.5235 C.2       1 RES1    0.0000
      4 C4         1.8638   -0.6031    9.5830 C.2       1 RES1    0.0000
      5 C5        -0.2008    3.2979    6.6983 C.2       1 RES1    0.0000
      6 C6        -0.7028    3.9092    7.8669 C.2       1 RES1    0.0000
      7 C7        -0.3255    3.6919    9.2595 C.2       1 RES1    0.0000
      8 C8         0.3855    2.7715   10.9807 C.2       1 RES1    0.0000
      9 N1         1.3249    2.2602    5.5022 N.2       1 RES1    0.0000
     10 N2         0.8309    2.3113    6.6401 N.2       1 RES1    0.0000
     11 N3         3.0445    1.3805    4.2910 N.2       1 RES1    0.0000
     12 N4         3.8766   -0.2975    5.5635 N.2       1 RES1    0.0000
     13 N5         3.0225   -1.4886    7.8402 N.2       1 RES1    0.0000
     14 N6         1.8431    0.2475    8.5299 N.am      1 RES1    0.0000
     15 H1         1.4541    0.9761    8.4759 H         1 RES1    0.0000
     16 N7        -0.7986    3.7813    5.6553 N.2       1 RES1    0.0000
     17 N8        -1.6180    4.7726    7.5334 N.2       1 RES1    0.0000
     18 N9        -0.6544    4.5530   10.1785 N.2       1 RES1    0.0000
     19 N10        0.3266    2.5705    9.6825 N.2       1 RES1    0.0000
     20 N11        0.8898    1.9836   11.9067 N.3       1 RES1    0.0000
     21 H2         1.0618    1.2202   11.6232 H         1 RES1    0.0000
     22 H3         0.9117    2.3125   12.7433 H         1 RES1    0.0000
     23 O1         3.9850    0.4090    4.3849 O.3       1 RES1    0.0000
     24 O2         2.6048   -1.6792    9.1855 O.3       1 RES1    0.0000
     25 O3         1.3491   -0.5334   10.6671 O.2       1 RES1    0.0000
     26 O4        -1.6953    4.6982    6.1484 O.3       1 RES1    0.0000
     27 O5        -0.1581    3.9278   11.3650 O.3       1 RES1    0.0000
@<TRIPOS>BOND
     1    1    2 1
     2    2    3 1
     3    3   13 2
     4    4   14 1
     5    5    6 1
     6    6    7 1
     7    7   18 2
     8    8   19 2
     9    9    1 1
    10   10    5 1
    11   11    1 2
    12   12    2 2
    13   13   24 1
    14   14    3 1
    15   15   14 1
    16   16    5 2
    17   17    6 2
    18   18   27 1
    19   19    7 1
    20   20    8 1
    21   21   20 1
    22   22   20 1
    23   23   11 1
    24   24    4 1
    25   25    4 2
    26   26   16 1
    27   27    8 1
    28    9   10 2
    29   12   23 1
    30   17   26 1
@<TRIPOS>SUBSTRUCTURE
     1 RES1 1

@<TRIPOS>CRYSIN
  11.5408   11.6206   18.3621  90.0000  90.0000  90.0000  61 1

