# MOL2 file generated by ConQuest
# Please check atom types

@<TRIPOS>MOLECULE
DAXJIW
    50    52     1
SMALL
NO_CHARGES
****
Generated from CSD

@<TRIPOS>ATOM
      1 O1        12.1703    2.7233    6.6855 O.2       1 RES1    0.0000
      2 O2        10.7054    1.1130    6.7416 O.2       1 RES1    0.0000
      3 O3         7.1654    7.4021    7.5646 O.2       1 RES1    0.0000
      4 O4         5.7001    5.6859    7.7159 O.3       1 RES1    0.0000
      5 N1        11.0172    2.3066    6.8077 N.pl3     1 RES1    0.0000
      6 C1         4.6847    5.8939   10.4513 C.3       1 RES1    0.0000
      7 H1         4.2420    5.0321   10.3083 H         1 RES1    0.0000
      8 C2         4.6038    6.9756    9.4282 C.2       1 RES1    0.0000
      9 C3         4.5593    8.1871    9.9706 C.2       1 RES1    0.0000
     10 C4         4.5685    8.1036   11.4909 C.3       1 RES1    0.0000
     11 H2         5.3716    8.5956   11.8595 H         1 RES1    0.0000
     12 H3         3.7195    8.5583   11.8925 H         1 RES1    0.0000
     13 C5         4.6781    6.6074   11.7946 C.3       1 RES1    0.0000
     14 H4         4.1703    6.2324   12.5086 H         1 RES1    0.0000
     15 C6         5.9120    5.8619   11.3556 C.3       1 RES1    0.0000
     16 C7         7.1803    6.5962   11.0014 C.3       1 RES1    0.0000
     17 H5         7.7615    6.0087   10.4843 H         1 RES1    0.0000
     18 H6         7.0052    7.4103   10.4513 H         1 RES1    0.0000
     19 H7         7.6509    6.8064   11.8375 H         1 RES1    0.0000
     20 C8         6.1663    4.5185   12.0113 C.3       1 RES1    0.0000
     21 H8         5.2875    4.2195   12.3326 H         1 RES1    0.0000
     22 H9         6.5699    3.9735   11.3864 H         1 RES1    0.0000
     23 H10        6.7931    4.5699   12.7946 H         1 RES1    0.0000
     24 C9         4.5487    9.5290    9.3006 C.3       1 RES1    0.0000
     25 H11        3.6997    9.9748    9.6152 H         1 RES1    0.0000
     26 H12        4.6431    9.4529    8.2620 H         1 RES1    0.0000
     27 H13        5.3548    9.9972    9.5712 H         1 RES1    0.0000
     28 C10        4.6069    6.6491    7.9661 C.3       1 RES1    0.0000
     29 H14        4.8721    7.4475    7.3819 H         1 RES1    0.0000
     30 C11        3.3269    5.9841    7.4644 C.3       1 RES1    0.0000
     31 H15        3.2327    5.1514    7.9870 H         1 RES1    0.0000
     32 C12        2.1682    6.9473    7.7021 C.3       1 RES1    0.0000
     33 H16        2.0163    7.1344    8.6911 H         1 RES1    0.0000
     34 H17        2.3775    7.9023    7.1619 H         1 RES1    0.0000
     35 H18        1.3166    6.6573    7.3379 H         1 RES1    0.0000
     36 C13        3.4312    5.6106    5.9859 C.3       1 RES1    0.0000
     37 H19        4.2355    5.0321    5.7977 H         1 RES1    0.0000
     38 H20        3.5874    6.5008    5.3687 H         1 RES1    0.0000
     39 H21        2.6810    5.2260    5.7207 H         1 RES1    0.0000
     40 C14        6.9276    6.2093    7.5657 C.2       1 RES1    0.0000
     41 C15        7.9541    5.1454    7.4083 C.ar      1 RES1    0.0000
     42 C16        9.2978    5.5555    7.3632 C.ar      1 RES1    0.0000
     43 H22        9.4562    6.5008    7.4919 H         1 RES1    0.0000
     44 C17       10.2901    4.6206    7.1707 C.ar      1 RES1    0.0000
     45 H23       11.1452    4.8905    7.1179 H         1 RES1    0.0000
     46 C18        9.9430    3.2854    7.0365 C.ar      1 RES1    0.0000
     47 C19        8.6392    2.8515    7.0838 C.ar      1 RES1    0.0000
     48 H24        8.4405    1.9383    7.0079 H         1 RES1    0.0000
     49 C20        7.6376    3.7976    7.2774 C.ar      1 RES1    0.0000
     50 H25        6.6450    3.5709    7.3599 H         1 RES1    0.0000
@<TRIPOS>BOND
     1    1    5 2
     2    2    5 2
     3    3   40 2
     4    4   28 1
     5    5   46 1
     6    6    7 1
     7    8    6 1
     8    9    8 2
     9   10    9 1
    10   11   10 1
    11   12   10 1
    12   13    6 1
    13   14   13 1
    14   15    6 1
    15   16   15 1
    16   17   16 1
    17   18   16 1
    18   19   16 1
    19   20   15 1
    20   21   20 1
    21   22   20 1
    22   23   20 1
    23   24    9 1
    24   25   24 1
    25   26   24 1
    26   27   24 1
    27   28    8 1
    28   29   28 1
    29   30   28 1
    30   31   30 1
    31   32   30 1
    32   33   32 1
    33   34   32 1
    34   35   32 1
    35   36   30 1
    36   37   36 1
    37   38   36 1
    38   39   36 1
    39   40    4 1
    40   41   40 1
    41   42   41 ar
    42   43   42 1
    43   44   42 ar
    44   45   44 1
    45   46   44 ar
    46   47   46 ar
    47   48   47 1
    48   49   41 ar
    49   50   49 1
    50   10   13 1
    51   13   15 1
    52   47   49 ar
@<TRIPOS>SUBSTRUCTURE
     1 RES1 1

@<TRIPOS>CRYSIN
  11.2540    7.4550   11.4040  90.0000 105.2700  90.0000   4 1

