# MOL2 file generated by ConQuest
# Please check atom types

@<TRIPOS>MOLECULE
DAXMUL
    33    34     1
SMALL
NO_CHARGES
****
Generated from CSD

@<TRIPOS>ATOM
      1 C1         3.9425    7.7932    3.7533 C.3       1 RES1    0.0000
      2 H1         3.4852    8.3893    3.1246 H         1 RES1    0.0000
      3 C2         5.2370    8.4867    4.1967 C.3       1 RES1    0.0000
      4 H2         5.0207    9.3930    4.5000 H         1 RES1    0.0000
      5 O1         6.1193    8.5758    3.0838 O.3       1 RES1    0.0000
      6 C3         5.9195    7.7496    5.3212 C.3       1 RES1    0.0000
      7 H3         6.2764    6.9014    4.9858 H         1 RES1    0.0000
      8 O2         6.9863    8.5358    5.8536 O.3       1 RES1    0.0000
      9 H4         7.6294    8.5039    5.3456 H         1 RES1    0.0000
     10 C4         4.9400    7.4747    6.4469 C.3       1 RES1    0.0000
     11 H5         4.7001    8.3174    6.8869 H         1 RES1    0.0000
     12 O3         5.5175    6.5848    7.4005 O.3       1 RES1    0.0000
     13 H6         6.2592    6.8596    7.6166 H         1 RES1    0.0000
     14 C5         3.7021    6.8168    5.9131 C.3       1 RES1    0.0000
     15 H7         3.9317    5.9505    5.5435 H         1 RES1    0.0000
     16 H8         3.0736    6.6767    6.6390 H         1 RES1    0.0000
     17 O4         3.0851    7.6222    4.8970 O.3       1 RES1    0.0000
     18 N1         4.2135    6.5738    3.0758 N.pl3     1 RES1    0.0000
     19 H9         5.0316    6.0151    3.2186 H         1 RES1    0.0000
     20 C6         3.3701    5.9660    2.1620 C.ar      1 RES1    0.0000
     21 C7         2.0635    6.4419    1.9351 C.ar      1 RES1    0.0000
     22 H10        1.7436    7.1744    2.4109 H         1 RES1    0.0000
     23 C8         1.2601    5.8158    1.0037 C.ar      1 RES1    0.0000
     24 H11        0.4027    6.1343    0.8336 H         1 RES1    0.0000
     25 C9         1.7429    4.7011    0.3183 C.ar      1 RES1    0.0000
     26 N2         0.9096    3.9967   -0.6173 N.pl3     1 RES1    0.0000
     27 O5        -0.2513    4.3898   -0.7860 O.2       1 RES1    0.0000
     28 O6         1.3670    3.0403   -1.2258 O.2       1 RES1    0.0000
     29 C10        3.0431    4.2415    0.5318 C.ar      1 RES1    0.0000
     30 H12        3.3726    3.5181    0.0500 H         1 RES1    0.0000
     31 C11        3.8236    4.8658    1.4583 C.ar      1 RES1    0.0000
     32 H13        4.6811    4.5445    1.6213 H         1 RES1    0.0000
     33 H14        6.5137    9.6096    2.7588 H         1 RES1    0.0000
@<TRIPOS>BOND
     1    1    2 1
     2    3    1 1
     3    4    3 1
     4    5    3 1
     5    6    3 1
     6    7    6 1
     7    8    6 1
     8    9    8 1
     9   10    6 1
    10   11   10 1
    11   12   10 1
    12   13   12 1
    13   14   10 1
    14   15   14 1
    15   16   14 1
    16   17    1 1
    17   18    1 1
    18   19   18 1
    19   20   18 1
    20   21   20 ar
    21   22   21 1
    22   23   21 ar
    23   24   23 1
    24   25   23 ar
    25   26   25 1
    26   27   26 2
    27   28   26 2
    28   29   25 ar
    29   30   29 1
    30   31   20 ar
    31   32   31 1
    32   33    5 1
    33   14   17 1
    34   29   31 ar
@<TRIPOS>SUBSTRUCTURE
     1 RES1 1

@<TRIPOS>CRYSIN
   6.3610    9.1000   19.9910  90.0000  90.0000  90.0000  19 1

