# MOL2 file generated by ConQuest
# Please check atom types

@<TRIPOS>MOLECULE
DAXREC
    39    42     1
SMALL
NO_CHARGES
****
Generated from CSD

@<TRIPOS>ATOM
      1 O1         9.1911    6.2190    3.0062 O.2       1 RES1    0.0000
      2 O2         6.6546    8.4887    5.3569 O.3       1 RES1    0.0000
      3 H1         7.1675    9.0864    5.0645 H         1 RES1    0.0000
      4 N1         7.3795    6.0393    1.5620 N.am      1 RES1    0.0000
      5 O3         6.0205    2.2560    8.9548 O.2       1 RES1    0.0000
      6 O4         5.5408    3.8728   10.2955 O.2       1 RES1    0.0000
      7 N2         5.8840    3.4442    9.1990 N.pl3     1 RES1    0.0000
      8 C1         7.9936    6.3198    2.7657 C.2       1 RES1    0.0000
      9 C2         6.4701    5.5528   -0.4415 C.ar      1 RES1    0.0000
     10 C3         7.6881    5.5656    0.2790 C.ar      1 RES1    0.0000
     11 C4         6.9102    6.7650    3.6700 C.2       1 RES1    0.0000
     12 C5         6.7509    6.2243    6.1350 C.ar      1 RES1    0.0000
     13 C6         6.0103    6.2988    1.6425 C.2       1 RES1    0.0000
     14 C7         6.1544    4.4157    8.1329 C.ar      1 RES1    0.0000
     15 C8         8.8813    5.1489   -0.2754 C.ar      1 RES1    0.0000
     16 H2         9.6899    5.1565    0.2237 H         1 RES1    0.0000
     17 C9         5.4257    6.0168    0.4555 C.2       1 RES1    0.0000
     18 H3         4.5030    6.1062    0.2463 H         1 RES1    0.0000
     19 C10        5.7303    6.7424    2.9968 C.2       1 RES1    0.0000
     20 C11        7.2045    7.2139    5.0742 C.3       1 RES1    0.0000
     21 H4         8.1974    7.2974    5.1552 H         1 RES1    0.0000
     22 C12        6.9016    4.8564    5.9252 C.ar      1 RES1    0.0000
     23 H5         7.2172    4.5466    5.0841 H         1 RES1    0.0000
     24 C13        6.6022    3.9427    6.9118 C.ar      1 RES1    0.0000
     25 H6         6.7005    3.0110    6.7572 H         1 RES1    0.0000
     26 C14        6.2681    6.6612    7.3681 C.ar      1 RES1    0.0000
     27 H7         6.1410    7.5899    7.5219 H         1 RES1    0.0000
     28 C15        6.4736    5.1219   -1.7584 C.ar      1 RES1    0.0000
     29 H8         5.6697    5.1136   -2.2655 H         1 RES1    0.0000
     30 C16        7.6608    4.7068   -2.3223 C.ar      1 RES1    0.0000
     31 H9         7.6712    4.4060   -3.2237 H         1 RES1    0.0000
     32 C17        8.8454    4.7218   -1.5898 C.ar      1 RES1    0.0000
     33 H10        9.6492    4.4308   -2.0040 H         1 RES1    0.0000
     34 C18        5.9712    5.7536    8.3719 C.ar      1 RES1    0.0000
     35 H11        5.6461    6.0536    9.2131 H         1 RES1    0.0000
     36 C19        4.3667    7.0959    3.4877 C.3       1 RES1    0.0000
     37 H12        4.3651    7.1049    4.4675 H         1 RES1    0.0000
     38 H13        3.7221    6.4334    3.1647 H         1 RES1    0.0000
     39 H14        4.1183    7.9832    3.1526 H         1 RES1    0.0000
@<TRIPOS>BOND
     1    1    8 2
     2    2    3 1
     3    4    8 1
     4    5    7 2
     5    6    7 2
     6    7   14 1
     7    8   11 1
     8    9   10 ar
     9   10    4 1
    10   11   19 2
    11   12   20 1
    12   13    4 1
    13   14   24 ar
    14   15   10 ar
    15   16   15 1
    16   17    9 1
    17   18   17 1
    18   19   13 1
    19   20    2 1
    20   21   20 1
    21   22   12 ar
    22   23   22 1
    23   24   22 ar
    24   25   24 1
    25   26   12 ar
    26   27   26 1
    27   28    9 ar
    28   29   28 1
    29   30   28 ar
    30   31   30 1
    31   32   15 ar
    32   33   32 1
    33   34   14 ar
    34   35   34 1
    35   36   19 1
    36   37   36 1
    37   38   36 1
    38   39   36 1
    39   11   20 1
    40   13   17 2
    41   26   34 ar
    42   30   32 ar
@<TRIPOS>SUBSTRUCTURE
     1 RES1 1

@<TRIPOS>CRYSIN
  13.4560    7.5200   15.6780  90.0000 105.4240  90.0000 231 1

