# MOL2 file generated by ConQuest
# Please check atom types

@<TRIPOS>MOLECULE
DAYHIX
    44    46     1
SMALL
NO_CHARGES
****
Generated from CSD

@<TRIPOS>ATOM
      1 O1         2.7222    4.1331    5.9455 O.2       1 RES1    0.0000
      2 C1         3.1762    3.2818    5.1942 C.2       1 RES1    0.0000
      3 N1         4.1663    3.5158    4.2908 N.am      1 RES1    0.0000
      4 H1         4.3898    2.8307    3.8301 H         1 RES1    0.0000
      5 N2         2.3807   -0.1495    4.7170 N.3       1 RES1    0.0000
      6 N3         3.0789    0.9559    4.3887 N.2       1 RES1    0.0000
      7 C2         2.6528    1.9048    5.2306 C.2       1 RES1    0.0000
      8 C3         1.6682    1.4196    6.0926 C.2       1 RES1    0.0000
      9 H2         1.2146    1.8973    6.7769 H         1 RES1    0.0000
     10 C4         1.4964    0.1067    5.7390 C.2       1 RES1    0.0000
     11 C5         2.5774   -1.3791    3.8861 C.3       1 RES1    0.0000
     12 C6         2.5101   -2.6205    4.7890 C.3       1 RES1    0.0000
     13 H3         3.1263   -2.5103    5.5426 H         1 RES1    0.0000
     14 H4         2.7629   -3.4145    4.2736 H         1 RES1    0.0000
     15 H5         1.5972   -2.7294    5.1276 H         1 RES1    0.0000
     16 C7         1.4899   -1.4124    2.8233 C.3       1 RES1    0.0000
     17 H6         0.6110   -1.4285    3.2560 H         1 RES1    0.0000
     18 H7         1.5975   -2.2149    2.2714 H         1 RES1    0.0000
     19 H8         1.5609   -0.6144    2.2581 H         1 RES1    0.0000
     20 C8         3.9580   -1.3117    3.2507 C.3       1 RES1    0.0000
     21 H9         4.0124   -0.5242    2.6704 H         1 RES1    0.0000
     22 H10        4.1128   -2.1206    2.7193 H         1 RES1    0.0000
     23 H11        4.6386   -1.2482    3.9536 H         1 RES1    0.0000
     24 O2        -0.4048   -1.4044    5.6097 O.3       1 RES1    0.0000
     25 C9         0.5655   -0.8129    6.3823 C.2       1 RES1    0.0000
     26 C10        0.3621   -1.1072    7.6789 C.2       1 RES1    0.0000
     27 H12        0.8864   -0.8169    8.4156 H         1 RES1    0.0000
     28 C11       -0.7915   -1.9381    7.7331 C.2       1 RES1    0.0000
     29 H13       -1.1827   -2.3161    8.5116 H         1 RES1    0.0000
     30 C12       -1.2166   -2.0828    6.4765 C.2       1 RES1    0.0000
     31 H14       -1.9782   -2.5880    6.2188 H         1 RES1    0.0000
     32 C13        4.6910    4.7517    3.9003 C.ar      1 RES1    0.0000
     33 C14        5.6746    4.7474    2.9104 C.ar      1 RES1    0.0000
     34 H15        6.0086    3.9194    2.5869 H         1 RES1    0.0000
     35 C15        6.1664    5.9244    2.3967 C.ar      1 RES1    0.0000
     36 H16        6.8249    5.9165    1.7124 H         1 RES1    0.0000
     37 C16        5.6831    7.1206    2.8952 C.ar      1 RES1    0.0000
     38 C17        4.7420    7.1558    3.9030 C.ar      1 RES1    0.0000
     39 H17        4.4364    7.9899    4.2398 H         1 RES1    0.0000
     40 C18        4.2426    5.9719    4.4228 C.ar      1 RES1    0.0000
     41 H18        3.6035    5.9872    5.1249 H         1 RES1    0.0000
     42 N4         6.2012    8.3719    2.3576 N.pl3     1 RES1    0.0000
     43 O3         7.0899    8.3256    1.5072 O.2       1 RES1    0.0000
     44 O4         5.7295    9.4272    2.7833 O.2       1 RES1    0.0000
@<TRIPOS>BOND
     1    1    2 2
     2    2    3 1
     3    3    4 1
     4    5    6 1
     5    6    7 2
     6    7    2 1
     7    8    7 1
     8    9    8 1
     9   10    5 1
    10   11    5 1
    11   12   11 1
    12   13   12 1
    13   14   12 1
    14   15   12 1
    15   16   11 1
    16   17   16 1
    17   18   16 1
    18   19   16 1
    19   20   11 1
    20   21   20 1
    21   22   20 1
    22   23   20 1
    23   24   25 1
    24   25   10 1
    25   26   25 2
    26   27   26 1
    27   28   26 1
    28   29   28 1
    29   30   24 1
    30   31   30 1
    31   32    3 1
    32   33   32 ar
    33   34   33 1
    34   35   33 ar
    35   36   35 1
    36   37   35 ar
    37   38   37 ar
    38   39   38 1
    39   40   32 ar
    40   41   40 1
    41   42   37 1
    42   43   42 2
    43   44   42 2
    44    8   10 2
    45   28   30 2
    46   38   40 ar
@<TRIPOS>SUBSTRUCTURE
     1 RES1 1

@<TRIPOS>CRYSIN
  14.0570   13.8690    8.9331  90.0000  95.8500  90.0000  14 1

