# MOL2 file generated by ConQuest
# Please check atom types

@<TRIPOS>MOLECULE
DAYPUP01
    38    39     1
SMALL
NO_CHARGES
****
Generated from CSD

@<TRIPOS>ATOM
      1 O1         1.0790   10.0007    0.2080 O.2       1 RES1    0.0000
      2 O2         2.3955    8.7731    1.2778 O.2       1 RES1    0.0000
      3 N1         2.0798    9.8618    0.8396 N.pl3     1 RES1    0.0000
      4 N2         5.7903    9.3757    2.6012 N.2       1 RES1    0.0000
      5 C1         2.9347   11.0158    1.0999 C.ar      1 RES1    0.0000
      6 C2         2.3673   12.2644    0.9342 C.ar      1 RES1    0.0000
      7 H1         1.4901   12.3481    0.6389 H         1 RES1    0.0000
      8 C3         3.1219   13.3806    1.2120 C.ar      1 RES1    0.0000
      9 H2         2.7524   14.2271    1.1073 H         1 RES1    0.0000
     10 C4         4.4223   13.2489    1.6449 C.ar      1 RES1    0.0000
     11 H3         4.9267   14.0054    1.8408 H         1 RES1    0.0000
     12 C5         4.9753   11.9978    1.7872 C.ar      1 RES1    0.0000
     13 H4         5.8601   11.9234    2.0643 H         1 RES1    0.0000
     14 C6         4.2492   10.8430    1.5281 C.ar      1 RES1    0.0000
     15 C7         4.9338    9.5343    1.6966 C.2       1 RES1    0.0000
     16 H5         4.7259    8.8274    1.1281 H         1 RES1    0.0000
     17 C8         6.4401    8.0698    2.6878 C.3       1 RES1    0.0000
     18 H6         7.3982    8.1747    2.5764 H         1 RES1    0.0000
     19 H7         6.1149    7.4957    1.9764 H         1 RES1    0.0000
     20 O1B       11.5139    5.5023    6.5030 O.2       1 RES1    0.0000
     21 O2B       10.1975    6.7299    5.4333 O.2       1 RES1    0.0000
     22 N1B       10.5131    5.6412    5.8715 N.pl3     1 RES1    0.0000
     23 N2B        6.8026    6.1273    4.1099 N.2       1 RES1    0.0000
     24 C1B        9.6583    4.4872    5.6111 C.ar      1 RES1    0.0000
     25 C2B       10.2256    3.2386    5.7769 C.ar      1 RES1    0.0000
     26 H1B       11.1029    3.1549    6.0722 H         1 RES1    0.0000
     27 C3B        9.4710    2.1224    5.4991 C.ar      1 RES1    0.0000
     28 H2B        9.8406    1.2759    5.6037 H         1 RES1    0.0000
     29 C4B        8.1707    2.2541    5.0662 C.ar      1 RES1    0.0000
     30 H3B        7.6663    1.4976    4.8702 H         1 RES1    0.0000
     31 C5B        7.6177    3.5052    4.9239 C.ar      1 RES1    0.0000
     32 H4B        6.7328    3.5796    4.6467 H         1 RES1    0.0000
     33 C6B        8.3437    4.6600    5.1830 C.ar      1 RES1    0.0000
     34 C7B        7.6592    5.9687    5.0145 C.2       1 RES1    0.0000
     35 H5B        7.8670    6.6756    5.5829 H         1 RES1    0.0000
     36 C8B        6.1528    7.4332    4.0233 C.3       1 RES1    0.0000
     37 H6B        5.1948    7.3283    4.1347 H         1 RES1    0.0000
     38 H7B        6.4781    8.0073    4.7347 H         1 RES1    0.0000
@<TRIPOS>BOND
     1    1    3 2
     2    2    3 2
     3    3    5 1
     4    4   15 2
     5    5    6 ar
     6    6    7 1
     7    8    6 ar
     8    9    8 1
     9   10    8 ar
    10   11   10 1
    11   12   10 ar
    12   13   12 1
    13   14    5 ar
    14   15   14 1
    15   16   15 1
    16   17    4 1
    17   18   17 1
    18   19   17 1
    19   20   22 2
    20   21   22 2
    21   22   24 1
    22   23   34 2
    23   24   25 ar
    24   25   26 1
    25   27   25 ar
    26   28   27 1
    27   29   27 ar
    28   30   29 1
    29   31   29 ar
    30   32   31 1
    31   33   24 ar
    32   34   33 1
    33   35   34 1
    34   36   17 1
    35   37   36 1
    36   38   36 1
    37   12   14 ar
    38   23   36 1
    39   31   33 ar
@<TRIPOS>SUBSTRUCTURE
     1 RES1 1

@<TRIPOS>CRYSIN
   7.4290   15.5030    7.0830  90.0000 108.6500  90.0000  14 1

