# MOL2 file generated by ConQuest
# Please check atom types

@<TRIPOS>MOLECULE
DAYSIG
    45    47     1
SMALL
NO_CHARGES
****
Generated from CSD

@<TRIPOS>ATOM
      1 O1         7.3535    1.1154    8.4908 O.3       1 RES1    0.0000
      2 O2         4.7612   -0.7250   -0.0999 O.2       1 RES1    0.0000
      3 O3         3.1618   -1.8268   -1.0134 O.2       1 RES1    0.0000
      4 O4        -0.1342   -4.1242    1.4999 O.2       1 RES1    0.0000
      5 O5        -0.1699   -3.9779    3.6437 O.2       1 RES1    0.0000
      6 N1         5.5613   -0.2199    3.7293 N.2       1 RES1    0.0000
      7 N2         4.9888   -0.5755    2.5158 N.pl3     1 RES1    0.0000
      8 H1         5.3414   -0.3057    1.7795 H         1 RES1    0.0000
      9 N3         3.7468   -1.4280   -0.0169 N.pl3     1 RES1    0.0000
     10 N4         0.3342   -3.7378    2.5558 N.pl3     1 RES1    0.0000
     11 C1         4.7562    0.9917   10.8540 C.ar      1 RES1    0.0000
     12 H2         4.1243    1.4096   10.3149 H         1 RES1    0.0000
     13 C2         4.5369    0.8947   12.2195 C.ar      1 RES1    0.0000
     14 H3         3.7610    1.2514   12.5881 H         1 RES1    0.0000
     15 C3         5.4550    0.2783   13.0340 C.ar      1 RES1    0.0000
     16 H4         5.2977    0.2064   13.9477 H         1 RES1    0.0000
     17 C4         6.6150   -0.2344   12.4836 C.ar      1 RES1    0.0000
     18 H5         7.2479   -0.6465   13.0261 H         1 RES1    0.0000
     19 C5         6.8300   -0.1317   11.1215 C.ar      1 RES1    0.0000
     20 H6         7.6143   -0.4760   10.7588 H         1 RES1    0.0000
     21 C6         5.9079    0.4703   10.2863 C.ar      1 RES1    0.0000
     22 C7         6.1037    0.4902    8.7960 C.3       1 RES1    0.0000
     23 H7         6.0964   -0.4164    8.4518 H         1 RES1    0.0000
     24 H8         5.3794    0.9812    8.3762 H         1 RES1    0.0000
     25 C8         7.6895    1.2401    7.1621 C.ar      1 RES1    0.0000
     26 C9         8.8810    1.9272    6.9223 C.ar      1 RES1    0.0000
     27 H9         9.3759    2.2614    7.6357 H         1 RES1    0.0000
     28 C10        9.3227    2.1107    5.6336 C.ar      1 RES1    0.0000
     29 H10       10.1267    2.5514    5.4779 H         1 RES1    0.0000
     30 C11        8.5709    1.6404    4.5623 C.ar      1 RES1    0.0000
     31 H11        8.8692    1.7729    3.6924 H         1 RES1    0.0000
     32 C12        7.3736    0.9722    4.7914 C.ar      1 RES1    0.0000
     33 C13        6.9332    0.7613    6.1044 C.ar      1 RES1    0.0000
     34 H12        6.1403    0.3033    6.2642 H         1 RES1    0.0000
     35 C14        6.6149    0.5076    3.6264 C.2       1 RES1    0.0000
     36 H13        6.9087    0.7494    2.7768 H         1 RES1    0.0000
     37 C15        3.8757   -1.3475    2.4898 C.ar      1 RES1    0.0000
     38 C16        3.2362   -1.7797    1.2966 C.ar      1 RES1    0.0000
     39 C17        2.0840   -2.5608    1.3153 C.ar      1 RES1    0.0000
     40 H14        1.6802   -2.8274    0.5215 H         1 RES1    0.0000
     41 C18        1.5547   -2.9294    2.5260 C.ar      1 RES1    0.0000
     42 C19        2.1506   -2.5369    3.7251 C.ar      1 RES1    0.0000
     43 H15        1.7823   -2.8003    4.5364 H         1 RES1    0.0000
     44 C20        3.2765   -1.7645    3.7022 C.ar      1 RES1    0.0000
     45 H16        3.6610   -1.5040    4.5086 H         1 RES1    0.0000
@<TRIPOS>BOND
     1    1   22 1
     2    2    9 2
     3    3    9 2
     4    4   10 2
     5    5   10 2
     6    6    7 1
     7    7    8 1
     8    9   38 1
     9   10   41 1
    10   11   12 1
    11   13   11 ar
    12   14   13 1
    13   15   13 ar
    14   16   15 1
    15   17   15 ar
    16   18   17 1
    17   19   17 ar
    18   20   19 1
    19   21   11 ar
    20   22   21 1
    21   23   22 1
    22   24   22 1
    23   25    1 1
    24   26   25 ar
    25   27   26 1
    26   28   26 ar
    27   29   28 1
    28   30   28 ar
    29   31   30 1
    30   32   30 ar
    31   33   25 ar
    32   34   33 1
    33   35    6 2
    34   36   35 1
    35   37    7 1
    36   38   37 ar
    37   39   38 ar
    38   40   39 1
    39   41   39 ar
    40   42   41 ar
    41   43   42 1
    42   44   37 ar
    43   45   44 1
    44   19   21 ar
    45   32   33 ar
    46   32   35 1
    47   42   44 ar
@<TRIPOS>SUBSTRUCTURE
     1 RES1 1

@<TRIPOS>CRYSIN
   5.9288    7.6510   20.0870  96.7110  93.7680  90.1150   2 1

