# MOL2 file generated by ConQuest
# Please check atom types

@<TRIPOS>MOLECULE
DAYTON
    43    44     1
SMALL
NO_CHARGES
****
Generated from CSD

@<TRIPOS>ATOM
      1 O1        -1.8917   10.5553   10.7202 O.3       1 RES1    0.0000
      2 O2        -0.4047   12.5133   11.4314 O.3       1 RES1    0.0000
      3 O3         6.1594   15.6618   18.5161 O.2       1 RES1    0.0000
      4 O4         6.6519   14.3241   20.1180 O.2       1 RES1    0.0000
      5 N1         1.9710   10.9920   15.7484 N.2       1 RES1    0.0000
      6 N2         2.7383   10.7333   16.8369 N.pl3     1 RES1    0.0000
      7 H1         2.7115    9.9512   17.1940 H         1 RES1    0.0000
      8 N3         6.0475   14.5687   19.0886 N.pl3     1 RES1    0.0000
      9 C1         0.3881   10.1680   14.1687 C.ar      1 RES1    0.0000
     10 C2         0.3928   11.3329   13.3918 C.ar      1 RES1    0.0000
     11 H2         0.9261   12.0521   13.6452 H         1 RES1    0.0000
     12 C3        -0.3708   11.4301   12.2707 C.ar      1 RES1    0.0000
     13 C4        -1.1941   10.3669   11.8734 C.ar      1 RES1    0.0000
     14 C5        -1.2078    9.2140   12.6253 C.ar      1 RES1    0.0000
     15 H3        -1.7458    8.4978   12.3722 H         1 RES1    0.0000
     16 C6        -0.4212    9.1228   13.7557 C.ar      1 RES1    0.0000
     17 H4        -0.4350    8.3378   14.2537 H         1 RES1    0.0000
     18 C7         0.6383   13.4727   11.5317 C.3       1 RES1    0.0000
     19 H5         1.4914   13.0300   11.6639 H         1 RES1    0.0000
     20 H6         0.4793   14.0663   12.2821 H         1 RES1    0.0000
     21 C8         0.6470   14.2472   10.2470 C.3       1 RES1    0.0000
     22 H7        -0.2356   14.6210   10.0963 H         1 RES1    0.0000
     23 H8         1.2728   14.9844   10.3251 H         1 RES1    0.0000
     24 C9         1.0298   13.4024    9.0714 C.3       1 RES1    0.0000
     25 H9         1.8740   12.9777    9.2420 H         1 RES1    0.0000
     26 H10        1.1021   13.9541    8.2903 H         1 RES1    0.0000
     27 H11        0.3583   12.7310    8.9280 H         1 RES1    0.0000
     28 C10       -2.7087    9.4952   10.2407 C.3       1 RES1    0.0000
     29 H12       -2.1615    8.7281   10.0550 H         1 RES1    0.0000
     30 H13       -3.1541    9.7718    9.4367 H         1 RES1    0.0000
     31 H14       -3.3616    9.2679   10.9069 H         1 RES1    0.0000
     32 C11        1.2297   10.0409   15.3307 C.2       1 RES1    0.0000
     33 H15        1.2331    9.2350   15.7944 H         1 RES1    0.0000
     34 C12        3.5461   11.6798   17.3709 C.ar      1 RES1    0.0000
     35 C13        4.2893   11.3927   18.5098 C.ar      1 RES1    0.0000
     36 H16        4.2306   10.5464   18.8905 H         1 RES1    0.0000
     37 C14        5.0997   12.3228   19.0777 C.ar      1 RES1    0.0000
     38 H17        5.5880   12.1179   19.8422 H         1 RES1    0.0000
     39 C15        5.1907   13.5863   18.5013 C.ar      1 RES1    0.0000
     40 C16        4.4744   13.8749   17.3563 C.ar      1 RES1    0.0000
     41 H18        4.5556   14.7138   16.9627 H         1 RES1    0.0000
     42 C17        3.6525   12.9478   16.7984 C.ar      1 RES1    0.0000
     43 H19        3.1622   13.1586   16.0378 H         1 RES1    0.0000
@<TRIPOS>BOND
     1    1   13 1
     2    2   12 1
     3    3    8 2
     4    4    8 2
     5    5    6 1
     6    6    7 1
     7    8   39 1
     8    9   10 ar
     9   10   11 1
    10   12   10 ar
    11   13   12 ar
    12   14   13 ar
    13   15   14 1
    14   16    9 ar
    15   17   16 1
    16   18    2 1
    17   19   18 1
    18   20   18 1
    19   21   18 1
    20   22   21 1
    21   23   21 1
    22   24   21 1
    23   25   24 1
    24   26   24 1
    25   27   24 1
    26   28    1 1
    27   29   28 1
    28   30   28 1
    29   31   28 1
    30   32    5 2
    31   33   32 1
    32   34    6 1
    33   35   34 ar
    34   36   35 1
    35   37   35 ar
    36   38   37 1
    37   39   37 ar
    38   40   39 ar
    39   41   40 1
    40   42   34 ar
    41   43   42 1
    42    9   32 1
    43   14   16 ar
    44   40   42 ar
@<TRIPOS>SUBSTRUCTURE
     1 RES1 1

@<TRIPOS>CRYSIN
   4.5854   14.9530   24.3630  90.0000  92.4750  90.0000 231 1

