# MOL2 file generated by ConQuest
# Please check atom types

@<TRIPOS>MOLECULE
DAYVAC
    37    39     1
SMALL
NO_CHARGES
****
Generated from CSD

@<TRIPOS>ATOM
      1 O1         2.8423    7.1194   20.9667 O.2       1 RES1    0.0000
      2 O2         1.4167    6.5083   13.9159 O.2       1 RES1    0.0000
      3 O3         0.9489    4.7082   15.0208 O.2       1 RES1    0.0000
      4 N1         2.8613    4.9172   21.7140 N.am      1 RES1    0.0000
      5 N2         3.0454    5.3078   19.5290 N.am      1 RES1    0.0000
      6 N3         1.4689    5.8185   14.9328 N.pl3     1 RES1    0.0000
      7 C1         2.3720    6.2743   23.6992 C.ar      1 RES1    0.0000
      8 C2         2.3636    6.4025   25.0792 C.ar      1 RES1    0.0000
      9 C3         2.8121    5.3806   25.8988 C.ar      1 RES1    0.0000
     10 C4         3.2583    4.2045   25.3169 C.ar      1 RES1    0.0000
     11 C5         3.2803    4.0540   23.9390 C.ar      1 RES1    0.0000
     12 C6         2.8439    5.0987   23.1161 C.ar      1 RES1    0.0000
     13 C7         2.9076    5.9132   20.7774 C.2       1 RES1    0.0000
     14 C8         3.1371    3.6201   21.1049 C.3       1 RES1    0.0000
     15 C9         2.8401    3.8567   19.6195 C.3       1 RES1    0.0000
     16 C10        3.7288    3.0381   18.7151 C.3       1 RES1    0.0000
     17 C11        2.9651    6.0469   18.3371 C.ar      1 RES1    0.0000
     18 C12        3.6530    7.2595   18.2184 C.ar      1 RES1    0.0000
     19 C13        3.5697    8.0134   17.0605 C.ar      1 RES1    0.0000
     20 C14        2.8326    7.5577   15.9742 C.ar      1 RES1    0.0000
     21 C15        2.2000    6.3391   16.0941 C.ar      1 RES1    0.0000
     22 C16        2.2273    5.5740   17.2517 C.ar      1 RES1    0.0000
     23 H1         2.0613    6.9840   23.1483 H         1 RES1    0.0000
     24 H2         2.0379    7.2052   25.4690 H         1 RES1    0.0000
     25 H3         2.8219    5.4874   26.8416 H         1 RES1    0.0000
     26 H4         3.5462    3.4885   25.8687 H         1 RES1    0.0000
     27 H5         3.5962    3.2473   23.5511 H         1 RES1    0.0000
     28 H6         4.0462    3.3732   21.2273 H         1 RES1    0.0000
     29 H7         2.5742    2.9473   21.4690 H         1 RES1    0.0000
     30 H8         1.9310    3.6497   19.4426 H         1 RES1    0.0000
     31 H9         3.5416    2.1131   18.8198 H         1 RES1    0.0000
     32 H10        4.6363    3.2049   18.9406 H         1 RES1    0.0000
     33 H11        3.5757    3.2908   17.8128 H         1 RES1    0.0000
     34 H12        4.1825    7.5664   18.9437 H         1 RES1    0.0000
     35 H13        4.0265    8.8441   17.0041 H         1 RES1    0.0000
     36 H14        2.7591    8.0688   15.1761 H         1 RES1    0.0000
     37 H15        1.7470    4.7568   17.3078 H         1 RES1    0.0000
@<TRIPOS>BOND
     1    1   13 2
     2    2    6 2
     3    3    6 2
     4    4   12 1
     5    5   13 1
     6    6   21 1
     7    7    8 ar
     8    8    9 ar
     9    9   10 ar
    10   10   11 ar
    11   11   12 ar
    12   12    7 ar
    13   13    4 1
    14   14    4 1
    15   15    5 1
    16   16   15 1
    17   17    5 1
    18   18   17 ar
    19   19   18 ar
    20   20   19 ar
    21   21   20 ar
    22   22   17 ar
    23   23    7 1
    24   24    8 1
    25   25    9 1
    26   26   10 1
    27   27   11 1
    28   28   14 1
    29   29   14 1
    30   30   15 1
    31   31   16 1
    32   32   16 1
    33   33   16 1
    34   34   18 1
    35   35   19 1
    36   36   20 1
    37   37   22 1
    38   14   15 1
    39   21   22 ar
@<TRIPOS>SUBSTRUCTURE
     1 RES1 1

@<TRIPOS>CRYSIN
   7.5757   11.7655   30.9842  90.0000  90.0000  90.0000  61 1

