# MOL2 file generated by ConQuest
# Please check atom types

@<TRIPOS>MOLECULE
DAYWIK
    52    53     2
SMALL
NO_CHARGES
****
Generated from CSD

@<TRIPOS>ATOM
      1 O1         5.4177    2.1273    2.3123 O.2       1 RES1    0.0000
      2 O2         7.1906    2.9548    1.8353 O.2       1 RES1    0.0000
      3 O3         7.5773    2.2714    2.1772 Du        2 SUP2    0.0000
      4 O4         6.0371    0.9750    4.7954 O.3       1 RES1    0.0000
      5 O5         4.5205   -1.1865    4.2243 O.3       1 RES1    0.0000
      6 O6         2.6898    3.6921    1.6002 O.2       1 RES1    0.0000
      7 O7         1.6519    5.2303    0.5576 O.2       1 RES1    0.0000
      8 O8        -0.4308    4.5130   -3.5843 O.2       1 RES1    0.0000
      9 O9        -0.9615    2.5274   -4.2192 O.2       1 RES1    0.0000
     10 N1         6.4955    2.6019    2.6928 N.pl3     1 RES1    0.0000
     11 N2         2.5695   -0.1589    0.9892 N.2       1 RES1    0.0000
     12 N3         2.4447    1.1972    0.8631 N.pl3     1 RES1    0.0000
     13 H1         2.8491    1.7184    1.4151 H         1 RES1    0.0000
     14 N4         1.9603    4.0665    0.6882 N.pl3     1 RES1    0.0000
     15 N5        -0.4392    3.3050   -3.4332 N.pl3     1 RES1    0.0000
     16 C1         6.5992    3.1115    4.0477 C.ar      1 RES1    0.0000
     17 C2         7.0077    4.4117    4.2248 C.ar      1 RES1    0.0000
     18 H2         7.2393    4.9350    3.4912 H         1 RES1    0.0000
     19 C3         7.0710    4.9248    5.4787 C.ar      1 RES1    0.0000
     20 H3         7.3317    5.8069    5.6172 H         1 RES1    0.0000
     21 C4         6.7400    4.1100    6.5485 C.ar      1 RES1    0.0000
     22 H4         6.7717    4.4642    7.4082 H         1 RES1    0.0000
     23 C5         6.3651    2.7940    6.3827 C.ar      1 RES1    0.0000
     24 H5         6.1518    2.2688    7.1198 H         1 RES1    0.0000
     25 C6         6.3088    2.2609    5.0982 C.ar      1 RES1    0.0000
     26 C7         5.6314    0.0856    5.8353 C.3       1 RES1    0.0000
     27 H6         4.7779    0.3642    6.2032 H         1 RES1    0.0000
     28 H7         6.2881    0.0809    6.5496 H         1 RES1    0.0000
     29 C8         5.5156   -1.2700    5.2277 C.3       1 RES1    0.0000
     30 H8         6.3636   -1.5401    4.8404 H         1 RES1    0.0000
     31 H9         5.2624   -1.9203    5.9011 H         1 RES1    0.0000
     32 C9         4.2633   -2.2495    3.4117 C.ar      1 RES1    0.0000
     33 C10        4.5811   -3.5559    3.7160 C.ar      1 RES1    0.0000
     34 H10        5.0613   -3.7646    4.4838 H         1 RES1    0.0000
     35 C11        4.1665   -4.5457    2.8495 C.ar      1 RES1    0.0000
     36 H11        4.3735   -5.4310    3.0448 H         1 RES1    0.0000
     37 C12        3.4574   -4.2661    1.7024 C.ar      1 RES1    0.0000
     38 H12        3.1690   -4.9534    1.1471 H         1 RES1    0.0000
     39 C13        3.1788   -2.9506    1.3901 C.ar      1 RES1    0.0000
     40 H13        2.7169   -2.7504    0.6087 H         1 RES1    0.0000
     41 C14        3.5836   -1.9227    2.2328 C.ar      1 RES1    0.0000
     42 C15        3.3381   -0.5304    1.9375 C.2       1 RES1    0.0000
     43 H14        3.7549    0.1191    2.4565 H         1 RES1    0.0000
     44 C16        1.6894    1.7183   -0.1227 C.ar      1 RES1    0.0000
     45 C17        1.4559    3.1046   -0.2692 C.ar      1 RES1    0.0000
     46 C18        0.7427    3.6139   -1.3311 C.ar      1 RES1    0.0000
     47 H15        0.6118    4.5317   -1.4106 H         1 RES1    0.0000
     48 C19        0.2296    2.7616   -2.2635 C.ar      1 RES1    0.0000
     49 C20        0.3829    1.3859   -2.1317 C.ar      1 RES1    0.0000
     50 H16       -0.0007    0.8106   -2.7552 H         1 RES1    0.0000
     51 C21        1.0960    0.8823   -1.0880 C.ar      1 RES1    0.0000
     52 H17        1.1948   -0.0396   -1.0096 H         1 RES1    0.0000
@<TRIPOS>BOND
     1    1   10 2
     2    2   10 2
     3    4   25 1
     4    5   29 1
     5    6   14 2
     6    7   14 2
     7    8   15 2
     8    9   15 2
     9   10   16 1
    10   11   12 1
    11   12   13 1
    12   14   45 1
    13   15   48 1
    14   16   17 ar
    15   17   18 1
    16   19   17 ar
    17   20   19 1
    18   21   19 ar
    19   22   21 1
    20   23   21 ar
    21   24   23 1
    22   25   16 ar
    23   26    4 1
    24   27   26 1
    25   28   26 1
    26   29   26 1
    27   30   29 1
    28   31   29 1
    29   32    5 1
    30   33   32 ar
    31   34   33 1
    32   35   33 ar
    33   36   35 1
    34   37   35 ar
    35   38   37 1
    36   39   37 ar
    37   40   39 1
    38   41   32 ar
    39   42   11 2
    40   43   42 1
    41   44   12 1
    42   45   44 ar
    43   46   45 ar
    44   47   46 1
    45   48   46 ar
    46   49   48 ar
    47   50   49 1
    48   51   44 ar
    49   52   51 1
    50   23   25 ar
    51   39   41 ar
    52   41   42 1
    53   49   51 ar
@<TRIPOS>SUBSTRUCTURE
     1 RES1 1
     2 SUP2 3

@<TRIPOS>CRYSIN
   7.9530   11.6860   12.5240  65.1070  87.4630  86.9800   2 1

