# MOL2 file generated by ConQuest
# Please check atom types

@<TRIPOS>MOLECULE
DAYYUY
    28    30     1
SMALL
NO_CHARGES
****
Generated from CSD

@<TRIPOS>ATOM
      1 O1         4.9242    4.0605    2.9727 O.3       1 RES1    0.0000
      2 O2         0.9309    5.7174    6.2939 O.3       1 RES1    0.0000
      3 O3         6.0615    0.7240    6.7671 O.2       1 RES1    0.0000
      4 O4         7.2387    0.5395    4.9563 O.2       1 RES1    0.0000
      5 N1         6.3332    1.0566    5.6145 N.pl3     1 RES1    0.0000
      6 C1         3.7232    3.7571    5.0830 C.ar      1 RES1    0.0000
      7 C2         3.9140    4.4041    3.8506 C.ar      1 RES1    0.0000
      8 C3         4.7549    4.9067    1.7819 C.3       1 RES1    0.0000
      9 C4         3.6446    5.8942    2.0577 C.3       1 RES1    0.0000
     10 C5         3.1246    5.4469    3.3956 C.ar      1 RES1    0.0000
     11 C6         2.0923    5.9283    4.1730 C.ar      1 RES1    0.0000
     12 C7         1.9056    5.3208    5.4049 C.ar      1 RES1    0.0000
     13 C8         1.1924    4.9941    7.5227 C.3       1 RES1    0.0000
     14 C9         2.1229    3.8279    7.1829 C.3       1 RES1    0.0000
     15 C10        2.6685    4.2642    5.8476 C.ar      1 RES1    0.0000
     16 C11        4.5503    2.6765    5.5852 C.2       1 RES1    0.0000
     17 C12        5.5793    2.1059    4.9682 C.2       1 RES1    0.0000
     18 H1         4.5148    4.3526    1.0225 H         1 RES1    0.0000
     19 H2         5.5810    5.3770    1.5906 H         1 RES1    0.0000
     20 H3         2.9527    5.8510    1.3800 H         1 RES1    0.0000
     21 H4         3.9900    6.7990    2.1087 H         1 RES1    0.0000
     22 H5         1.5501    6.6278    3.8872 H         1 RES1    0.0000
     23 H6         0.3579    4.6499    7.8791 H         1 RES1    0.0000
     24 H7         1.6085    5.5749    8.1786 H         1 RES1    0.0000
     25 H8         1.6437    2.9876    7.1071 H         1 RES1    0.0000
     26 H9         2.8374    3.7350    7.8324 H         1 RES1    0.0000
     27 H10        4.3529    2.3479    6.4319 H         1 RES1    0.0000
     28 H11        5.8033    2.3912    4.1115 H         1 RES1    0.0000
@<TRIPOS>BOND
     1    1    7 1
     2    2   12 1
     3    3    5 2
     4    4    5 2
     5    5   17 1
     6    6    7 ar
     7    7   10 ar
     8    8    1 1
     9    9    8 1
    10   10    9 1
    11   11   10 ar
    12   12   11 ar
    13   13    2 1
    14   14   13 1
    15   15    6 ar
    16   16    6 1
    17   17   16 2
    18   18    8 1
    19   19    8 1
    20   20    9 1
    21   21    9 1
    22   22   11 1
    23   23   13 1
    24   24   13 1
    25   25   14 1
    26   26   14 1
    27   27   16 1
    28   28   17 1
    29   12   15 ar
    30   14   15 1
@<TRIPOS>SUBSTRUCTURE
     1 RES1 1

@<TRIPOS>CRYSIN
  10.2200    9.2040   11.3860  90.0000  90.0800  90.0000 231 1

