# MOL2 file generated by ConQuest
# Please check atom types

@<TRIPOS>MOLECULE
DAYYIO
    58    52     2
SMALL
NO_CHARGES
****
Generated from CSD

@<TRIPOS>ATOM
      1 O1         4.1639   10.8947    8.4093 O.2       1 RES1    0.0000
      2 O2         5.3865    6.6284   12.9974 O.2       1 RES1    0.0000
      3 C1         5.3892    9.3712    6.3677 C.3       1 RES1    0.0000
      4 H1         4.5378    9.1336    6.7916 H         1 RES1    0.0000
      5 N1         6.3464    7.2768   12.6387 N.pl3     1 RES1    0.0000
      6 C2         6.5555    9.1930    7.2661 C.3       1 RES1    0.0000
      7 H2         7.3882    8.9674    6.8011 H         1 RES1    0.0000
      8 O3         7.2732    7.5289   13.3695 O.2       1 RES1    0.0000
      9 N2         5.8470   12.3614    8.6259 N.am      1 RES1    0.0000
     10 N3         7.5473   12.0656    5.4630 N.1       1 RES1    0.0000
     11 C3         6.8779   11.4301    6.1240 C.1       1 RES1    0.0000
     12 C4         5.4072    9.1038    4.8996 C.ar      1 RES1    0.0000
     13 C5         6.0293   10.6231    6.9665 C.3       1 RES1    0.0000
     14 C6         7.5221    8.9186    9.5258 C.ar      1 RES1    0.0000
     15 H3         8.2615    9.3949    9.2247 H         1 RES1    0.0000
     16 C7         6.4021    7.7627   11.2510 C.ar      1 RES1    0.0000
     17 C8         6.4760    8.6687    8.6609 C.ar      1 RES1    0.0000
     18 C9         5.3147    8.5824    2.1644 C.ar      1 RES1    0.0000
     19 H4         5.2768    8.3974    1.2544 H         1 RES1    0.0000
     20 C10        5.3586    7.4874   10.4174 C.ar      1 RES1    0.0000
     21 H5         4.6277    7.0013   10.7248 H         1 RES1    0.0000
     22 C11        5.3987    7.9355    9.1154 C.ar      1 RES1    0.0000
     23 H6         4.6951    7.7429    8.5388 H         1 RES1    0.0000
     24 C12        6.3813    8.1979    2.8993 C.ar      1 RES1    0.0000
     25 H7         7.0884    7.7587    2.4858 H         1 RES1    0.0000
     26 C13        6.4359    8.4501    4.2610 C.ar      1 RES1    0.0000
     27 H8         7.1779    8.1730    4.7501 H         1 RES1    0.0000
     28 C14        5.2416   13.0521    9.7617 C.3       1 RES1    0.0000
     29 H9         4.2940   13.1661    9.5880 H         1 RES1    0.0000
     30 H10        5.6362   13.9340    9.8364 H         1 RES1    0.0000
     31 C15        5.2514   11.3145    8.0592 C.2       1 RES1    0.0000
     32 C16        4.3257    9.5060    4.1360 C.ar      1 RES1    0.0000
     33 H11        3.6178    9.9517    4.5408 H         1 RES1    0.0000
     34 C17        4.2852    9.2521    2.7855 C.ar      1 RES1    0.0000
     35 H12        3.5543    9.5374    2.2859 H         1 RES1    0.0000
     36 C18        7.4865    8.4702   10.8296 C.ar      1 RES1    0.0000
     37 H13        8.1901    8.6481   11.4108 H         1 RES1    0.0000
     38 C19        5.4108   12.3327   11.0724 C.ar      1 RES1    0.0000
     39 C20        5.6660   11.0657   13.5360 C.ar      1 RES1    0.0000
     40 H14        5.6404   10.8464   14.4393 H         1 RES1    0.0000
     41 C21        4.5404   11.3979   11.5363 C.ar      1 RES1    0.0000
     42 H15        3.8021   11.2132   11.0016 H         1 RES1    0.0000
     43 C22        6.7276   11.7516   12.9946 C.ar      1 RES1    0.0000
     44 H16        7.5398   11.7436   13.4483 H         1 RES1    0.0000
     45 C23        6.6369   12.4746   11.7645 C.ar      1 RES1    0.0000
     46 H17        7.3327   13.0025   11.4432 H         1 RES1    0.0000
     47 C24        4.6393   10.7144   12.6813 C.ar      1 RES1    0.0000
     48 H18        4.0424   10.0336   12.8933 H         1 RES1    0.0000
     49 H19        6.6109   12.6541    8.3714 H         1 RES1    0.0000
     50 H20        5.7343   10.5825   14.3286 Du        2 SUP2    0.0000
     51 C25        4.3901   12.4667   12.0170 Du        2 SUP2    0.0000
     52 H21        3.6352   12.9787   11.8307 Du        2 SUP2    0.0000
     53 C26        4.5276   11.8202   13.2444 Du        2 SUP2    0.0000
     54 H22        3.8505   11.8914   13.8776 Du        2 SUP2    0.0000
     55 C27        6.4377   11.6513   11.4729 Du        2 SUP2    0.0000
     56 H23        7.1137   11.5668   10.8396 Du        2 SUP2    0.0000
     57 C28        6.6882   11.0654   12.6044 Du        2 SUP2    0.0000
     58 H24        7.5098   10.6643   12.7799 Du        2 SUP2    0.0000
@<TRIPOS>BOND
     1    1   31 2
     2    2    5 2
     3    3    4 1
     4    5    8 2
     5    6    3 1
     6    7    6 1
     7    9   28 1
     8   10   11 3
     9   11   13 1
    10   12    3 1
    11   13    3 1
    12   14   15 1
    13   16    5 1
    14   17    6 1
    15   18   19 1
    16   20   16 ar
    17   21   20 1
    18   22   17 ar
    19   23   22 1
    20   24   18 ar
    21   25   24 1
    22   26   12 ar
    23   27   26 1
    24   28   29 1
    25   30   28 1
    26   31    9 1
    27   32   12 ar
    28   33   32 1
    29   34   18 ar
    30   35   34 1
    31   36   14 ar
    32   37   36 1
    33   38   28 1
    34   39   40 1
    35   41   38 ar
    36   42   41 1
    37   43   39 ar
    38   44   43 1
    39   45   38 ar
    40   46   45 1
    41   47   39 ar
    42   48   47 1
    43   49    9 1
    44    6   13 1
    45   13   31 1
    46   14   17 ar
    47   16   36 ar
    48   20   22 ar
    49   24   26 ar
    50   32   34 ar
    51   41   47 ar
    52   43   45 ar
@<TRIPOS>SUBSTRUCTURE
     1 RES1 1
     2 SUP2 50

@<TRIPOS>CRYSIN
   5.7444   26.3902   13.5940  90.0000  96.6600  90.0000 231 1

