# MOL2 file generated by ConQuest
# Please check atom types

@<TRIPOS>MOLECULE
DAZGUJ
    81    49     2
SMALL
NO_CHARGES
****
Generated from CSD

@<TRIPOS>ATOM
      1 O1        10.2614    2.2938   13.6356 O.2       1 RES1    0.0000
      2 N1        15.1903   -1.6752   19.7166 N.3       1 RES1    0.0000
      3 N2        14.4089    8.7250   10.1013 N.pl3     1 RES1    0.0000
      4 O2        13.7486    9.7077    9.7137 O.2       1 RES1    0.0000
      5 O3        15.5847    8.5524    9.8066 O.2       1 RES1    0.0000
      6 C1        13.7508    7.7133   10.9221 C.ar      1 RES1    0.0000
      7 C2        12.4088    7.8666   11.2179 C.ar      1 RES1    0.0000
      8 H1        11.9350    8.6405   10.9367 H         1 RES1    0.0000
      9 C3        11.7721    6.8694   11.9347 C.ar      1 RES1    0.0000
     10 H2        10.8503    6.9648   12.1457 H         1 RES1    0.0000
     11 C4        12.4506    5.7273   12.3542 C.ar      1 RES1    0.0000
     12 C5        13.8269    5.6247   12.0707 C.ar      1 RES1    0.0000
     13 H3        14.3156    4.8714   12.3807 H         1 RES1    0.0000
     14 C6        14.4721    6.6099   11.3430 C.ar      1 RES1    0.0000
     15 H4        15.3961    6.5290   11.1354 H         1 RES1    0.0000
     16 C7        11.7185    4.6082   13.0073 C.2       1 RES1    0.0000
     17 H5        10.7699    4.6625   13.0244 H         1 RES1    0.0000
     18 C8        12.2716    3.5446   13.5656 C.2       1 RES1    0.0000
     19 H6        13.2138    3.4866   13.6793 H         1 RES1    0.0000
     20 C9        11.9886    1.3884   14.9098 C.2       1 RES1    0.0000
     21 H7        11.5374    0.5553   14.9778 H         1 RES1    0.0000
     22 C10       13.1066    1.5743   15.6069 C.2       1 RES1    0.0000
     23 H8        13.6050    2.3675   15.4479 H         1 RES1    0.0000
     24 C11       11.4031    2.4770   13.9983 C.2       1 RES1    0.0000
     25 C12       13.6061    0.6425   16.5883 C.ar      1 RES1    0.0000
     26 C13       14.5868    1.1266   17.4548 C.ar      1 RES1    0.0000
     27 H9        14.9073    2.0113   17.3286 H         1 RES1    0.0000
     28 C14       15.1024    0.3932   18.4673 C.ar      1 RES1    0.0000
     29 H10       15.7530    0.7775   19.0413 H         1 RES1    0.0000
     30 C15       14.6847   -0.9278   18.6769 C.ar      1 RES1    0.0000
     31 C16       13.7215   -1.4648   17.7914 C.ar      1 RES1    0.0000
     32 H11       13.4399   -2.3663   17.8967 H         1 RES1    0.0000
     33 C17       13.1855   -0.7025   16.7792 C.ar      1 RES1    0.0000
     34 H12       12.5289   -1.0769   16.2035 H         1 RES1    0.0000
     35 C18       16.0756   -1.0805   20.7159 C.3       1 RES1    0.0000
     36 H13       16.0027   -1.6045   21.5516 H         1 RES1    0.0000
     37 H14       15.7573   -0.1630   20.9107 H         1 RES1    0.0000
     38 C19       14.8130   -3.0822   19.9007 C.3       1 RES1    0.0000
     39 H15       13.8365   -3.1655   19.7605 H         1 RES1    0.0000
     40 H16       15.0005   -3.3357   20.8379 H         1 RES1    0.0000
     41 C20       17.5215   -1.0081   20.3227 C.3       1 RES1    0.0000
     42 H17       18.0489   -0.6737   21.0786 H         1 RES1    0.0000
     43 H18       17.6223   -0.4020   19.5590 H         1 RES1    0.0000
     44 H19       17.8367   -1.9027   20.0739 H         1 RES1    0.0000
     45 C21       15.5011   -4.0528   19.0035 C.3       1 RES1    0.0000
     46 H20       15.1592   -4.9547   19.1756 H         1 RES1    0.0000
     47 H21       16.4658   -4.0299   19.1756 H         1 RES1    0.0000
     48 H22       15.3307   -3.8114   18.0702 H         1 RES1    0.0000
     49 N3        13.7679    9.2852    9.9040 Du        2 SUP2    0.0000
     50 O4        12.7882   10.0265    9.6046 Du        2 SUP2    0.0000
     51 O5        14.9126    9.4144    9.4703 Du        2 SUP2    0.0000
     52 C22       13.4549    8.1226   10.7716 Du        2 SUP2    0.0000
     53 C23       12.1880    7.9101   11.3033 Du        2 SUP2    0.0000
     54 H23       11.4913    8.5331   11.1326 Du        2 SUP2    0.0000
     55 C24       11.9404    6.7849   12.0813 Du        2 SUP2    0.0000
     56 H24       11.0754    6.6400   12.4451 Du        2 SUP2    0.0000
     57 C25       12.9608    5.8734   12.3304 Du        2 SUP2    0.0000
     58 C26       14.2277    6.0871   11.7986 Du        2 SUP2    0.0000
     59 H25       14.9244    5.4641   11.9694 Du        2 SUP2    0.0000
     60 C27       14.4743    7.2111   11.0207 Du        2 SUP2    0.0000
     61 H26       15.3403    7.3572   10.6568 Du        2 SUP2    0.0000
     62 C28       12.7164    4.6770   13.1224 Du        2 SUP2    0.0000
     63 H27       13.5042    4.3860   13.5645 Du        2 SUP2    0.0000
     64 C29       11.6189    3.8319   13.4078 Du        2 SUP2    0.0000
     65 H28       10.7914    4.2339   13.1559 Du        2 SUP2    0.0000
     66 C30       12.4603    2.2335   14.9694 Du        2 SUP2    0.0000
     67 H29       13.0498    2.9373   15.2101 Du        2 SUP2    0.0000
     68 C31       12.6135    0.9803   15.5403 Du        2 SUP2    0.0000
     69 H30       12.0401    0.2861   15.2381 Du        2 SUP2    0.0000
     70 H31       16.6748   -0.5541   20.1803 Du        2 SUP2    0.0000
     71 H32       16.5997   -1.8242   21.0198 Du        2 SUP2    0.0000
     72 H33       15.5911   -3.5313   20.2390 Du        2 SUP2    0.0000
     73 H34       14.6533   -3.4371   19.0245 Du        2 SUP2    0.0000
     74 C32       15.7776   -0.2173   21.8818 Du        2 SUP2    0.0000
     75 H35       16.6169    0.0290   22.3268 Du        2 SUP2    0.0000
     76 H36       15.2074   -0.7075   22.5115 Du        2 SUP2    0.0000
     77 H37       15.3167    0.5904   21.5823 Du        2 SUP2    0.0000
     78 C33       13.6232   -3.6822   20.5133 Du        2 SUP2    0.0000
     79 H38       13.6586   -4.6541   20.4265 Du        2 SUP2    0.0000
     80 H39       12.8172   -3.3430   20.0627 Du        2 SUP2    0.0000
     81 H40       13.5836   -3.4371   21.4620 Du        2 SUP2    0.0000
@<TRIPOS>BOND
     1    1   24 2
     2    2   30 1
     3    3    4 2
     4    5    3 2
     5    6    3 1
     6    7    6 ar
     7    8    7 1
     8    9    7 ar
     9   10    9 1
    10   11    9 ar
    11   12   11 ar
    12   13   12 1
    13   14    6 ar
    14   15   14 1
    15   16   11 1
    16   17   16 1
    17   18   16 2
    18   19   18 1
    19   20   21 1
    20   22   20 2
    21   23   22 1
    22   24   18 1
    23   25   22 1
    24   26   25 ar
    25   27   26 1
    26   28   26 ar
    27   29   28 1
    28   30   28 ar
    29   31   30 ar
    30   32   31 1
    31   33   25 ar
    32   34   33 1
    33   35    2 1
    34   36   35 1
    35   37   35 1
    36   38    2 1
    37   39   38 1
    38   40   38 1
    39   41   35 1
    40   42   41 1
    41   43   41 1
    42   44   41 1
    43   45   38 1
    44   46   45 1
    45   47   45 1
    46   48   45 1
    47   12   14 ar
    48   20   24 1
    49   31   33 ar
@<TRIPOS>SUBSTRUCTURE
     1 RES1 1
     2 SUP2 49

@<TRIPOS>CRYSIN
  10.7185   12.0728   27.9854  90.0000  90.0000  90.0000  61 1

