# MOL2 file generated by ConQuest
# Please check atom types

@<TRIPOS>MOLECULE
DAZKAR
    81    86     1
SMALL
NO_CHARGES
****
Generated from CSD

@<TRIPOS>ATOM
      1 C1         1.1463    2.5136   13.7621 C.3       1 RES1    0.0000
      2 H1         0.6563    1.7579   13.4301 H         1 RES1    0.0000
      3 H2         0.5335    3.1711   14.0957 H         1 RES1    0.0000
      4 H3         1.7292    2.2304   14.4703 H         1 RES1    0.0000
      5 C2         3.7857    5.4406   16.3304 C.3       1 RES1    0.0000
      6 H4         3.1989    5.9377   16.9033 H         1 RES1    0.0000
      7 H5         4.6503    5.3683   16.7427 H         1 RES1    0.0000
      8 H6         3.4265    4.5627   16.1856 H         1 RES1    0.0000
      9 O1        -4.8613    3.4226    3.2544 O.2       1 RES1    0.0000
     10 C3        -4.0497    1.8786    1.6870 C.3       1 RES1    0.0000
     11 H7        -3.3289    1.2449    1.7028 H         1 RES1    0.0000
     12 H8        -3.9058    2.5100    0.9788 H         1 RES1    0.0000
     13 H9        -4.8780    1.4169    1.5407 H         1 RES1    0.0000
     14 C4         0.9556    3.9211    9.0866 C.3       1 RES1    0.0000
     15 H10        0.0633    4.2788    9.2833 H         1 RES1    0.0000
     16 O2         2.9849    5.0533   11.7950 O.3       1 RES1    0.0000
     17 O3        -3.2084    2.1611    3.8178 O.3       1 RES1    0.0000
     18 C5         1.9316    5.0020    9.5477 C.3       1 RES1    0.0000
     19 H11        2.8441    4.7831    9.3038 H         1 RES1    0.0000
     20 H12        1.6996    5.8690    9.1795 H         1 RES1    0.0000
     21 N1         4.5663    2.9349   13.6598 N.2       1 RES1    0.0000
     22 C6         1.1711    2.8070   10.1017 C.3       1 RES1    0.0000
     23 C7        -0.6249    3.1220    5.0784 C.3       1 RES1    0.0000
     24 H13       -0.5558    2.7781    4.1625 H         1 RES1    0.0000
     25 O4         2.0153    5.1024   13.9321 O.3       1 RES1    0.0000
     26 C8        -0.2336    2.4284    7.4720 C.3       1 RES1    0.0000
     27 H14       -1.0702    2.8836    7.7033 H         1 RES1    0.0000
     28 C9         2.7968    4.3431   13.0004 C.3       1 RES1    0.0000
     29 C10       -0.3874    1.9392    6.0147 C.3       1 RES1    0.0000
     30 C11        0.8980    3.4775    7.6341 C.3       1 RES1    0.0000
     31 H15        1.7527    3.0606    7.3949 H         1 RES1    0.0000
     32 C12        1.1625    3.5960   11.4189 C.3       1 RES1    0.0000
     33 H16        0.2306    3.7166   11.7006 H         1 RES1    0.0000
     34 C13        0.0424    1.7853    9.9522 C.3       1 RES1    0.0000
     35 H17       -0.7970    2.1921   10.2150 H         1 RES1    0.0000
     36 H18        0.2095    1.0325   10.5407 H         1 RES1    0.0000
     37 C14        4.1825    4.1444   13.5906 C.2       1 RES1    0.0000
     38 C15       -0.0624    1.2846    8.4933 C.3       1 RES1    0.0000
     39 H19        0.7388    0.7839    8.2746 H         1 RES1    0.0000
     40 H20       -0.8180    0.6813    8.4209 H         1 RES1    0.0000
     41 C16       -1.5735    0.9682    5.8621 C.3       1 RES1    0.0000
     42 H21       -1.5522    0.5990    4.9651 H         1 RES1    0.0000
     43 H22       -1.4476    0.2334    6.4821 H         1 RES1    0.0000
     44 C17        0.4754    4.1892    5.2357 C.3       1 RES1    0.0000
     45 H23        1.3170    3.8294    4.9163 H         1 RES1    0.0000
     46 H24        0.2535    4.9594    4.6881 H         1 RES1    0.0000
     47 C18       -4.1064    2.5989    2.9932 C.2       1 RES1    0.0000
     48 C19       -2.9020    1.5419    6.0918 C.3       1 RES1    0.0000
     49 H25       -2.9635    1.8497    7.0109 H         1 RES1    0.0000
     50 H26       -3.5751    0.8547    5.9628 H         1 RES1    0.0000
     51 C20        0.6387    4.6357    6.6914 C.3       1 RES1    0.0000
     52 H27        1.3766    5.2628    6.7497 H         1 RES1    0.0000
     53 H28       -0.1659    5.0981    6.9731 H         1 RES1    0.0000
     54 C21        1.7367    4.9702   11.0522 C.3       1 RES1    0.0000
     55 H29        1.1237    5.6819   11.3323 H         1 RES1    0.0000
     56 C22        2.5120    2.0953    9.8829 C.3       1 RES1    0.0000
     57 H30        2.6147    1.3974   10.5344 H         1 RES1    0.0000
     58 H31        3.2286    2.7275    9.9742 H         1 RES1    0.0000
     59 H32        2.5313    1.7153    9.0016 H         1 RES1    0.0000
     60 C23       -2.0588    3.7325    5.2263 C.3       1 RES1    0.0000
     61 H33       -2.1123    4.2072    6.0698 H         1 RES1    0.0000
     62 H34       -2.2002    4.3777    4.5150 H         1 RES1    0.0000
     63 C24        4.8489    5.3727   14.0832 C.3       1 RES1    0.0000
     64 H35        5.1059    5.9261   13.3278 H         1 RES1    0.0000
     65 H36        5.6550    5.1321   14.5663 H         1 RES1    0.0000
     66 C25        1.9755    3.1184   12.6322 C.3       1 RES1    0.0000
     67 H37        2.5972    2.4284   12.3190 H         1 RES1    0.0000
     68 C26       -3.1797    2.6798    5.1744 C.3       1 RES1    0.0000
     69 H38       -4.0407    3.0917    5.3963 H         1 RES1    0.0000
     70 O5         5.9121    2.4941   15.4098 O.2       1 RES1    0.0000
     71 O6         6.8210    2.9457   13.5088 O.2       1 RES1    0.0000
     72 N2         5.8661    2.7730   14.2484 N.pl3     1 RES1    0.0000
     73 C27        2.5957    6.3726   14.2877 C.3       1 RES1    0.0000
     74 H39        1.9887    6.8574   14.8669 H         1 RES1    0.0000
     75 H40        2.7363    6.9015   13.4867 H         1 RES1    0.0000
     76 C28        0.8632    1.1596    5.5552 C.3       1 RES1    0.0000
     77 H41        1.0132    0.4205    6.1485 H         1 RES1    0.0000
     78 H42        1.6253    1.7420    5.5694 H         1 RES1    0.0000
     79 H43        0.7262    0.8323    4.6629 H         1 RES1    0.0000
     80 C29        3.9200    6.1580   14.9975 C.3       1 RES1    0.0000
     81 H44        4.3237    7.0359   15.1627 H         1 RES1    0.0000
@<TRIPOS>BOND
     1    1    2 1
     2    3    1 1
     3    4    1 1
     4    5    6 1
     5    7    5 1
     6    8    5 1
     7    9   47 2
     8   10   11 1
     9   12   10 1
    10   13   10 1
    11   14   15 1
    12   16   28 1
    13   17   47 1
    14   18   14 1
    15   19   18 1
    16   20   18 1
    17   21   37 2
    18   22   14 1
    19   23   24 1
    20   25   28 1
    21   26   27 1
    22   28   37 1
    23   29   23 1
    24   30   14 1
    25   31   30 1
    26   32   22 1
    27   33   32 1
    28   34   22 1
    29   35   34 1
    30   36   34 1
    31   37   63 1
    32   38   26 1
    33   39   38 1
    34   40   38 1
    35   41   29 1
    36   42   41 1
    37   43   41 1
    38   44   23 1
    39   45   44 1
    40   46   44 1
    41   47   10 1
    42   48   41 1
    43   49   48 1
    44   50   48 1
    45   51   30 1
    46   52   51 1
    47   53   51 1
    48   54   16 1
    49   55   54 1
    50   56   22 1
    51   57   56 1
    52   58   56 1
    53   59   56 1
    54   60   23 1
    55   61   60 1
    56   62   60 1
    57   63   64 1
    58   65   63 1
    59   66    1 1
    60   67   66 1
    61   68   17 1
    62   69   68 1
    63   70   72 2
    64   71   72 2
    65   72   21 1
    66   73   25 1
    67   74   73 1
    68   75   73 1
    69   76   29 1
    70   77   76 1
    71   78   76 1
    72   79   76 1
    73   80    5 1
    74   81   80 1
    75   18   54 1
    76   26   29 1
    77   26   30 1
    78   28   66 1
    79   32   54 1
    80   32   66 1
    81   34   38 1
    82   44   51 1
    83   48   68 1
    84   60   68 1
    85   63   80 1
    86   73   80 1
@<TRIPOS>SUBSTRUCTURE
     1 RES1 1

@<TRIPOS>CRYSIN
  12.7270    7.2252   16.8110  90.0000 110.5900  90.0000   4 1

