# MOL2 file generated by ConQuest
# Please check atom types

@<TRIPOS>MOLECULE
DAZLAT
    41    43     1
SMALL
NO_CHARGES
****
Generated from CSD

@<TRIPOS>ATOM
      1 C1        10.7794    1.4553    3.6968 C.2       1 RES1    0.0000
      2 C2        10.7953    2.9551    3.6700 C.ar      1 RES1    0.0000
      3 C3        11.7606    3.5870    4.4603 C.ar      1 RES1    0.0000
      4 H1        12.3623    3.0831    4.9959 H         1 RES1    0.0000
      5 C4        11.8109    4.9777    4.4394 C.ar      1 RES1    0.0000
      6 C5        10.9401    5.7026    3.6507 C.ar      1 RES1    0.0000
      7 H2        10.9973    6.6499    3.6482 H         1 RES1    0.0000
      8 C6         9.9910    5.0828    2.8663 C.ar      1 RES1    0.0000
      9 C7         9.8741    3.6706    2.8847 C.ar      1 RES1    0.0000
     10 C8         8.8725    2.9443    2.1153 C.2       1 RES1    0.0000
     11 C9         8.9366    1.4566    2.0760 C.2       1 RES1    0.0000
     12 C10        9.8017    0.7694    2.8302 C.2       1 RES1    0.0000
     13 C11       13.6394    5.1030    5.9907 C.3       1 RES1    0.0000
     14 H3        13.2008    4.4872    6.6134 H         1 RES1    0.0000
     15 H4        14.1360    5.7794    6.4969 H         1 RES1    0.0000
     16 H5        14.2579    4.6044    5.4174 H         1 RES1    0.0000
     17 C12        9.2607    7.1943    2.0206 C.3       1 RES1    0.0000
     18 H6         9.0739    7.5689    2.9065 H         1 RES1    0.0000
     19 H7         8.6245    7.5581    1.3703 H         1 RES1    0.0000
     20 H8        10.1725    7.4301    1.7516 H         1 RES1    0.0000
     21 C13        7.9634    0.7762    1.1675 C.3       1 RES1    0.0000
     22 H9         7.0590    0.8355    1.5622 H         1 RES1    0.0000
     23 H10        7.9472    1.2518    0.2992 H         1 RES1    0.0000
     24 C14        9.8386   -0.7330    2.7825 C.3       1 RES1    0.0000
     25 H11        9.9624   -1.1076    3.7010 H         1 RES1    0.0000
     26 C15        8.5838   -1.3327    2.1246 C.3       1 RES1    0.0000
     27 C16        8.7469   -2.7678    1.6896 C.3       1 RES1    0.0000
     28 H12        8.9900   -3.3189    2.4632 H         1 RES1    0.0000
     29 H13        9.4525   -2.8257    1.0124 H         1 RES1    0.0000
     30 H14        7.9027   -3.0925    1.3099 H         1 RES1    0.0000
     31 N1        11.9592   -1.8771    2.5545 N.pl3     1 RES1    0.0000
     32 O1        11.5535    0.8045    4.3849 O.2       1 RES1    0.0000
     33 O2        12.6544    5.7430    5.1836 O.3       1 RES1    0.0000
     34 O3         9.1293    5.7592    2.0684 O.3       1 RES1    0.0000
     35 O4         7.9480    3.4752    1.4876 O.2       1 RES1    0.0000
     36 O5         8.2817   -0.5942    0.9387 O.3       1 RES1    0.0000
     37 O6         7.5779   -1.1615    3.0968 O.3       1 RES1    0.0000
     38 H15        6.9037   -1.6157    2.8847 H         1 RES1    0.0000
     39 O7        10.9833   -1.0632    1.9419 O.3       1 RES1    0.0000
     40 O8        11.7214   -2.3797    3.6214 O.2       1 RES1    0.0000
     41 O9        12.9271   -1.9943    1.8287 O.2       1 RES1    0.0000
@<TRIPOS>BOND
     1    1    2 1
     2    2    3 ar
     3    3    4 1
     4    5    3 ar
     5    6    5 ar
     6    7    6 1
     7    8    6 ar
     8    9    2 ar
     9   10    9 1
    10   11   10 1
    11   12    1 1
    12   13   14 1
    13   15   13 1
    14   16   13 1
    15   17   18 1
    16   19   17 1
    17   20   17 1
    18   21   11 1
    19   22   21 1
    20   23   21 1
    21   24   12 1
    22   25   24 1
    23   26   24 1
    24   27   26 1
    25   28   27 1
    26   29   27 1
    27   30   27 1
    28   31   39 1
    29   32    1 2
    30   33    5 1
    31   34    8 1
    32   35   10 2
    33   36   21 1
    34   37   26 1
    35   38   37 1
    36   39   24 1
    37   40   31 2
    38   41   31 2
    39    8    9 ar
    40   11   12 2
    41   13   33 1
    42   17   34 1
    43   26   36 1
@<TRIPOS>SUBSTRUCTURE
     1 RES1 1

@<TRIPOS>CRYSIN
  13.9130   13.4750    8.4040  90.0000  94.2460  90.0000  14 1

