# MOL2 file generated by ConQuest
# Please check atom types

@<TRIPOS>MOLECULE
DAZRUS
    62    62     2
SMALL
NO_CHARGES
****
Generated from CSD

@<TRIPOS>ATOM
      1 C1         6.9592    7.1381   14.8197 C.3       1 RES1    0.0000
      2 C2         7.0552    8.2172   13.7391 C.ar      1 RES1    0.0000
      3 C3         7.6405    9.4359   14.0606 C.ar      1 RES1    0.0000
      4 H1         7.9451    9.5908   14.9255 H         1 RES1    0.0000
      5 C4         7.7707   10.4178   13.0949 C.ar      1 RES1    0.0000
      6 H2         8.1591   11.2333   13.3157 H         1 RES1    0.0000
      7 C5         7.3311   10.1977   11.8141 C.ar      1 RES1    0.0000
      8 H3         7.4296   10.8583   11.1671 H         1 RES1    0.0000
      9 C6         6.7469    9.0019   11.4915 C.ar      1 RES1    0.0000
     10 H4         6.4428    8.8566   10.6247 H         1 RES1    0.0000
     11 C7         6.6047    8.0074   12.4417 C.ar      1 RES1    0.0000
     12 H5         6.2073    7.1981   12.2124 H         1 RES1    0.0000
     13 C8         8.3968    6.7376   15.1787 C.2       1 RES1    0.0000
     14 C9        10.2581    7.1842   16.5990 C.3       1 RES1    0.0000
     15 H6        10.6171    7.9706   17.0401 H         1 RES1    0.0000
     16 H7        10.7934    7.0104   15.8091 H         1 RES1    0.0000
     17 C10       10.3313    6.0160   17.5201 C.3       1 RES1    0.0000
     18 H8        11.2391    5.8918   17.8069 H         1 RES1    0.0000
     19 H9        10.0296    5.2290   17.0630 H         1 RES1    0.0000
     20 H10        9.7731    6.1763   18.2838 H         1 RES1    0.0000
     21 C11        6.0338    5.9819   14.3474 C.2       1 RES1    0.0000
     22 N1         6.5963    5.0184   13.6472 N.am      1 RES1    0.0000
     23 H11        6.1124    4.3881   13.3182 H         1 RES1    0.0000
     24 H12        7.4464    5.0201   13.5187 H         1 RES1    0.0000
     25 N2         6.0741    6.9776   17.0348 N.pl3     1 RES1    0.0000
     26 O1         9.0363    5.9545   14.5229 O.2       1 RES1    0.0000
     27 O2         8.8593    7.4327   16.2047 O.3       1 RES1    0.0000
     28 O3         4.8353    6.0735   14.5884 O.2       1 RES1    0.0000
     29 O4         6.3027    7.8157   15.9191 O.3       1 RES1    0.0000
     30 O5         6.5554    5.8768   17.0353 O.2       1 RES1    0.0000
     31 O6         5.4109    7.5244   17.8712 O.2       1 RES1    0.0000
     32 C12        0.8081    1.4982    5.7159 C.3       2 RES2    0.0000
     33 C13        1.0050    2.9628    5.3196 C.ar      2 RES2    0.0000
     34 C14        1.5532    3.8368    6.2569 C.ar      2 RES2    0.0000
     35 H13        1.7648    3.5326    7.1097 H         2 RES2    0.0000
     36 C15        1.7831    5.1582    5.9174 C.ar      2 RES2    0.0000
     37 H14        2.1426    5.7410    6.5463 H         2 RES2    0.0000
     38 C16        1.4818    5.6148    4.6549 C.ar      2 RES2    0.0000
     39 H15        1.6461    6.5022    4.4286 H         2 RES2    0.0000
     40 C17        0.9376    4.7547    3.7280 C.ar      2 RES2    0.0000
     41 H16        0.7285    5.0658    2.8767 H         2 RES2    0.0000
     42 C18        0.6998    3.4319    4.0553 C.ar      2 RES2    0.0000
     43 H17        0.3331    2.8556    3.4233 H         2 RES2    0.0000
     44 C19        2.2009    0.8839    5.8788 C.2       2 RES2    0.0000
     45 C20        3.9728    0.3726    7.3765 C.3       2 RES2    0.0000
     46 H18        4.3301    0.7572    8.1923 H         2 RES2    0.0000
     47 H19        4.5557    0.6256    6.6438 H         2 RES2    0.0000
     48 C21        3.9418   -1.1147    7.4981 C.3       2 RES2    0.0000
     49 H20        4.8263   -1.4396    7.6793 H         2 RES2    0.0000
     50 H21        3.6223   -1.4962    6.6767 H         2 RES2    0.0000
     51 H22        3.3558   -1.3650    8.2166 H         2 RES2    0.0000
     52 C22       -0.1319    0.7481    4.7224 C.2       2 RES2    0.0000
     53 N3         0.4249    0.1328    3.6962 N.am      2 RES2    0.0000
     54 H23       -0.0679   -0.2651    3.1142 H         2 RES2    0.0000
     55 H24        1.2804    0.1291    3.6097 H         2 RES2    0.0000
     56 N4        -0.2407    0.3199    7.5256 N.pl3     2 RES2    0.0000
     57 O7         2.8541    0.5139    4.9350 O.2       2 RES2    0.0000
     58 O8         2.6215    0.9010    7.1347 O.3       2 RES2    0.0000
     59 O9        -1.3382    0.8095    4.9337 O.2       2 RES2    0.0000
     60 O10        0.1127    1.5812    6.9869 O.3       2 RES2    0.0000
     61 O11        0.1923   -0.6693    6.9970 O.2       2 RES2    0.0000
     62 O12       -0.9413    0.4286    8.4910 O.2       2 RES2    0.0000
@<TRIPOS>BOND
     1    1    2 1
     2    2    3 ar
     3    3    4 1
     4    5    3 ar
     5    6    5 1
     6    7    5 ar
     7    8    7 1
     8    9    7 ar
     9   10    9 1
    10   11    2 ar
    11   12   11 1
    12   13    1 1
    13   14   15 1
    14   16   14 1
    15   17   14 1
    16   18   17 1
    17   19   17 1
    18   20   17 1
    19   21    1 1
    20   22   21 1
    21   23   22 1
    22   24   22 1
    23   25   29 1
    24   26   13 2
    25   27   13 1
    26   28   21 2
    27   29    1 1
    28   30   25 2
    29   31   25 2
    30   32   33 1
    31   33   34 ar
    32   34   35 1
    33   36   34 ar
    34   37   36 1
    35   38   36 ar
    36   39   38 1
    37   40   38 ar
    38   41   40 1
    39   42   33 ar
    40   43   42 1
    41   44   32 1
    42   45   46 1
    43   47   45 1
    44   48   45 1
    45   49   48 1
    46   50   48 1
    47   51   48 1
    48   52   32 1
    49   53   52 1
    50   54   53 1
    51   55   53 1
    52   56   60 1
    53   57   44 2
    54   58   44 1
    55   59   52 2
    56   60   32 1
    57   61   56 2
    58   62   56 2
    59    9   11 ar
    60   14   27 1
    61   40   42 ar
    62   45   58 1
@<TRIPOS>SUBSTRUCTURE
     1 RES1 1
     2 RES2 32

@<TRIPOS>CRYSIN
   8.0249    9.3073   17.7250  74.2810  78.7710  84.6950   2 1

