# MOL2 file generated by ConQuest
# Please check atom types

@<TRIPOS>MOLECULE
DAZZEM
    72    76     2
SMALL
NO_CHARGES
****
Generated from CSD

@<TRIPOS>ATOM
      1 O1        -4.8654   -7.1036    9.4475 O.2       1 RES1    0.0000
      2 O2        -2.8704   -7.6090   10.0882 O.2       1 RES1    0.0000
      3 O3        -1.6501   -0.9771   11.5556 O.2       1 RES1    0.0000
      4 O4        -3.3780   -0.4500   10.1902 O.3       1 RES1    0.0000
      5 O5        -5.2774    1.7230   10.5142 O.3       1 RES1    0.0000
      6 O6        -1.8297    0.6282    8.2045 O.3       1 RES1    0.0000
      7 O7        -0.9596    0.1607    5.2205 O.3       1 RES1    0.0000
      8 O8         2.8995    2.2977    6.9758 O.2       1 RES1    0.0000
      9 O9        -2.4487    4.8415    8.6448 O.3       1 RES1    0.0000
     10 O10       -2.3263    5.3416   10.8249 O.2       1 RES1    0.0000
     11 O11       -0.8003   11.5112    7.4174 O.2       1 RES1    0.0000
     12 O12       -2.0011   11.9652    9.1559 O.2       1 RES1    0.0000
     13 N1        -3.7586   -6.7994    9.8674 N.pl3     1 RES1    0.0000
     14 N2        -1.4339   11.1552    8.3221 N.pl3     1 RES1    0.0000
     15 C1        -3.4714   -5.3761   10.1398 C.ar      1 RES1    0.0000
     16 C2        -2.4013   -5.0601   10.9113 C.ar      1 RES1    0.0000
     17 H1        -1.8445   -5.7395   11.2749 H         1 RES1    0.0000
     18 C3        -2.1395   -3.7059   11.1609 C.ar      1 RES1    0.0000
     19 H2        -1.3998   -3.4548   11.7020 H         1 RES1    0.0000
     20 C4        -2.9596   -2.7366   10.6185 C.ar      1 RES1    0.0000
     21 C5        -4.0311   -3.0879    9.8291 C.ar      1 RES1    0.0000
     22 H3        -4.5869   -2.4149    9.4547 H         1 RES1    0.0000
     23 C6        -4.2997   -4.4350    9.5783 C.ar      1 RES1    0.0000
     24 H4        -5.0361   -4.6933    9.0360 H         1 RES1    0.0000
     25 C7        -2.5710   -1.3074   10.8597 C.2       1 RES1    0.0000
     26 C8        -3.0763    0.9863   10.2286 C.3       1 RES1    0.0000
     27 C9        -3.2051    1.5536   11.6564 C.3       1 RES1    0.0000
     28 H5        -3.1410    0.8327   12.3319 H         1 RES1    0.0000
     29 H6        -2.5005    2.2248   11.8364 H         1 RES1    0.0000
     30 C10       -4.6024    2.2027   11.6756 C.3       1 RES1    0.0000
     31 H7        -5.0949    1.9431   12.4951 H         1 RES1    0.0000
     32 H8        -4.5275    3.1894   11.6504 H         1 RES1    0.0000
     33 C11       -4.2684    1.6407    9.4955 C.3       1 RES1    0.0000
     34 H9        -4.5730    1.0826    8.7228 H         1 RES1    0.0000
     35 C12       -3.9135    3.0329    9.0588 C.2       1 RES1    0.0000
     36 H10       -4.6139    3.6210    8.8020 H         1 RES1    0.0000
     37 C13       -2.6845    3.4706    9.0156 C.2       1 RES1    0.0000
     38 C14       -1.4293    2.7095    9.2591 C.3       1 RES1    0.0000
     39 H11       -0.9139    3.0967   10.0246 H         1 RES1    0.0000
     40 C15       -0.5624    2.6262    7.9873 C.3       1 RES1    0.0000
     41 H12       -0.6313    3.4774    7.4678 H         1 RES1    0.0000
     42 C16        0.9139    2.3221    8.3113 C.3       1 RES1    0.0000
     43 H13        1.3115    3.0971    8.7828 H         1 RES1    0.0000
     44 H14        0.9616    1.5397    8.9160 H         1 RES1    0.0000
     45 C17        1.7144    2.0355    7.0622 C.2       1 RES1    0.0000
     46 C18        0.9552    1.4444    5.9176 C.3       1 RES1    0.0000
     47 H15        1.5606    0.8620    5.3945 H         1 RES1    0.0000
     48 H16        0.6477    2.1739    5.3237 H         1 RES1    0.0000
     49 C19       -0.2453    0.6333    6.3699 C.3       1 RES1    0.0000
     50 H17        0.0674   -0.1470    6.9111 H         1 RES1    0.0000
     51 C20       -2.2939    0.6237    5.2697 C.3       1 RES1    0.0000
     52 H18       -2.8890   -0.0695    5.6512 H         1 RES1    0.0000
     53 H19       -2.6153    0.8550    4.3614 H         1 RES1    0.0000
     54 C21       -2.2730    1.8503    6.1528 C.3       1 RES1    0.0000
     55 H20       -3.1581    2.0108    6.5655 H         1 RES1    0.0000
     56 H21       -1.9996    2.6545    5.6452 H         1 RES1    0.0000
     57 C22       -1.2261    1.4765    7.2074 C.3       1 RES1    0.0000
     58 C23       -1.7621    1.2396    9.5027 C.3       1 RES1    0.0000
     59 H22       -1.0179    0.8183   10.0222 H         1 RES1    0.0000
     60 C24       -2.2882    5.6960    9.6683 C.2       1 RES1    0.0000
     61 C25       -2.0511    7.1096    9.2543 C.ar      1 RES1    0.0000
     62 C26       -1.7718    7.4560    7.9453 C.ar      1 RES1    0.0000
     63 H23       -1.7344    6.7923    7.2662 H         1 RES1    0.0000
     64 C27       -1.5446    8.8043    7.6430 C.ar      1 RES1    0.0000
     65 H24       -1.3214    9.0718    6.7587 H         1 RES1    0.0000
     66 C28       -1.6520    9.7327    8.6496 C.ar      1 RES1    0.0000
     67 C29       -1.9599    9.4207    9.9382 C.ar      1 RES1    0.0000
     68 H25       -2.0463   10.0915   10.6053 H         1 RES1    0.0000
     69 C30       -2.1405    8.0833   10.2286 C.ar      1 RES1    0.0000
     70 H26       -2.3311    7.8267   11.1225 H         1 RES1    0.0000
     71 O13       -1.2779   11.3794    7.0790 Du        2 SUP2    0.0000
     72 O14       -1.3283   12.0169    9.1451 Du        2 SUP2    0.0000
@<TRIPOS>BOND
     1    1   13 2
     2    2   13 2
     3    3   25 2
     4    4   25 1
     5    5   30 1
     6    6   57 1
     7    7   49 1
     8    8   45 2
     9    9   37 1
    10   10   60 2
    11   11   14 2
    12   12   14 2
    13   13   15 1
    14   14   66 1
    15   15   16 ar
    16   16   17 1
    17   18   16 ar
    18   19   18 1
    19   20   18 ar
    20   21   20 ar
    21   22   21 1
    22   23   15 ar
    23   24   23 1
    24   25   20 1
    25   26    4 1
    26   27   26 1
    27   28   27 1
    28   29   27 1
    29   30   27 1
    30   31   30 1
    31   32   30 1
    32   33    5 1
    33   34   33 1
    34   35   33 1
    35   36   35 1
    36   37   35 2
    37   38   37 1
    38   39   38 1
    39   40   38 1
    40   41   40 1
    41   42   40 1
    42   43   42 1
    43   44   42 1
    44   45   42 1
    45   46   45 1
    46   47   46 1
    47   48   46 1
    48   49   46 1
    49   50   49 1
    50   51    7 1
    51   52   51 1
    52   53   51 1
    53   54   51 1
    54   55   54 1
    55   56   54 1
    56   57   40 1
    57   58    6 1
    58   59   58 1
    59   60    9 1
    60   61   60 1
    61   62   61 ar
    62   63   62 1
    63   64   62 ar
    64   65   64 1
    65   66   64 ar
    66   67   66 ar
    67   68   67 1
    68   69   61 ar
    69   70   69 1
    70   21   23 ar
    71   26   33 1
    72   26   58 1
    73   38   58 1
    74   49   57 1
    75   54   57 1
    76   67   69 ar
@<TRIPOS>SUBSTRUCTURE
     1 RES1 1
     2 SUP2 71

@<TRIPOS>CRYSIN
   9.2100   13.3410   13.8320 109.5540 105.7630 104.6330   2 1

