# MOL2 file generated by ConQuest
# Please check atom types

@<TRIPOS>MOLECULE
DBNCPD10
    36    38     1
SMALL
NO_CHARGES
****
Generated from CSD

@<TRIPOS>ATOM
      1 C1         5.4083    2.4563   -6.8140 C.2       1 RES1    0.0000
      2 C2         5.3015    4.1796   -0.5051 C.ar      1 RES1    0.0000
      3 C3         5.9470    4.6008   -1.6536 C.ar      1 RES1    0.0000
      4 C4         5.3198    4.4981   -2.8881 C.ar      1 RES1    0.0000
      5 C5         2.1320    3.9073   -7.2784 C.2       1 RES1    0.0000
      6 C6         1.7935    3.9690   -8.7151 C.ar      1 RES1    0.0000
      7 C7         2.6559    4.4996   -9.6613 C.ar      1 RES1    0.0000
      8 C8         2.2731    4.5695  -10.9932 C.ar      1 RES1    0.0000
      9 C9         1.0378    4.0970  -11.3790 C.ar      1 RES1    0.0000
     10 C10        0.1630    3.5806  -10.4430 C.ar      1 RES1    0.0000
     11 C11        0.5247    3.5218   -9.1081 C.ar      1 RES1    0.0000
     12 C12        5.1669    2.8082   -5.4879 C.2       1 RES1    0.0000
     13 C13        3.9264    3.4474   -5.4428 C.2       1 RES1    0.0000
     14 C14        3.4006    3.4683   -6.8111 C.2       1 RES1    0.0000
     15 C15        4.3559    2.8544   -7.6335 C.2       1 RES1    0.0000
     16 C16        3.2988    3.8954   -4.2404 C.2       1 RES1    0.0000
     17 C17        4.0283    3.9891   -2.9623 C.ar      1 RES1    0.0000
     18 C18        3.3634    3.6000   -1.7934 C.ar      1 RES1    0.0000
     19 C19        4.0228    3.6818   -0.5794 C.ar      1 RES1    0.0000
     20 H1         5.7645    4.2860    0.4221 H         1 RES1    0.0000
     21 H2         6.8521    4.9929   -1.6449 H         1 RES1    0.0000
     22 H3         5.7765    4.7697   -3.6974 H         1 RES1    0.0000
     23 H4         3.5629    4.8590   -9.3745 H         1 RES1    0.0000
     24 H5         2.9482    5.0301  -11.6745 H         1 RES1    0.0000
     25 H6         0.7648    4.1521  -12.3295 H         1 RES1    0.0000
     26 H7        -0.7409    3.2294  -10.7720 H         1 RES1    0.0000
     27 H8        -0.1051    3.1327   -8.3992 H         1 RES1    0.0000
     28 H9         5.7079    2.5969   -4.7309 H         1 RES1    0.0000
     29 H10        4.2905    2.6936   -8.6030 H         1 RES1    0.0000
     30 H11        2.3755    3.2740   -1.8487 H         1 RES1    0.0000
     31 H12        3.5238    3.3485    0.2184 H         1 RES1    0.0000
     32 N1         6.5669    1.7471   -7.2754 N.pl3     1 RES1    0.0000
     33 O1         7.4301    1.4473   -6.4544 O.2       1 RES1    0.0000
     34 O2         6.6439    1.4778   -8.4735 O.2       1 RES1    0.0000
     35 O3         2.0651    4.2235   -4.1996 O.3       1 RES1    0.0000
     36 O4         1.1911    4.2339   -6.4705 O.2       1 RES1    0.0000
@<TRIPOS>BOND
     1    1   12 2
     2    2    3 ar
     3    3    4 ar
     4    4   17 ar
     5    5    6 1
     6    6    7 ar
     7    7    8 ar
     8    8    9 ar
     9    9   10 ar
    10   10   11 ar
    11   11    6 ar
    12   12   13 1
    13   13   14 1
    14   14    5 1
    15   15    1 1
    16   16   13 2
    17   17   16 1
    18   18   17 ar
    19   19    2 ar
    20   20    2 1
    21   21    3 1
    22   22    4 1
    23   23    7 1
    24   24    8 1
    25   25    9 1
    26   26   10 1
    27   27   11 1
    28   28   12 1
    29   29   15 1
    30   30   18 1
    31   31   19 1
    32   32    1 1
    33   33   32 2
    34   34   32 2
    35   35   16 1
    36   36    5 2
    37   14   15 2
    38   18   19 ar
@<TRIPOS>SUBSTRUCTURE
     1 RES1 1

@<TRIPOS>CRYSIN
  14.2410    7.4410   19.4330  90.0000 131.4900  90.0000  14 1

