# MOL2 file generated by ConQuest
# Please check atom types

@<TRIPOS>MOLECULE
DCXPYO01
    36    36     2
SMALL
NO_CHARGES
****
Generated from CSD

@<TRIPOS>ATOM
      1 N1         3.2553    3.5151    9.5783 N.pl3     1 RES1    0.0000
      2 O1         3.5547    3.8347   10.8507 O.2       1 RES1    0.0000
      3 O2         4.6229    5.9545   10.1062 O.3       1 RES1    0.0000
      4 H1         4.3081    5.2848   10.6184 H         1 RES1    0.0000
      5 O3         4.7532    6.3315    7.9295 O.2       1 RES1    0.0000
      6 O4         2.3818    1.8226   11.6805 O.3       1 RES1    0.0000
      7 H2         2.8470    2.6394   11.6199 H         1 RES1    0.0000
      8 O5         1.4708    0.4718   10.1775 O.2       1 RES1    0.0000
      9 C1         3.6781    4.3293    8.5639 C.ar      1 RES1    0.0000
     10 C2         3.4267    3.9622    7.2534 C.ar      1 RES1    0.0000
     11 H3         3.7349    4.5439    6.5513 H         1 RES1    0.0000
     12 C3         2.7320    2.8010    6.9619 C.ar      1 RES1    0.0000
     13 H4         2.5692    2.5536    6.0506 H         1 RES1    0.0000
     14 C4         2.2828    2.0197    8.0130 C.ar      1 RES1    0.0000
     15 H5         1.7856    1.2309    7.8606 H         1 RES1    0.0000
     16 C5         2.5516    2.3751    9.3218 C.ar      1 RES1    0.0000
     17 C6         4.4129    5.6248    8.8467 C.2       1 RES1    0.0000
     18 C7         2.0825    1.4779   10.4435 C.2       1 RES1    0.0000
     19 N2         8.2261    0.6445    8.7400 N.pl3     2 RES2    0.0000
     20 O6         8.7406    0.4773    7.5072 O.2       2 RES2    0.0000
     21 O7         7.6452    2.5463    6.7164 O.3       2 RES2    0.0000
     22 H6         8.1247    1.7514    6.7858 H         2 RES2    0.0000
     23 O8         6.6240    3.8092    8.2290 O.2       2 RES2    0.0000
     24 O9         9.8432   -1.6316    8.2143 O.3       2 RES2    0.0000
     25 H7         9.5053   -0.9124    7.7116 H         2 RES2    0.0000
     26 O10        9.5474   -2.3007   10.3067 O.2       2 RES2    0.0000
     27 C8         7.4898    1.7627    9.0084 C.ar      2 RES2    0.0000
     28 C9         6.9861    1.9541   10.2840 C.ar      2 RES2    0.0000
     29 H8         6.4832    2.7618   10.4499 H         2 RES2    0.0000
     30 C10        7.1824    1.0031   11.2677 C.ar      2 RES2    0.0000
     31 H9         6.8277    1.1329   12.1524 H         2 RES2    0.0000
     32 C11        7.9138   -0.1280   10.9567 C.ar      2 RES2    0.0000
     33 H10        8.0539   -0.8328   11.6004 H         2 RES2    0.0000
     34 C12        8.4594   -0.2971    9.6973 C.ar      2 RES2    0.0000
     35 C13        7.2193    2.7955    7.9376 C.2       2 RES2    0.0000
     36 C14        9.3379   -1.5009    9.4269 C.2       2 RES2    0.0000
@<TRIPOS>BOND
     1    1    2 1
     2    3    4 1
     3    5   17 2
     4    6    7 1
     5    8   18 2
     6    9    1 ar
     7   10    9 ar
     8   11   10 1
     9   12   10 ar
    10   13   12 1
    11   14   12 ar
    12   15   14 1
    13   16    1 ar
    14   17    3 1
    15   18    6 1
    16   19   20 1
    17   21   22 1
    18   23   35 2
    19   24   25 1
    20   26   36 2
    21   27   19 ar
    22   28   27 ar
    23   29   28 1
    24   30   28 ar
    25   31   30 1
    26   32   30 ar
    27   33   32 1
    28   34   19 ar
    29   35   21 1
    30   36   24 1
    31    9   17 1
    32   14   16 ar
    33   16   18 1
    34   27   35 1
    35   32   34 ar
    36   34   36 1
@<TRIPOS>SUBSTRUCTURE
     1 RES1 1
     2 RES2 19

@<TRIPOS>CRYSIN
   9.6870    6.1238   24.4700  90.0000  93.3970  90.0000  14 1

