# MOL2 file generated by ConQuest
# Please check atom types

@<TRIPOS>MOLECULE
DCXPYO
    36    36     2
SMALL
NO_CHARGES
****
Generated from CSD

@<TRIPOS>ATOM
      1 C1         0.4607   -1.8103    3.6659 C.ar      1 RES1    0.0000
      2 C2         0.7232   -2.1722    4.9697 C.ar      1 RES1    0.0000
      3 C3         1.4163   -3.3223    5.2619 C.ar      1 RES1    0.0000
      4 C4         1.8636   -4.0944    4.2208 C.ar      1 RES1    0.0000
      5 C5         1.6006   -3.7554    2.9096 C.ar      1 RES1    0.0000
      6 C6         2.0828   -4.6420    1.7924 C.2       1 RES1    0.0000
      7 C7        -0.2779   -0.5246    3.3786 C.2       1 RES1    0.0000
      8 O1         0.5895   -2.3108    1.3897 O.2       1 RES1    0.0000
      9 O2         1.7815   -4.2943    0.5647 O.3       1 RES1    0.0000
     10 O3         2.7046   -5.6331    2.0625 O.2       1 RES1    0.0000
     11 O4        -0.5013   -0.2091    2.1288 O.3       1 RES1    0.0000
     12 O5        -0.6200    0.1813    4.2846 O.2       1 RES1    0.0000
     13 N1         0.8915   -2.6232    2.6543 N.pl3     1 RES1    0.0000
     14 H1         0.3392   -1.5281    5.7701 H         1 RES1    0.0000
     15 H2         1.6731   -3.5512    6.3103 H         1 RES1    0.0000
     16 H3         2.4719   -4.9494    4.4197 H         1 RES1    0.0000
     17 H4         1.0826   -3.4151    0.6384 H         1 RES1    0.0000
     18 H5        -0.1174   -0.9466    1.4978 H         1 RES1    0.0000
     19 C8         2.6824   -1.3283    9.0677 C.ar      2 RES2    0.0000
     20 C9         2.1781   -1.1644   10.3273 C.ar      2 RES2    0.0000
     21 C10        2.3954   -2.1283   11.2947 C.ar      2 RES2    0.0000
     22 C11        3.1349   -3.2369   10.9829 C.ar      2 RES2    0.0000
     23 C12        3.6787   -3.3817    9.7355 C.ar      2 RES2    0.0000
     24 C13        4.5682   -4.5665    9.4286 C.2       2 RES2    0.0000
     25 C14        2.3915   -0.2759    8.0143 C.2       2 RES2    0.0000
     26 O6         3.9448   -2.5644    7.5625 O.2       2 RES2    0.0000
     27 O7         5.0689   -4.6630    8.2304 O.3       2 RES2    0.0000
     28 O8         4.7751   -5.3769   10.3052 O.2       2 RES2    0.0000
     29 O9         2.8467   -0.5061    6.8038 O.3       2 RES2    0.0000
     30 O10        1.7725    0.6991    8.3163 O.2       2 RES2    0.0000
     31 N2         3.4324   -2.4283    8.7927 N.pl3     2 RES2    0.0000
     32 H6         1.6202   -0.2598   10.5581 H         2 RES2    0.0000
     33 H7         2.1397   -1.9736   12.2523 H         2 RES2    0.0000
     34 H8         3.3349   -3.9657   11.8103 H         2 RES2    0.0000
     35 H9         4.6341   -3.6935    7.5871 H         2 RES2    0.0000
     36 H10        3.4816   -1.4477    6.8014 H         2 RES2    0.0000
@<TRIPOS>BOND
     1    1    2 ar
     2    2    3 ar
     3    3    4 ar
     4    4    5 ar
     5    5    6 1
     6    6    9 1
     7    7    1 1
     8    8   13 1
     9    9   17 1
    10   10    6 2
    11   11    7 1
    12   12    7 2
    13   13    1 ar
    14   14    2 1
    15   15    3 1
    16   16    4 1
    17   18   11 1
    18   19   20 ar
    19   20   21 ar
    20   21   22 ar
    21   22   23 ar
    22   23   24 1
    23   24   27 1
    24   25   19 1
    25   26   31 1
    26   27   35 1
    27   28   24 2
    28   29   25 1
    29   30   25 2
    30   31   19 ar
    31   32   20 1
    32   33   21 1
    33   34   22 1
    34   36   29 1
    35    5   13 ar
    36   23   31 ar
@<TRIPOS>SUBSTRUCTURE
     1 RES1 1
     2 RES2 19

@<TRIPOS>CRYSIN
   9.8250    6.1868   24.5960  90.0000  93.3600  90.0000  14 1

