# MOL2 file generated by ConQuest
# Please check atom types

@<TRIPOS>MOLECULE
DEBPAE
   110   114     2
SMALL
NO_CHARGES
****
Generated from CSD

@<TRIPOS>ATOM
      1 C1         0.2873    2.4088   22.5125 C.2       1 RES1    0.0000
      2 C2         0.0739    3.8760   22.2952 C.3       1 RES1    0.0000
      3 H1        -0.8630    4.0433   22.0613 H         1 RES1    0.0000
      4 C3         0.9777    4.3843   21.1851 C.3       1 RES1    0.0000
      5 H2         1.9005    4.2249   21.4403 H         1 RES1    0.0000
      6 H3         0.8020    3.8689   20.3834 H         1 RES1    0.0000
      7 C4         0.8140    5.8428   20.8642 C.2       1 RES1    0.0000
      8 C5         1.7517    6.7773   21.0066 C.2       1 RES1    0.0000
      9 H4         1.5208    7.6218   20.6951 H         1 RES1    0.0000
     10 C6        -0.4920    6.2027   20.2645 C.2       1 RES1    0.0000
     11 C7        -0.5475    0.4799   23.6556 C.3       1 RES1    0.0000
     12 H5         0.3306    0.3189   24.0104 H         1 RES1    0.0000
     13 H6        -0.6921   -0.0813   22.8927 H         1 RES1    0.0000
     14 H7        -1.2032    0.2810   24.3272 H         1 RES1    0.0000
     15 C8        -2.0215    7.9517   19.7954 C.3       1 RES1    0.0000
     16 H8        -2.7193    7.4742   20.2516 H         1 RES1    0.0000
     17 H9        -2.0781    7.7820   18.8525 H         1 RES1    0.0000
     18 H10       -2.1213    8.8933   19.9576 H         1 RES1    0.0000
     19 C9         3.1052    6.6676   21.5886 C.ar      1 RES1    0.0000
     20 C10        4.1573    7.3085   20.9636 C.ar      1 RES1    0.0000
     21 H11        3.9972    7.7907   20.1857 H         1 RES1    0.0000
     22 C11        5.4299    7.2477   21.4669 C.ar      1 RES1    0.0000
     23 H12        6.1385    7.6470   21.0170 H         1 RES1    0.0000
     24 C12        5.6391    6.5800   22.6597 C.ar      1 RES1    0.0000
     25 C13        4.6107    5.9841   23.3375 C.ar      1 RES1    0.0000
     26 H13        4.7628    5.5642   24.1524 H         1 RES1    0.0000
     27 C14        3.3413    6.0172   22.7880 C.ar      1 RES1    0.0000
     28 H14        2.6384    5.5982   23.2298 H         1 RES1    0.0000
     29 C15       -0.5529    4.9091   24.2986 C.2       1 RES1    0.0000
     30 H15       -1.4225    4.7986   23.9876 H         1 RES1    0.0000
     31 C16       -0.3643    5.5066   25.6126 C.ar      1 RES1    0.0000
     32 C17       -1.4403    5.9099   26.3567 C.ar      1 RES1    0.0000
     33 H16       -2.2959    5.8057   26.0077 H         1 RES1    0.0000
     34 C18       -1.2891    6.4782   27.6359 C.ar      1 RES1    0.0000
     35 C19       -2.3781    6.9059   28.4204 C.ar      1 RES1    0.0000
     36 H17       -3.2402    6.8081   28.0861 H         1 RES1    0.0000
     37 C20       -2.2031    7.4608   29.6560 C.ar      1 RES1    0.0000
     38 H18       -2.9367    7.7496   30.1493 H         1 RES1    0.0000
     39 C21       -0.9107    7.5886   30.1683 C.ar      1 RES1    0.0000
     40 H19       -0.7832    7.9517   31.0136 H         1 RES1    0.0000
     41 C22        0.1449    7.1909   29.4479 C.ar      1 RES1    0.0000
     42 H20        0.9967    7.2887   29.8096 H         1 RES1    0.0000
     43 C23        0.0131    6.6289   28.1626 C.ar      1 RES1    0.0000
     44 C24        1.0991    6.1854   27.3926 C.ar      1 RES1    0.0000
     45 H21        1.9586    6.2643   27.7388 H         1 RES1    0.0000
     46 C25        0.9327    5.6471   26.1633 C.ar      1 RES1    0.0000
     47 H22        1.6748    5.3677   25.6757 H         1 RES1    0.0000
     48 N1         0.3931    4.5358   23.5648 N.2       1 RES1    0.0000
     49 N2         6.9966    6.5082   23.2178 N.pl3     1 RES1    0.0000
     50 O1         1.1918    1.7821   22.0816 O.2       1 RES1    0.0000
     51 O2        -0.6633    1.8737   23.2647 O.3       1 RES1    0.0000
     52 O3        -1.2659    5.4032   19.8055 O.2       1 RES1    0.0000
     53 O4        -0.7362    7.5113   20.2894 O.3       1 RES1    0.0000
     54 O5         7.9222    6.9486   22.5664 O.2       1 RES1    0.0000
     55 O6         7.1443    6.0093   24.3161 O.2       1 RES1    0.0000
     56 C26        0.9796   -2.3291   15.4206 C.2       2 RES2    0.0000
     57 C27        1.1103   -0.8516   15.6322 C.3       2 RES2    0.0000
     58 H23        2.0388   -0.6346   15.8591 H         2 RES2    0.0000
     59 C28        0.1873   -0.3694   16.7470 C.3       2 RES2    0.0000
     60 H24       -0.7311   -0.5414   16.4851 H         2 RES2    0.0000
     61 H25        0.3682   -0.8895   17.5446 H         2 RES2    0.0000
     62 C29        0.3262    1.0860   17.0815 C.2       2 RES2    0.0000
     63 C30       -0.6316    2.0110   16.9611 C.2       2 RES2    0.0000
     64 H26       -0.4099    2.8626   17.2633 H         2 RES2    0.0000
     65 C31        1.6200    1.4704   17.7061 C.2       2 RES2    0.0000
     66 C32        1.8877   -4.2414   14.3611 C.3       2 RES2    0.0000
     67 H27        1.0048   -4.4608   14.0544 H         2 RES2    0.0000
     68 H28        2.0968   -4.7679   15.1367 H         2 RES2    0.0000
     69 H29        2.5229   -4.4285   13.6667 H         2 RES2    0.0000
     70 C33        3.0558    3.2478   18.3253 C.3       2 RES2    0.0000
     71 H30        3.7635    3.0686   17.7018 H         2 RES2    0.0000
     72 H31        3.2320    2.7876   19.1516 H         2 RES2    0.0000
     73 H32        3.0056    4.1917   18.4900 H         2 RES2    0.0000
     74 C34       -1.9991    1.8595   16.4089 C.ar      2 RES2    0.0000
     75 C35       -3.0569    2.4459   17.0805 C.ar      2 RES2    0.0000
     76 H33       -2.8954    2.9147   17.8665 H         2 RES2    0.0000
     77 C36       -4.3399    2.3472   16.6053 C.ar      2 RES2    0.0000
     78 H34       -5.0487    2.7229   17.0757 H         2 RES2    0.0000
     79 C37       -4.5564    1.6898   15.4348 C.ar      2 RES2    0.0000
     80 C38       -3.5440    1.1286   14.7170 C.ar      2 RES2    0.0000
     81 H35       -3.7141    0.7032   13.9074 H         2 RES2    0.0000
     82 C39       -2.2561    1.2044   15.2189 C.ar      2 RES2    0.0000
     83 H36       -1.5567    0.8106   14.7489 H         2 RES2    0.0000
     84 C40        1.6836    0.2005   13.6205 C.2       2 RES2    0.0000
     85 H37        2.5553    0.1610   13.9429 H         2 RES2    0.0000
     86 C41        1.4664    0.7411   12.2848 C.ar      2 RES2    0.0000
     87 C42        2.5137    1.1791   11.5378 C.ar      2 RES2    0.0000
     88 H38        3.3686    1.1484   11.9026 H         2 RES2    0.0000
     89 C43        2.3476    1.6772   10.2297 C.ar      2 RES2    0.0000
     90 C44        3.4103    2.1326    9.4326 C.ar      2 RES2    0.0000
     91 H39        4.2729    2.1207    9.7811 H         2 RES2    0.0000
     92 C45        3.2169    2.5848    8.1767 C.ar      2 RES2    0.0000
     93 H40        3.9373    2.8965    7.6774 H         2 RES2    0.0000
     94 C46        1.9380    2.5848    7.6292 C.ar      2 RES2    0.0000
     95 H41        1.8103    2.8808    6.7573 H         2 RES2    0.0000
     96 C47        0.8776    2.1578    8.3508 C.ar      2 RES2    0.0000
     97 H42        0.0294    2.1649    7.9688 H         2 RES2    0.0000
     98 C48        1.0417    1.7024    9.6754 C.ar      2 RES2    0.0000
     99 C49       -0.0275    1.2454   10.4599 C.ar      2 RES2    0.0000
    100 H43       -0.8883    1.2549   10.1055 H         2 RES2    0.0000
    101 C50        0.1669    0.7900   11.7261 C.ar      2 RES2    0.0000
    102 H44       -0.5609    0.5067   12.2295 H         2 RES2    0.0000
    103 N3         0.7560   -0.2147   14.3561 N.2       2 RES2    0.0000
    104 N4        -5.9392    1.5982   14.9033 N.pl3     2 RES2    0.0000
    105 O7         1.9441   -2.8239   14.7061 O.3       2 RES2    0.0000
    106 O8         0.1089   -2.9920   15.8692 O.2       2 RES2    0.0000
    107 O9         2.4176    0.6346   18.1032 O.2       2 RES2    0.0000
    108 O10        1.8046    2.7884   17.7788 O.3       2 RES2    0.0000
    109 O11       -6.8469    2.0157   15.5887 O.2       2 RES2    0.0000
    110 O12       -6.1038    1.1128   13.8106 O.2       2 RES2    0.0000
@<TRIPOS>BOND
     1    1    2 1
     2    2    3 1
     3    4    2 1
     4    5    4 1
     5    6    4 1
     6    7    4 1
     7    8    7 2
     8    9    8 1
     9   10    7 1
    10   11   12 1
    11   13   11 1
    12   14   11 1
    13   15   16 1
    14   17   15 1
    15   18   15 1
    16   19    8 1
    17   20   19 ar
    18   21   20 1
    19   22   20 ar
    20   23   22 1
    21   24   22 ar
    22   25   24 ar
    23   26   25 1
    24   27   19 ar
    25   28   27 1
    26   29   30 1
    27   31   29 1
    28   32   31 ar
    29   33   32 1
    30   34   32 ar
    31   35   34 ar
    32   36   35 1
    33   37   35 ar
    34   38   37 1
    35   39   37 ar
    36   40   39 1
    37   41   39 ar
    38   42   41 1
    39   43   34 ar
    40   44   43 ar
    41   45   44 1
    42   46   31 ar
    43   47   46 1
    44   48    2 1
    45   49   24 1
    46   50    1 2
    47   51    1 1
    48   52   10 2
    49   53   10 1
    50   54   49 2
    51   55   49 2
    52   56   57 1
    53   57   58 1
    54   59   57 1
    55   60   59 1
    56   61   59 1
    57   62   59 1
    58   63   62 2
    59   64   63 1
    60   65   62 1
    61   66   67 1
    62   68   66 1
    63   69   66 1
    64   70   71 1
    65   72   70 1
    66   73   70 1
    67   74   63 1
    68   75   74 ar
    69   76   75 1
    70   77   75 ar
    71   78   77 1
    72   79   77 ar
    73   80   79 ar
    74   81   80 1
    75   82   74 ar
    76   83   82 1
    77   84   85 1
    78   86   84 1
    79   87   86 ar
    80   88   87 1
    81   89   87 ar
    82   90   89 ar
    83   91   90 1
    84   92   90 ar
    85   93   92 1
    86   94   92 ar
    87   95   94 1
    88   96   94 ar
    89   97   96 1
    90   98   89 ar
    91   99   98 ar
    92  100   99 1
    93  101   86 ar
    94  102  101 1
    95  103   57 1
    96  104   79 1
    97  105   56 1
    98  106   56 2
    99  107   65 2
   100  108   65 1
   101  109  104 2
   102  110  104 2
   103   11   51 1
   104   15   53 1
   105   25   27 ar
   106   29   48 2
   107   41   43 ar
   108   44   46 ar
   109   66  105 1
   110   70  108 1
   111   80   82 ar
   112   84  103 2
   113   96   98 ar
   114   99  101 ar
@<TRIPOS>SUBSTRUCTURE
     1 RES1 1
     2 RES2 56

@<TRIPOS>CRYSIN
  11.5902    7.8925   25.5340  90.0000  96.9540  90.0000   4 1

