# MOL2 file generated by ConQuest
# Please check atom types

@<TRIPOS>MOLECULE
DEBTEL
   112   118     2
SMALL
NO_CHARGES
****
Generated from CSD

@<TRIPOS>ATOM
      1 O1        -1.6114   21.9078    2.4280 O.3       1 RES1    0.0000
      2 O2        -3.0550   22.3814    0.7667 O.3       1 RES1    0.0000
      3 O3        -2.2831   19.4624    0.6474 O.3       1 RES1    0.0000
      4 O4        -1.7536   20.7783   -2.6426 O.3       1 RES1    0.0000
      5 O5        -0.5843   16.4817   -2.0365 O.3       1 RES1    0.0000
      6 O6         0.5931   18.4032    4.1394 O.3       1 RES1    0.0000
      7 O7        -0.9796   17.7744    2.6320 O.3       1 RES1    0.0000
      8 O8         0.6848   18.2019   -1.3573 O.2       1 RES1    0.0000
      9 N1        -1.4741   19.9566   -1.4766 N.3       1 RES1    0.0000
     10 C1        -2.4366   20.3591   -0.4281 C.3       1 RES1    0.0000
     11 H1        -3.3539   20.2989   -0.6638 H         1 RES1    0.0000
     12 C2        -1.9736   21.7062    0.1106 C.3       1 RES1    0.0000
     13 H2        -1.5958   22.1917   -0.6157 H         1 RES1    0.0000
     14 C3        -1.0077   21.3425    1.2496 C.3       1 RES1    0.0000
     15 H3        -0.1290   21.6188    1.1832 H         1 RES1    0.0000
     16 C4        -2.5124   22.9195    1.9692 C.3       1 RES1    0.0000
     17 C5        -1.0546   19.8058    1.3102 C.3       1 RES1    0.0000
     18 H4        -0.2775   19.4613    0.7984 H         1 RES1    0.0000
     19 C6        -2.6405   20.0175   -3.4814 C.3       1 RES1    0.0000
     20 H5        -2.5580   20.4367   -4.3866 H         1 RES1    0.0000
     21 H6        -3.5367   20.0777   -3.0976 H         1 RES1    0.0000
     22 C7        -2.0758   18.6182   -3.3862 C.3       1 RES1    0.0000
     23 H7        -1.2853   18.5475   -3.9537 H         1 RES1    0.0000
     24 H8        -2.7590   17.9855   -3.5882 H         1 RES1    0.0000
     25 C8        -1.6563   18.5569   -1.9086 C.3       1 RES1    0.0000
     26 H9        -2.3468   18.1378   -1.3660 H         1 RES1    0.0000
     27 C9        -0.3713   17.7835   -1.7142 C.2       1 RES1    0.0000
     28 C10        0.5723   15.6147   -1.9066 C.3       1 RES1    0.0000
     29 H10        1.2947   15.9512   -2.5204 H         1 RES1    0.0000
     30 H11        0.8730   15.5886   -0.7984 H         1 RES1    0.0000
     31 C11        0.1465   14.2604   -2.4049 C.3       1 RES1    0.0000
     32 H12       -0.1059   14.3122   -3.5016 H         1 RES1    0.0000
     33 H13        0.8290   13.6160   -2.2606 H         1 RES1    0.0000
     34 H14       -0.7379   13.9279   -1.8855 H         1 RES1    0.0000
     35 C12       -1.7700   24.2169    1.6998 C.3       1 RES1    0.0000
     36 H15       -1.0906   24.0519    0.9716 H         1 RES1    0.0000
     37 H16       -1.2418   24.5813    2.5877 H         1 RES1    0.0000
     38 H17       -2.4240   24.9258    1.4045 H         1 RES1    0.0000
     39 C13       -3.6097   23.1015    2.9860 C.3       1 RES1    0.0000
     40 H18       -4.0673   22.2788    3.2515 H         1 RES1    0.0000
     41 H19       -3.1862   23.4174    3.8287 H         1 RES1    0.0000
     42 H20       -4.2319   23.8090    2.6454 H         1 RES1    0.0000
     43 C14       -1.0478   19.2093    2.6906 C.3       1 RES1    0.0000
     44 H21       -1.9074   19.4504    3.1841 H         1 RES1    0.0000
     45 C15        0.1903   19.6107    3.4910 C.3       1 RES1    0.0000
     46 H22        0.9531   19.9798    2.8571 H         1 RES1    0.0000
     47 H23       -0.0740   20.3315    4.1173 H         1 RES1    0.0000
     48 C16        0.2302   17.3505    3.2380 C.3       1 RES1    0.0000
     49 C17        1.2992   17.1235    2.1952 C.3       1 RES1    0.0000
     50 H24        2.2301   16.8940    2.7032 H         1 RES1    0.0000
     51 H25        1.5401   17.8622    1.7123 H         1 RES1    0.0000
     52 H26        1.0027   16.3827    1.5776 H         1 RES1    0.0000
     53 C18       -0.0387   16.1249    4.0653 C.3       1 RES1    0.0000
     54 H27       -0.6693   16.3501    4.7425 H         1 RES1    0.0000
     55 H28       -0.2527   15.3348    3.4246 H         1 RES1    0.0000
     56 H29        0.7994   15.8025    4.5694 H         1 RES1    0.0000
     57 O9         1.0039   25.2616    6.4000 O.3       2 RES2    0.0000
     58 O10       -0.4673   24.6774    7.9931 O.3       2 RES2    0.0000
     59 O11        0.3046   27.6298    8.1893 O.3       2 RES2    0.0000
     60 O12        0.4928   26.2279   11.4889 O.3       2 RES2    0.0000
     61 O13        1.1916   30.4737    9.7814 O.3       2 RES2    0.0000
     62 O14        3.3925   28.7086    4.8426 O.3       2 RES2    0.0000
     63 O15        2.0832   29.3743    6.6020 O.3       2 RES2    0.0000
     64 O16        2.7892   29.2735   10.7924 O.2       2 RES2    0.0000
     65 N2         0.8592   27.1087   10.3797 N.3       2 RES2    0.0000
     66 C19        0.5692   25.3606    8.7088 C.3       2 RES2    0.0000
     67 H30        0.9730   24.8025    9.4659 H         2 RES2    0.0000
     68 C20        1.5879   25.7507    7.6044 C.3       2 RES2    0.0000
     69 H31        2.5202   25.3537    7.7439 H         2 RES2    0.0000
     70 C21        1.5933   27.2708    7.6477 C.3       2 RES2    0.0000
     71 H32        2.2544   27.5366    8.3019 H         2 RES2    0.0000
     72 C22        0.1278   24.2039    6.7877 C.3       2 RES2    0.0000
     73 C23        0.0487   26.6950    9.2282 C.3       2 RES2    0.0000
     74 H33       -0.9221   26.7534    9.4370 H         2 RES2    0.0000
     75 C24        0.5020   28.4903   10.7963 C.3       2 RES2    0.0000
     76 H34       -0.3446   28.7622   10.3413 H         2 RES2    0.0000
     77 C25        0.2695   28.3811   12.3037 C.3       2 RES2    0.0000
     78 H35        1.1112   28.3887   12.7751 H         2 RES2    0.0000
     79 H36       -0.3431   29.0632   12.6019 H         2 RES2    0.0000
     80 C26       -0.3244   27.0014   12.3883 C.3       2 RES2    0.0000
     81 H37       -1.2406   27.0217   12.0247 H         2 RES2    0.0000
     82 H38       -0.2403   26.5285   13.2753 H         2 RES2    0.0000
     83 C27        1.6502   29.4225   10.4692 C.2       2 RES2    0.0000
     84 C28        2.1779   31.4749    9.4197 C.3       2 RES2    0.0000
     85 H39        2.5013   31.9496   10.3701 H         2 RES2    0.0000
     86 H40        2.9442   31.0721    9.0907 H         2 RES2    0.0000
     87 C29        1.5025   32.3865    8.4317 C.3       2 RES2    0.0000
     88 H41        1.2566   31.8480    7.5900 H         2 RES2    0.0000
     89 H42        2.2604   33.0882    8.0710 H         2 RES2    0.0000
     90 H43        0.7337   32.7038    8.7925 H         2 RES2    0.0000
     91 C30       -0.9328   24.0207    5.7372 C.3       2 RES2    0.0000
     92 H44       -0.4918   23.7836    4.8484 H         2 RES2    0.0000
     93 H45       -1.5943   23.3485    6.0701 H         2 RES2    0.0000
     94 H46       -1.4542   24.8315    5.5121 H         2 RES2    0.0000
     95 C31        0.9040   22.9184    7.0474 C.3       2 RES2    0.0000
     96 H47        0.2843   22.1700    7.3687 H         2 RES2    0.0000
     97 H48        1.3958   22.6015    6.2240 H         2 RES2    0.0000
     98 H49        1.6010   23.0149    7.7920 H         2 RES2    0.0000
     99 C32        1.7917   27.9924    6.3394 C.3       2 RES2    0.0000
    100 H50        0.9811   27.9717    5.7815 H         2 RES2    0.0000
    101 C33        3.0271   27.5413    5.5766 C.3       2 RES2    0.0000
    102 H51        2.7909   26.8150    4.8868 H         2 RES2    0.0000
    103 H52        3.8661   27.2719    6.1951 H         2 RES2    0.0000
    104 C34        3.0594   29.8421    5.6583 C.3       2 RES2    0.0000
    105 C35        2.4658   30.8871    4.7637 C.3       2 RES2    0.0000
    106 H53        2.2333   31.6849    5.3197 H         2 RES2    0.0000
    107 H54        1.7015   30.5934    4.3385 H         2 RES2    0.0000
    108 H55        3.1079   31.0322    4.0403 H         2 RES2    0.0000
    109 C36        4.2652   30.3298    6.4202 C.3       2 RES2    0.0000
    110 H56        4.9256   30.5463    5.7911 H         2 RES2    0.0000
    111 H57        3.9063   31.1808    6.9647 H         2 RES2    0.0000
    112 H58        4.6094   29.6252    7.0321 H         2 RES2    0.0000
@<TRIPOS>BOND
     1    1   14 1
     2    2   12 1
     3    3   10 1
     4    4    9 1
     5    5   27 1
     6    6   45 1
     7    7   43 1
     8    8   27 2
     9    9   10 1
    10   10   11 1
    11   12   10 1
    12   13   12 1
    13   14   12 1
    14   15   14 1
    15   16    1 1
    16   17    3 1
    17   18   17 1
    18   19    4 1
    19   20   19 1
    20   21   19 1
    21   22   19 1
    22   23   22 1
    23   24   22 1
    24   25    9 1
    25   26   25 1
    26   27   25 1
    27   28    5 1
    28   29   28 1
    29   30   28 1
    30   31   28 1
    31   32   31 1
    32   33   31 1
    33   34   31 1
    34   35   16 1
    35   36   35 1
    36   37   35 1
    37   38   35 1
    38   39   16 1
    39   40   39 1
    40   41   39 1
    41   42   39 1
    42   43   17 1
    43   44   43 1
    44   45   43 1
    45   46   45 1
    46   47   45 1
    47   48    6 1
    48   49   48 1
    49   50   49 1
    50   51   49 1
    51   52   49 1
    52   53   48 1
    53   54   53 1
    54   55   53 1
    55   56   53 1
    56   57   68 1
    57   58   66 1
    58   59   70 1
    59   60   65 1
    60   61   83 1
    61   62  101 1
    62   63   99 1
    63   64   83 2
    64   65   73 1
    65   66   67 1
    66   68   66 1
    67   69   68 1
    68   70   68 1
    69   71   70 1
    70   72   57 1
    71   73   59 1
    72   74   73 1
    73   75   65 1
    74   76   75 1
    75   77   75 1
    76   78   77 1
    77   79   77 1
    78   80   60 1
    79   81   80 1
    80   82   80 1
    81   83   75 1
    82   84   61 1
    83   85   84 1
    84   86   84 1
    85   87   84 1
    86   88   87 1
    87   89   87 1
    88   90   87 1
    89   91   72 1
    90   92   91 1
    91   93   91 1
    92   94   91 1
    93   95   72 1
    94   96   95 1
    95   97   95 1
    96   98   95 1
    97   99   70 1
    98  100   99 1
    99  101   99 1
   100  102  101 1
   101  103  101 1
   102  104   62 1
   103  105  104 1
   104  106  105 1
   105  107  105 1
   106  108  105 1
   107  109  104 1
   108  110  109 1
   109  111  109 1
   110  112  109 1
   111    2   16 1
   112    7   48 1
   113   14   17 1
   114   22   25 1
   115   58   72 1
   116   63  104 1
   117   66   73 1
   118   77   80 1
@<TRIPOS>SUBSTRUCTURE
     1 RES1 1
     2 RES2 57

@<TRIPOS>CRYSIN
   5.4637   36.2610    9.6230  90.0000  91.4850  90.0000   4 1

