# MOL2 file generated by ConQuest
# Please check atom types

@<TRIPOS>MOLECULE
DECDUL
   100   104     2
SMALL
NO_CHARGES
****
Generated from CSD

@<TRIPOS>ATOM
      1 O1         3.8623    3.9527   13.5144 O.2       1 RES1    0.0000
      2 N1         2.6756    4.4284   13.3961 N.pl3     1 RES1    0.0000
      3 C1         1.1768    7.1058   15.4633 C.ar      1 RES1    0.0000
      4 C2        -0.1998    6.7746   15.4278 C.ar      1 RES1    0.0000
      5 H1        -0.4627    5.9067   15.1429 H         1 RES1    0.0000
      6 C3        -1.1619    7.6809   15.7973 C.ar      1 RES1    0.0000
      7 H2        -2.0787    7.4339   15.7701 H         1 RES1    0.0000
      8 C4        -0.8012    8.9666   16.2149 C.ar      1 RES1    0.0000
      9 H3        -1.4718    9.5959   16.4548 H         1 RES1    0.0000
     10 C5         0.5244    9.3153   16.2760 C.ar      1 RES1    0.0000
     11 H4         0.7613   10.1886   16.5635 H         1 RES1    0.0000
     12 C6         1.5455    8.4055   15.9203 C.ar      1 RES1    0.0000
     13 C7         2.9484    8.7699   16.0167 C.ar      1 RES1    0.0000
     14 C8         3.3925   10.0034   16.5491 C.ar      1 RES1    0.0000
     15 H5         2.7550   10.6392   16.8539 H         1 RES1    0.0000
     16 C9         4.7305   10.2942   16.6315 C.ar      1 RES1    0.0000
     17 H6         5.0090   11.1253   16.9983 H         1 RES1    0.0000
     18 C10        5.6910    9.3790   16.1816 C.ar      1 RES1    0.0000
     19 H7         6.6161    9.5915   16.2375 H         1 RES1    0.0000
     20 C11        5.2913    8.1797   15.6607 C.ar      1 RES1    0.0000
     21 H8         5.9427    7.5648   15.3431 H         1 RES1    0.0000
     22 C12        3.9218    7.8445   15.5891 C.ar      1 RES1    0.0000
     23 C13        3.5118    6.5586   15.1169 C.ar      1 RES1    0.0000
     24 H9         4.1786    5.9489   14.8261 H         1 RES1    0.0000
     25 C14        2.2151    6.1737   15.0666 C.ar      1 RES1    0.0000
     26 C15        1.9116    4.7420   14.6250 C.3       1 RES1    0.0000
     27 H10        0.9359    4.6725   14.4193 H         1 RES1    0.0000
     28 C16        2.2555    3.7207   15.7454 C.3       1 RES1    0.0000
     29 H11        3.2348    3.7846   15.9378 H         1 RES1    0.0000
     30 C17        1.4956    4.0637   17.0243 C.3       1 RES1    0.0000
     31 H12        1.7202    3.4139   17.7218 H         1 RES1    0.0000
     32 H13        0.5323    4.0355   16.8492 H         1 RES1    0.0000
     33 H14        1.7464    4.9633   17.3228 H         1 RES1    0.0000
     34 C18        1.9474    2.2885   15.3175 C.3       1 RES1    0.0000
     35 H15        2.1758    1.6737   16.0465 H         1 RES1    0.0000
     36 H16        2.4752    2.0643   14.5234 H         1 RES1    0.0000
     37 H17        0.9934    2.2086   15.1087 H         1 RES1    0.0000
     38 C19        2.0882    4.6355   12.0478 C.3       1 RES1    0.0000
     39 C20        1.1175    3.4887   11.7670 C.3       1 RES1    0.0000
     40 H18        0.3921    3.5072   12.4257 H         1 RES1    0.0000
     41 H19        1.5936    2.6348   11.8295 H         1 RES1    0.0000
     42 H20        0.7440    3.5893   10.8669 H         1 RES1    0.0000
     43 C21        3.2179    4.6057   11.0195 C.3       1 RES1    0.0000
     44 H21        3.8410    5.3407   11.1976 H         1 RES1    0.0000
     45 H22        2.8426    4.7058   10.1201 H         1 RES1    0.0000
     46 H23        3.6937    3.7513   11.0812 H         1 RES1    0.0000
     47 C22        1.3661    5.9793   11.9804 C.3       1 RES1    0.0000
     48 H24        2.0025    6.7014   12.1633 H         1 RES1    0.0000
     49 H25        0.6497    5.9999   12.6493 H         1 RES1    0.0000
     50 H26        0.9830    6.0998   11.0858 H         1 RES1    0.0000
     51 O2        -3.1732   -3.5405    0.4954 O.2       2 RES2    0.0000
     52 N2        -1.9836   -3.0548    0.5953 N.pl3     2 RES2    0.0000
     53 C23       -3.0750   -1.2628    2.5546 C.ar      2 RES2    0.0000
     54 H27       -3.6758   -1.7558    2.0091 H         2 RES2    0.0000
     55 C24       -3.5707   -0.1168    3.2528 C.ar      2 RES2    0.0000
     56 C25       -4.9305    0.2522    3.1542 C.ar      2 RES2    0.0000
     57 H28       -5.5098   -0.2397    2.5851 H         2 RES2    0.0000
     58 C26       -5.4247    1.3145    3.8704 C.ar      2 RES2    0.0000
     59 H29       -6.3401    1.5583    3.7962 H         2 RES2    0.0000
     60 C27       -4.5679    2.0348    4.7099 C.ar      2 RES2    0.0000
     61 H30       -4.9126    2.7547    5.2246 H         2 RES2    0.0000
     62 C28       -3.2358    1.7139    4.8001 C.ar      2 RES2    0.0000
     63 H31       -2.6687    2.2264    5.3644 H         2 RES2    0.0000
     64 C29       -2.6930    0.6353    4.0673 C.ar      2 RES2    0.0000
     65 C30       -1.2887    0.2535    4.1243 C.ar      2 RES2    0.0000
     66 C31       -0.3535    0.9938    4.8773 C.ar      2 RES2    0.0000
     67 H32       -0.6476    1.7602    5.3550 H         2 RES2    0.0000
     68 C32        0.9697    0.6342    4.9378 C.ar      2 RES2    0.0000
     69 H33        1.5798    1.1476    5.4544 H         2 RES2    0.0000
     70 C33        1.4184   -0.4919    4.2378 C.ar      2 RES2    0.0000
     71 H34        2.3353   -0.7392    4.2760 H         2 RES2    0.0000
     72 C34        0.5360   -1.2435    3.4944 C.ar      2 RES2    0.0000
     73 H35        0.8531   -2.0066    3.0261 H         2 RES2    0.0000
     74 C35       -0.8375   -0.9010    3.4153 C.ar      2 RES2    0.0000
     75 C36       -1.7853   -1.6766    2.6373 C.ar      2 RES2    0.0000
     76 C37       -1.3699   -2.9727    1.9383 C.3       2 RES2    0.0000
     77 H36       -0.3772   -2.9567    1.8228 H         2 RES2    0.0000
     78 C38       -1.7340   -4.2408    2.7379 C.3       2 RES2    0.0000
     79 H37       -2.7296   -4.3329    2.7435 H         2 RES2    0.0000
     80 C39       -1.2540   -4.1580    4.1764 C.3       2 RES2    0.0000
     81 H38       -1.5022   -4.9789    4.6517 H         2 RES2    0.0000
     82 H39       -1.6702   -3.3873    4.6160 H         2 RES2    0.0000
     83 H40       -0.2795   -4.0554    4.1906 H         2 RES2    0.0000
     84 C40       -1.1405   -5.4719    2.0509 C.3       2 RES2    0.0000
     85 H41       -1.3740   -6.2752    2.5618 H         2 RES2    0.0000
     86 H42       -0.1649   -5.3828    2.0076 H         2 RES2    0.0000
     87 H43       -1.5021   -5.5449    1.1427 H         2 RES2    0.0000
     88 C41       -1.4508   -2.3509   -0.6124 C.3       2 RES2    0.0000
     89 C42       -1.5112   -3.3365   -1.7685 C.3       2 RES2    0.0000
     90 H44       -0.9381   -4.1065   -1.5713 H         2 RES2    0.0000
     91 H45       -1.1983   -2.8990   -2.5882 H         2 RES2    0.0000
     92 H46       -2.4348   -3.6404   -1.8911 H         2 RES2    0.0000
     93 C43       -0.0123   -1.9003   -0.3788 C.3       2 RES2    0.0000
     94 H47        0.5500   -2.6814   -0.1987 H         2 RES2    0.0000
     95 H48        0.0191   -1.2919    0.3882 H         2 RES2    0.0000
     96 H49        0.3182   -1.4362   -1.1769 H         2 RES2    0.0000
     97 C44       -2.3365   -1.1403   -0.8948 C.3       2 RES2    0.0000
     98 H50       -3.2589   -1.4384   -1.0434 H         2 RES2    0.0000
     99 H51       -2.0099   -0.6770   -1.6939 H         2 RES2    0.0000
    100 H52       -2.3101   -0.5305   -0.1289 H         2 RES2    0.0000
@<TRIPOS>BOND
     1    1    2 2
     2    2   26 1
     3    3    4 ar
     4    4    5 1
     5    6    4 ar
     6    7    6 1
     7    8    6 ar
     8    9    8 1
     9   10    8 ar
    10   11   10 1
    11   12    3 ar
    12   13   12 ar
    13   14   13 ar
    14   15   14 1
    15   16   14 ar
    16   17   16 1
    17   18   16 ar
    18   19   18 1
    19   20   18 ar
    20   21   20 1
    21   22   13 ar
    22   23   22 ar
    23   24   23 1
    24   25    3 ar
    25   26   25 1
    26   27   26 1
    27   28   26 1
    28   29   28 1
    29   30   28 1
    30   31   30 1
    31   32   30 1
    32   33   30 1
    33   34   28 1
    34   35   34 1
    35   36   34 1
    36   37   34 1
    37   38    2 1
    38   39   38 1
    39   40   39 1
    40   41   39 1
    41   42   39 1
    42   43   38 1
    43   44   43 1
    44   45   43 1
    45   46   43 1
    46   47   38 1
    47   48   47 1
    48   49   47 1
    49   50   47 1
    50   51   52 2
    51   52   76 1
    52   53   54 1
    53   55   53 ar
    54   56   55 ar
    55   57   56 1
    56   58   56 ar
    57   59   58 1
    58   60   58 ar
    59   61   60 1
    60   62   60 ar
    61   63   62 1
    62   64   55 ar
    63   65   64 ar
    64   66   65 ar
    65   67   66 1
    66   68   66 ar
    67   69   68 1
    68   70   68 ar
    69   71   70 1
    70   72   70 ar
    71   73   72 1
    72   74   65 ar
    73   75   53 ar
    74   76   75 1
    75   77   76 1
    76   78   76 1
    77   79   78 1
    78   80   78 1
    79   81   80 1
    80   82   80 1
    81   83   80 1
    82   84   78 1
    83   85   84 1
    84   86   84 1
    85   87   84 1
    86   88   52 1
    87   89   88 1
    88   90   89 1
    89   91   89 1
    90   92   89 1
    91   93   88 1
    92   94   93 1
    93   95   93 1
    94   96   93 1
    95   97   88 1
    96   98   97 1
    97   99   97 1
    98  100   97 1
    99   10   12 ar
   100   20   22 ar
   101   23   25 ar
   102   62   64 ar
   103   72   74 ar
   104   74   75 ar
@<TRIPOS>SUBSTRUCTURE
     1 RES1 1
     2 RES2 51

@<TRIPOS>CRYSIN
  10.5010   22.1973   16.1856  90.0000 106.4090  90.0000 231 1

