# MOL2 file generated by ConQuest
# Please check atom types

@<TRIPOS>MOLECULE
DECKIF
    44    46     1
SMALL
NO_CHARGES
****
Generated from CSD

@<TRIPOS>ATOM
      1 O1         3.7051    1.9129   -0.1266 O.3       1 RES1    0.0000
      2 N1         4.8429    2.4529   -0.7887 N.2       1 RES1    0.0000
      3 C1         8.3454    1.8467   -0.2695 C.ar      1 RES1    0.0000
      4 C2         9.6371    2.1936   -0.7324 C.ar      1 RES1    0.0000
      5 C3         7.2104    2.2384   -0.9199 C.ar      1 RES1    0.0000
      6 C4         7.3319    2.9960   -2.1129 C.ar      1 RES1    0.0000
      7 C5         8.5574    3.3527   -2.5770 C.ar      1 RES1    0.0000
      8 C6         9.7452    2.9701   -1.9102 C.ar      1 RES1    0.0000
      9 C7        11.0338    3.3314   -2.3684 C.ar      1 RES1    0.0000
     10 C8        12.1488    2.9420   -1.7063 C.ar      1 RES1    0.0000
     11 C9        12.0376    2.1814   -0.5438 C.ar      1 RES1    0.0000
     12 C10       10.8147    1.8133   -0.0621 C.ar      1 RES1    0.0000
     13 C11        5.9026    1.9000   -0.3598 C.2       1 RES1    0.0000
     14 C12        2.6009    2.8469   -0.2379 C.3       1 RES1    0.0000
     15 C13        1.3385    2.0247   -0.1723 C.3       1 RES1    0.0000
     16 C14        1.1583    1.0367   -1.3055 C.3       1 RES1    0.0000
     17 C15        0.9524    1.6840   -2.6520 C.3       1 RES1    0.0000
     18 C16        2.7009    3.8973    0.8508 C.ar      1 RES1    0.0000
     19 C17        2.7799    3.5421    2.1879 C.ar      1 RES1    0.0000
     20 C18        2.8607    4.4967    3.1794 C.ar      1 RES1    0.0000
     21 C19        2.8848    5.8414    2.8407 C.ar      1 RES1    0.0000
     22 C20        2.8124    6.2027    1.5200 C.ar      1 RES1    0.0000
     23 C21        2.7128    5.2481    0.5227 C.ar      1 RES1    0.0000
     24 H1         8.2643    1.3242    0.5192 H         1 RES1    0.0000
     25 H2         6.5519    3.2546   -2.5887 H         1 RES1    0.0000
     26 H3         8.6175    3.8730   -3.3704 H         1 RES1    0.0000
     27 H4        11.1201    3.8562   -3.1559 H         1 RES1    0.0000
     28 H5        13.0065    3.1869   -2.0332 H         1 RES1    0.0000
     29 H6        12.8228    1.9167   -0.0797 H         1 RES1    0.0000
     30 H7        10.7579    1.2953    0.7324 H         1 RES1    0.0000
     31 H8         5.8458    1.2565    0.3352 H         1 RES1    0.0000
     32 H9         2.6446    3.2759   -1.0852 H         1 RES1    0.0000
     33 H10        0.5980    2.6210   -0.1793 H         1 RES1    0.0000
     34 H11        1.3458    1.5395    0.6445 H         1 RES1    0.0000
     35 H12        0.3993    0.4974   -1.1133 H         1 RES1    0.0000
     36 H13        1.9338    0.4898   -1.3512 H         1 RES1    0.0000
     37 H14        0.8735    1.0108   -3.3188 H         1 RES1    0.0000
     38 H15        1.6951    2.2415   -2.8524 H         1 RES1    0.0000
     39 H16        0.1588    2.2073   -2.6344 H         1 RES1    0.0000
     40 H17        2.7780    2.6225    2.4270 H         1 RES1    0.0000
     41 H18        2.9009    4.2343    4.0911 H         1 RES1    0.0000
     42 H19        2.9499    6.5054    3.5169 H         1 RES1    0.0000
     43 H20        2.8293    7.1238    1.2867 H         1 RES1    0.0000
     44 H21        2.6532    5.5159   -0.3856 H         1 RES1    0.0000
@<TRIPOS>BOND
     1    1    2 1
     2    2   13 2
     3    3    4 ar
     4    4    8 ar
     5    5    3 ar
     6    6    5 ar
     7    7    6 ar
     8    8    7 ar
     9    9    8 ar
    10   10    9 ar
    11   11   10 ar
    12   12    4 ar
    13   13    5 1
    14   14    1 1
    15   15   14 1
    16   16   15 1
    17   17   16 1
    18   18   14 1
    19   19   18 ar
    20   20   19 ar
    21   21   20 ar
    22   22   21 ar
    23   23   18 ar
    24   24    3 1
    25   25    6 1
    26   26    7 1
    27   27    9 1
    28   28   10 1
    29   29   11 1
    30   30   12 1
    31   31   13 1
    32   32   14 1
    33   33   15 1
    34   34   15 1
    35   35   16 1
    36   36   16 1
    37   37   17 1
    38   38   17 1
    39   39   17 1
    40   40   19 1
    41   41   20 1
    42   42   21 1
    43   43   22 1
    44   44   23 1
    45   11   12 ar
    46   22   23 ar
@<TRIPOS>SUBSTRUCTURE
     1 RES1 1

@<TRIPOS>CRYSIN
  18.5140    7.6060   12.1660  90.0000 105.5800  90.0000  14 1

