# MOL2 file generated by ConQuest
# Please check atom types

@<TRIPOS>MOLECULE
DECLEF
    21    22     1
SMALL
NO_CHARGES
****
Generated from CSD

@<TRIPOS>ATOM
      1 N1         1.4517    6.2929   -0.4408 N.2       1 RES1    0.0000
      2 N2         1.8679    6.0032    0.7211 N.pl3     1 RES1    0.0000
      3 O1         1.6932    4.9677    1.3787 O.2       1 RES1    0.0000
      4 N3         3.1088    6.9390    2.5479 N.2       1 RES1    0.0000
      5 N4        -0.4476    4.6413   -2.7435 N.2       1 RES1    0.0000
      6 N5         0.3634    4.0868   -0.7595 N.2       1 RES1    0.0000
      7 N6         2.9026    8.2371    0.7572 N.2       1 RES1    0.0000
      8 C1         2.6337    7.0605    1.3305 C.2       1 RES1    0.0000
      9 N7        -0.3353    3.7140   -1.8195 N.3       1 RES1    0.0000
     10 N8         0.2094    5.6936   -2.3062 N.2       1 RES1    0.0000
     11 C2         0.6934    5.3277   -1.1021 C.2       1 RES1    0.0000
     12 N9         3.6836    8.1230    2.7054 N.pl3     1 RES1    0.0000
     13 N10        3.5862    8.9178    1.6619 N.2       1 RES1    0.0000
     14 C3        -0.9463    2.3933   -1.9426 C.3       1 RES1    0.0000
     15 H1        -1.3527    2.3082   -2.8084 H         1 RES1    0.0000
     16 H2        -1.6157    2.2863   -1.2634 H         1 RES1    0.0000
     17 H3        -0.2722    1.7185   -1.8380 H         1 RES1    0.0000
     18 C4         4.3416    8.5299    3.9401 C.3       1 RES1    0.0000
     19 H4         4.8589    9.3221    3.7815 H         1 RES1    0.0000
     20 H5         4.9193    7.8258    4.2427 H         1 RES1    0.0000
     21 H6         3.6785    8.7104    4.6115 H         1 RES1    0.0000
@<TRIPOS>BOND
     1    1    2 2
     2    2    3 1
     3    4    8 2
     4    5    9 1
     5    6    9 1
     6    7    8 1
     7    8    2 1
     8    9   14 1
     9   10    5 2
    10   11    1 1
    11   12    4 1
    12   13    7 2
    13   14   15 1
    14   16   14 1
    15   17   14 1
    16   18   12 1
    17   19   18 1
    18   20   18 1
    19   21   18 1
    20    6   11 2
    21   10   11 1
    22   12   13 1
@<TRIPOS>SUBSTRUCTURE
     1 RES1 1

@<TRIPOS>CRYSIN
   7.5607   13.7150    8.9269  90.0000 102.3880  90.0000  14 1

