# MOL2 file generated by ConQuest
# Please check atom types

@<TRIPOS>MOLECULE
DECNPH
    38    42     1
SMALL
NO_CHARGES
****
Generated from CSD

@<TRIPOS>ATOM
      1 C1        -5.0458   -4.2641   -4.4324 C.ar      1 RES1    0.0000
      2 C2        -5.4432    3.4427   -1.2864 C.3       1 RES1    0.0000
      3 C3        -4.5367    2.2220   -1.7244 C.3       1 RES1    0.0000
      4 C4        -3.5510    2.2461   -0.5515 C.3       1 RES1    0.0000
      5 C5        -4.5499    2.0262    0.6555 C.3       1 RES1    0.0000
      6 C6        -4.7875    3.4821    1.1303 C.3       1 RES1    0.0000
      7 C7        -3.1723    3.7232   -0.5363 C.3       1 RES1    0.0000
      8 C8        -4.5683    4.1936   -0.2081 C.3       1 RES1    0.0000
      9 C9        -4.3443   -3.3399   -5.1494 C.ar      1 RES1    0.0000
     10 C10       -5.7852   -3.9029   -3.3012 C.ar      1 RES1    0.0000
     11 C11       -5.0481   -1.6059   -3.5736 C.ar      1 RES1    0.0000
     12 C12       -4.3545   -2.0143   -4.7512 C.ar      1 RES1    0.0000
     13 C13       -5.7758   -2.6110   -2.8878 C.ar      1 RES1    0.0000
     14 C14       -5.3579    1.0314   -1.3347 C.2       1 RES1    0.0000
     15 C15       -6.6151    2.7553   -0.5685 C.3       1 RES1    0.0000
     16 C16       -5.8705    1.5230   -0.0123 C.3       1 RES1    0.0000
     17 H1        -4.5841    0.2601   -3.4960 H         1 RES1    0.0000
     18 H2        -5.7519    4.0119   -1.9807 H         1 RES1    0.0000
     19 H3        -4.1915    2.3371   -2.6769 H         1 RES1    0.0000
     20 H4        -4.2969    1.3527    1.2855 H         1 RES1    0.0000
     21 H5        -5.7700    3.6434    1.4529 H         1 RES1    0.0000
     22 H6        -2.9629    4.1077   -1.5456 H         1 RES1    0.0000
     23 H7        -2.4522    3.9104    0.2771 H         1 RES1    0.0000
     24 H8        -4.6795    5.1673   -0.2989 H         1 RES1    0.0000
     25 H9        -3.8971   -3.5291   -5.8901 H         1 RES1    0.0000
     26 H10       -6.3646   -4.5928   -2.8405 H         1 RES1    0.0000
     27 H11       -6.3108   -2.3850   -2.1651 H         1 RES1    0.0000
     28 H12       -7.3950    2.4055   -1.1843 H         1 RES1    0.0000
     29 H13       -7.0209    3.3245    0.1069 H         1 RES1    0.0000
     30 H14       -6.4850    0.9318    0.5250 H         1 RES1    0.0000
     31 N1        -5.0042   -5.6615   -4.8411 N.pl3     1 RES1    0.0000
     32 N2        -3.6333   -1.0777   -5.5902 N.pl3     1 RES1    0.0000
     33 N3        -5.0199   -0.3468   -3.0912 N.pl3     1 RES1    0.0000
     34 N4        -5.6028   -0.1064   -1.8426 N.2       1 RES1    0.0000
     35 O1        -5.5745   -6.4872   -4.1345 O.2       1 RES1    0.0000
     36 O2        -4.4083   -5.9419   -5.8721 O.2       1 RES1    0.0000
     37 O3        -2.9981   -1.5017   -6.5465 O.2       1 RES1    0.0000
     38 O4        -3.6723    0.1217   -5.3150 O.2       1 RES1    0.0000
@<TRIPOS>BOND
     1    1    9 ar
     2    2    3 1
     3    3    4 1
     4    4    5 1
     5    5    6 1
     6    6    8 1
     7    7    4 1
     8    8    2 1
     9    9   12 ar
    10   10    1 ar
    11   11   12 ar
    12   12   32 1
    13   13   10 ar
    14   14    3 1
    15   15    2 1
    16   16    5 1
    17   17   33 1
    18   18    2 1
    19   19    3 1
    20   20    5 1
    21   21    6 1
    22   22    7 1
    23   23    7 1
    24   24    8 1
    25   25    9 1
    26   26   10 1
    27   27   13 1
    28   28   15 1
    29   29   15 1
    30   30   16 1
    31   31    1 1
    32   32   37 2
    33   33   11 1
    34   34   14 2
    35   35   31 2
    36   36   31 2
    37   38   32 2
    38    7    8 1
    39   11   13 ar
    40   14   16 1
    41   15   16 1
    42   33   34 1
@<TRIPOS>SUBSTRUCTURE
     1 RES1 1

@<TRIPOS>CRYSIN
   7.1600   11.0660   10.6120  81.7700  63.3800  80.3300   2 1

