# MOL2 file generated by ConQuest
# Please check atom types

@<TRIPOS>MOLECULE
DEDNUX
    34    34     2
SMALL
NO_CHARGES
****
Generated from CSD

@<TRIPOS>ATOM
      1 N1        -4.6995    2.1492   11.1762 N.3       1 RES1    0.0000
      2 N2        -5.3444    1.0815   11.6997 N.2       1 RES1    0.0000
      3 C1        -4.5897    0.1017   11.2440 C.2       1 RES1    0.0000
      4 N3        -3.5284    0.4232   10.4822 N.2       1 RES1    0.0000
      5 C2        -3.6412    1.7404   10.4572 C.2       1 RES1    0.0000
      6 H1        -3.0731    2.3135   10.0388 H         1 RES1    0.0000
      7 C3        -5.2313    3.5013   11.3266 C.3       1 RES1    0.0000
      8 H2        -4.5641    4.1099   10.9875 H         1 RES1    0.0000
      9 H3        -5.3616    3.6681   12.2617 H         1 RES1    0.0000
     10 C4        -6.5389    3.6650   10.5724 C.3       1 RES1    0.0000
     11 H4        -7.2183    3.0930   10.9928 H         1 RES1    0.0000
     12 H5        -6.8045    4.5871   10.6112 H         1 RES1    0.0000
     13 N4        -4.9203   -1.2751   11.5433 N.pl3     1 RES1    0.0000
     14 O1        -6.4260    3.2367    9.2211 O.3       1 RES1    0.0000
     15 H6        -5.8692    3.7937    8.8460 H         1 RES1    0.0000
     16 O2        -5.9492   -1.4922   12.1558 O.2       1 RES1    0.0000
     17 O3        -4.1376   -2.1376   11.1617 O.2       1 RES1    0.0000
     18 N5        -1.5286    2.6496   12.8795 N.3       2 RES2    0.0000
     19 N6        -2.1768    1.5452   13.3212 N.2       2 RES2    0.0000
     20 C5        -1.4243    0.6021   12.7961 C.2       2 RES2    0.0000
     21 N7        -0.3621    0.9812   12.0591 N.2       2 RES2    0.0000
     22 N8        -1.7210   -0.7947   13.0296 N.pl3     2 RES2    0.0000
     23 C6        -0.4639    2.3026   12.1438 C.2       2 RES2    0.0000
     24 H7         0.0933    2.9362   11.7466 H         2 RES2    0.0000
     25 C7        -1.9317    3.9832   13.3314 C.3       2 RES2    0.0000
     26 H8        -1.3589    4.5889   12.8541 H         2 RES2    0.0000
     27 H9        -2.8556    4.1575   13.0902 H         2 RES2    0.0000
     28 C8        -1.7750    4.1114   14.8382 C.3       2 RES2    0.0000
     29 H10       -1.9960    5.0375   15.0822 H         2 RES2    0.0000
     30 H11       -2.3883    3.5018   15.3131 H         2 RES2    0.0000
     31 O4        -0.4406    3.8416   15.2514 O.3       2 RES2    0.0000
     32 H12       -0.4026    3.0142   15.4211 H         2 RES2    0.0000
     33 O5        -2.6781   -1.0649   13.7355 O.2       2 RES2    0.0000
     34 O6        -0.9840   -1.6187   12.4981 O.2       2 RES2    0.0000
@<TRIPOS>BOND
     1    1    2 1
     2    2    3 2
     3    3    4 1
     4    4    5 2
     5    5    1 1
     6    6    5 1
     7    7    1 1
     8    8    7 1
     9    9    7 1
    10   10    7 1
    11   11   10 1
    12   12   10 1
    13   13    3 1
    14   14   10 1
    15   15   14 1
    16   16   13 2
    17   17   13 2
    18   18   19 1
    19   19   20 2
    20   20   21 1
    21   21   23 2
    22   22   20 1
    23   23   18 1
    24   24   23 1
    25   25   18 1
    26   26   25 1
    27   27   25 1
    28   28   25 1
    29   29   28 1
    30   30   28 1
    31   31   28 1
    32   32   31 1
    33   33   22 2
    34   34   22 2
@<TRIPOS>SUBSTRUCTURE
     1 RES1 1
     2 RES2 18

@<TRIPOS>CRYSIN
  23.0608    8.6615   17.3423  90.0000 129.7040  90.0000  15 1

