# MOL2 file generated by ConQuest
# Please check atom types

@<TRIPOS>MOLECULE
DEDWEO
    34    37     1
SMALL
USER_CHARGES
****
Generated from CSD

@<TRIPOS>ATOM
      1 C1         4.5062    3.4439    3.9829 C.ar      1 RES1    0.0000
      2 C2         5.3471    4.2380    4.7540 C.ar      1 RES1    0.0000
      3 C3         6.2865    3.6483    5.5727 C.ar      1 RES1    0.0000
      4 C4         6.3857    2.2623    5.6478 C.ar      1 RES1    0.0000
      5 C5         5.5551    1.4565    4.9054 C.ar      1 RES1    0.0000
      6 C6         4.6160    2.0344    4.0768 C.ar      1 RES1    0.0000
      7 C7         3.6340    1.4307    3.1775 C.ar      1 RES1    0.0000
      8 C8         3.3481    0.0916    2.9366 C.ar      1 RES1    0.0000
      9 C9         2.3318   -0.2114    2.0461 C.ar      1 RES1    0.0000
     10 C10        1.6247    0.7870    1.4197 C.ar      1 RES1    0.0000
     11 C11        1.9238    2.1425    1.6506 C.ar      1 RES1    0.0000
     12 C12        2.9222    2.4385    2.5256 C.ar      1 RES1    0.0000
     13 C13        3.4562    3.7258    3.0029 C.2       1 RES1    0.0000
     14 C14        3.5645    6.1479    3.0880 C.ar      1 RES1    0.0000
     15 C15        2.9559    6.7281    4.1718 C.ar      1 RES1    0.0000
     16 C16        3.4069    7.9544    4.6137 C.ar      1 RES1    0.0000
     17 C17        4.4655    8.5769    3.9663 C.ar      1 RES1    0.0000
     18 C18        5.0519    7.9802    2.8847 C.ar      1 RES1    0.0000
     19 C19        4.6251    6.7469    2.4240 C.ar      1 RES1    0.0000
     20 N1         3.0518    4.8910    2.5565 N.pl3     1 RES1    1.0000
     21 O1         2.1624    5.0273    1.6384 O.2       1 RES1   -1.0000
     22 H1         5.2641    5.2458    4.7154 H         1 RES1    0.0000
     23 H2         6.9144    4.2380    6.1174 H         1 RES1    0.0000
     24 H3         7.0729    1.8277    6.2809 H         1 RES1    0.0000
     25 H4         5.6171    0.4510    4.9651 H         1 RES1    0.0000
     26 H5         3.8893   -0.6413    3.3951 H         1 RES1    0.0000
     27 H6         2.0835   -1.1769    1.8671 H         1 RES1    0.0000
     28 H7         0.8930    0.5309    0.7513 H         1 RES1    0.0000
     29 H8         1.3534    2.8778    1.1899 H         1 RES1    0.0000
     30 H9         2.2031    6.2371    4.6557 H         1 RES1    0.0000
     31 H10        2.9604    8.4195    5.4114 H         1 RES1    0.0000
     32 H11        4.8045    9.4696    4.3121 H         1 RES1    0.0000
     33 H12        5.8158    8.4665    2.4085 H         1 RES1    0.0000
     34 H13        5.0588    6.2912    1.6053 H         1 RES1    0.0000
@<TRIPOS>BOND
     1    1    2 ar
     2    2    3 ar
     3    3    4 ar
     4    4    5 ar
     5    5    6 ar
     6    6    1 ar
     7    7    6 1
     8    8    7 ar
     9    9    8 ar
    10   10    9 ar
    11   11   10 ar
    12   12    7 ar
    13   13    1 1
    14   14   15 ar
    15   15   16 ar
    16   16   17 ar
    17   17   18 ar
    18   18   19 ar
    19   19   14 ar
    20   20   13 2
    21   21   20 1
    22   22    2 1
    23   23    3 1
    24   24    4 1
    25   25    5 1
    26   26    8 1
    27   27    9 1
    28   28   10 1
    29   29   11 1
    30   30   15 1
    31   31   16 1
    32   32   17 1
    33   33   18 1
    34   34   19 1
    35   11   12 ar
    36   12   13 1
    37   14   20 1
@<TRIPOS>SUBSTRUCTURE
     1 RES1 1

@<TRIPOS>CRYSIN
   5.2050   23.4920   11.2320  90.0000 100.3800  90.0000  14 1

