# MOL2 file generated by ConQuest
# Please check atom types

@<TRIPOS>MOLECULE
DEDYIX
   102   108     2
SMALL
NO_CHARGES
****
Generated from CSD

@<TRIPOS>ATOM
      1 O1         1.5374   10.4305    8.4879 O.2       1 RES1    0.0000
      2 O2         1.7504    6.8430    9.5199 O.3       1 RES1    0.0000
      3 O3         2.1402    8.6386   10.7111 O.2       1 RES1    0.0000
      4 N1         3.6914    9.8585    8.7661 N.am      1 RES1    0.0000
      5 H1         4.5136   10.1332    8.9198 H         1 RES1    0.0000
      6 O4         3.9638    8.3948    3.8668 O.2       1 RES1    0.0000
      7 N2         3.4414    8.8062    4.8888 N.pl3     1 RES1    0.0000
      8 O5         2.5134    9.5870    4.9169 O.2       1 RES1    0.0000
      9 C1         2.7135   10.7754    8.6269 C.2       1 RES1    0.0000
     10 C2         2.3428    6.7012    7.1686 C.ar      1 RES1    0.0000
     11 C3         3.0932   12.2315    8.6206 C.ar      1 RES1    0.0000
     12 C4         2.3736    8.0382    9.7102 C.2       1 RES1    0.0000
     13 C5         4.3957   12.6765    8.4264 C.ar      1 RES1    0.0000
     14 H2         5.1056   12.0500    8.3589 H         1 RES1    0.0000
     15 C6         2.9400    8.0893    7.2382 C.3       1 RES1    0.0000
     16 H3         2.1981    8.7292    7.0357 H         1 RES1    0.0000
     17 C7         5.2577    7.7532   10.4216 C.ar      1 RES1    0.0000
     18 C8         3.4348    8.4265    8.6695 C.3       1 RES1    0.0000
     19 C9         1.7662    6.1604    8.2997 C.ar      1 RES1    0.0000
     20 C10        6.2961    8.6244   10.7218 C.ar      1 RES1    0.0000
     21 H4         6.6402    9.1959   10.0457 H         1 RES1    0.0000
     22 C11        4.6586   14.0345    8.3309 C.ar      1 RES1    0.0000
     23 H5         5.5491   14.3336    8.1990 H         1 RES1    0.0000
     24 C12        3.6317   14.9555    8.4285 C.ar      1 RES1    0.0000
     25 H6         3.8133   15.8835    8.3413 H         1 RES1    0.0000
     26 C13        2.3396   14.5180    8.6518 C.ar      1 RES1    0.0000
     27 H7         1.6345   15.1499    8.7349 H         1 RES1    0.0000
     28 C14        6.8372    8.6697   11.9993 C.ar      1 RES1    0.0000
     29 H8         7.5411    9.2766   12.1956 H         1 RES1    0.0000
     30 C15        4.7285    7.6360    9.0060 C.3       1 RES1    0.0000
     31 H9         4.5607    6.6780    8.8190 H         1 RES1    0.0000
     32 H10        5.4405    7.9360    8.3859 H         1 RES1    0.0000
     33 C16        4.0253    8.3405    6.1996 C.3       1 RES1    0.0000
     34 H11        4.6523    9.0269    6.5403 H         1 RES1    0.0000
     35 H12        4.5370    7.5058    6.0511 H         1 RES1    0.0000
     36 C17        2.2440    5.9722    5.9846 C.ar      1 RES1    0.0000
     37 H13        2.6424    6.3073    5.1900 H         1 RES1    0.0000
     38 C18        4.7793    6.9223   11.4301 C.ar      1 RES1    0.0000
     39 H14        4.0679    6.3208   11.2432 H         1 RES1    0.0000
     40 C19        2.0686   13.1672    8.7557 C.ar      1 RES1    0.0000
     41 H15        1.1790   12.8739    8.9198 H         1 RES1    0.0000
     42 C20        1.1051    4.9460    8.2966 C.ar      1 RES1    0.0000
     43 H16        0.7351    4.5903    9.0953 H         1 RES1    0.0000
     44 C21        6.3535    7.8348   12.9850 C.ar      1 RES1    0.0000
     45 H17        6.7313    7.8630   13.8564 H         1 RES1    0.0000
     46 C22        5.3258    6.9599   12.7097 C.ar      1 RES1    0.0000
     47 H18        4.9920    6.3861   13.3890 H         1 RES1    0.0000
     48 C23        1.5701    4.7595    5.9566 C.ar      1 RES1    0.0000
     49 H19        1.5042    4.2734    5.1423 H         1 RES1    0.0000
     50 C24        0.9984    4.2607    7.1001 C.ar      1 RES1    0.0000
     51 H20        0.5247    3.4379    7.0689 H         1 RES1    0.0000
     52 O6        -3.8019   10.1228    7.5275 O.2       2 RES2    0.0000
     53 O7        -3.6374   10.4238    5.3663 O.3       2 RES2    0.0000
     54 O8        -2.7858   12.7128    8.3073 O.2       2 RES2    0.0000
     55 O9         1.5434   14.0184    5.1537 O.2       2 RES2    0.0000
     56 O10       -0.1743   14.4308    6.3762 O.2       2 RES2    0.0000
     57 N3         0.5503   13.6731    5.7727 N.pl3     2 RES2    0.0000
     58 N4        -1.2774   11.0416    8.0754 N.am      2 RES2    0.0000
     59 H21       -0.6289   10.5903    8.4628 H         2 RES2    0.0000
     60 C25       -1.9212   11.9956    8.7941 C.2       2 RES2    0.0000
     61 C26       -3.0989   10.4347    6.6130 C.2       2 RES2    0.0000
     62 C27       -2.8961   10.8269    4.2418 C.ar      2 RES2    0.0000
     63 C28       -1.5274   12.0938   10.2368 C.ar      2 RES2    0.0000
     64 C29       -1.7578   11.6063    4.3706 C.ar      2 RES2    0.0000
     65 C30       -1.9726   13.1904   10.9628 C.ar      2 RES2    0.0000
     66 H22       -2.4823   13.8669   10.5328 H         2 RES2    0.0000
     67 C31       -1.2500   11.9103    5.7623 C.3       2 RES2    0.0000
     68 H23       -1.7302   12.7222    6.0926 H         2 RES2    0.0000
     69 C32       -1.1503   12.0469    3.1990 C.ar      2 RES2    0.0000
     70 H24       -0.3739   12.5916    3.2520 H         2 RES2    0.0000
     71 C33       -1.0071    7.9012    8.3080 C.ar      2 RES2    0.0000
     72 H25       -0.3698    8.4526    8.7474 H         2 RES2    0.0000
     73 C34       -1.3803    8.1876    6.9962 C.ar      2 RES2    0.0000
     74 C35       -1.6034   10.7347    6.7033 C.3       2 RES2    0.0000
     75 C36       -3.3977   10.4322    3.0214 C.ar      2 RES2    0.0000
     76 H26       -4.1573    9.8624    2.9705 H         2 RES2    0.0000
     77 C37        0.2479   12.1971    5.8226 C.3       2 RES2    0.0000
     78 H27        0.6176   11.8176    6.6587 H         2 RES2    0.0000
     79 H28        0.6950   11.7484    5.0623 H         2 RES2    0.0000
     80 C38       -2.2966    7.3564    6.3720 C.ar      2 RES2    0.0000
     81 H29       -2.5534    7.5288    5.4736 H         2 RES2    0.0000
     82 C39       -2.7725   10.8836    1.8695 C.ar      2 RES2    0.0000
     83 H30       -3.1067   10.6287    1.0179 H         2 RES2    0.0000
     84 C40       -0.8618    9.4243    6.2993 C.3       2 RES2    0.0000
     85 H31       -0.9459    9.2977    5.3209 H         2 RES2    0.0000
     86 H32        0.1010    9.5263    6.5070 H         2 RES2    0.0000
     87 C41       -1.6773   13.3030   12.3109 C.ar      2 RES2    0.0000
     88 H33       -1.9794   14.0589   12.7991 H         2 RES2    0.0000
     89 C42       -1.6602   11.7043    1.9557 C.ar      2 RES2    0.0000
     90 H34       -1.2489   12.0327    1.1653 H         2 RES2    0.0000
     91 C43       -0.9429   12.3202   12.9476 C.ar      2 RES2    0.0000
     92 H35       -0.7452   12.3995   13.8730 H         2 RES2    0.0000
     93 C44       -0.7819   11.1089   10.8859 C.ar      2 RES2    0.0000
     94 H36       -0.4692   10.3560   10.3998 H         2 RES2    0.0000
     95 C45       -1.5570    6.8180    8.9769 C.ar      2 RES2    0.0000
     96 H37       -1.2959    6.6338    9.8722 H         2 RES2    0.0000
     97 C46       -0.4977   11.2245   12.2361 C.ar      2 RES2    0.0000
     98 H38        0.0063   10.5480   12.6734 H         2 RES2    0.0000
     99 C47       -2.4777    6.0108    8.3537 C.ar      2 RES2    0.0000
    100 H39       -2.8617    5.2759    8.8170 H         2 RES2    0.0000
    101 C48       -2.8417    6.2750    7.0482 C.ar      2 RES2    0.0000
    102 H40       -3.4691    5.7119    6.6099 H         2 RES2    0.0000
@<TRIPOS>BOND
     1    1    9 2
     2    2   12 1
     3    3   12 2
     4    4    5 1
     5    6    7 2
     6    7    8 2
     7    9    4 1
     8   10   15 1
     9   11    9 1
    10   12   18 1
    11   13   11 ar
    12   14   13 1
    13   15   16 1
    14   17   20 ar
    15   18    4 1
    16   19    2 1
    17   20   21 1
    18   22   13 ar
    19   23   22 1
    20   24   22 ar
    21   25   24 1
    22   26   24 ar
    23   27   26 1
    24   28   20 ar
    25   29   28 1
    26   30   17 1
    27   31   30 1
    28   32   30 1
    29   33    7 1
    30   34   33 1
    31   35   33 1
    32   36   10 ar
    33   37   36 1
    34   38   17 ar
    35   39   38 1
    36   40   11 ar
    37   41   40 1
    38   42   19 ar
    39   43   42 1
    40   44   28 ar
    41   45   44 1
    42   46   38 ar
    43   47   46 1
    44   48   36 ar
    45   49   48 1
    46   50   42 ar
    47   51   50 1
    48   52   61 2
    49   53   61 1
    50   54   60 2
    51   55   57 2
    52   56   57 2
    53   57   77 1
    54   58   59 1
    55   60   58 1
    56   61   74 1
    57   62   53 1
    58   63   60 1
    59   64   62 ar
    60   65   63 ar
    61   66   65 1
    62   67   64 1
    63   68   67 1
    64   69   64 ar
    65   70   69 1
    66   71   72 1
    67   73   71 ar
    68   74   58 1
    69   75   62 ar
    70   76   75 1
    71   77   67 1
    72   78   77 1
    73   79   77 1
    74   80   73 ar
    75   81   80 1
    76   82   75 ar
    77   83   82 1
    78   84   73 1
    79   85   84 1
    80   86   84 1
    81   87   65 ar
    82   88   87 1
    83   89   69 ar
    84   90   89 1
    85   91   87 ar
    86   92   91 1
    87   93   63 ar
    88   94   93 1
    89   95   71 ar
    90   96   95 1
    91   97   91 ar
    92   98   97 1
    93   99   95 ar
    94  100   99 1
    95  101   80 ar
    96  102  101 1
    97   10   19 ar
    98   15   18 1
    99   15   33 1
   100   18   30 1
   101   26   40 ar
   102   44   46 ar
   103   48   50 ar
   104   67   74 1
   105   74   84 1
   106   82   89 ar
   107   93   97 ar
   108   99  101 ar
@<TRIPOS>SUBSTRUCTURE
     1 RES1 1
     2 RES2 52

@<TRIPOS>CRYSIN
  10.3142   19.2062   11.0205  90.0000 109.5320  90.0000   4 1

