# MOL2 file generated by ConQuest
# Please check atom types

@<TRIPOS>MOLECULE
DEFGIE
    24    24     1
SMALL
USER_CHARGES
****
Generated from CSD

@<TRIPOS>ATOM
      1 O1         3.8791    3.9728   14.2604 O.2       1 RES1   -1.0000
      2 O2         4.5512   -2.4525    8.2782 O.2       1 RES1    0.0000
      3 N1         3.8553    2.4146   12.3048 N.3       1 RES1    0.0000
      4 N2         3.0580    3.4879   12.2139 N.2       1 RES1    0.0000
      5 N3         3.1355    4.2284   13.2451 N.pl3     1 RES1    1.0000
      6 N4         2.3732   -2.0572    7.9162 N.am      1 RES1    0.0000
      7 C1         3.7511    1.4253   11.3154 C.ar      1 RES1    0.0000
      8 C2         4.6044    0.3458   11.3933 C.ar      1 RES1    0.0000
      9 C3         4.5338   -0.6706   10.4689 C.ar      1 RES1    0.0000
     10 C4         3.5788   -0.6414    9.4622 C.ar      1 RES1    0.0000
     11 C5         2.7299    0.4516    9.3814 C.ar      1 RES1    0.0000
     12 C6         2.8214    1.4904   10.2886 C.ar      1 RES1    0.0000
     13 C7         2.2773    5.4143   13.2739 C.3       1 RES1    0.0000
     14 C8         3.5202   -1.7826    8.5017 C.2       1 RES1    0.0000
     15 H1         4.3946    2.2376   13.1816 H         1 RES1    0.0000
     16 H2         5.2544    0.2983   12.0856 H         1 RES1    0.0000
     17 H3         5.0831   -1.4714   10.5136 H         1 RES1    0.0000
     18 H4         2.3413   -2.8207    7.1821 H         1 RES1    0.0000
     19 H5         1.6830   -1.6206    8.0474 H         1 RES1    0.0000
     20 H6         2.0250    0.4746    8.6676 H         1 RES1    0.0000
     21 H7         2.2682    2.2647   10.2684 H         1 RES1    0.0000
     22 H8         2.9160    6.1229   13.5854 H         1 RES1    0.0000
     23 H9         1.4759    5.2414   13.8450 H         1 RES1    0.0000
     24 H10        1.9115    5.6008   12.3451 H         1 RES1    0.0000
@<TRIPOS>BOND
     1    1    5 1
     2    2   14 2
     3    3    4 1
     4    4    5 2
     5    5   13 1
     6    6   14 1
     7    7    3 1
     8    8    7 ar
     9    9    8 ar
    10   10    9 ar
    11   11   10 ar
    12   12    7 ar
    13   13   22 1
    14   14   10 1
    15   15    3 1
    16   16    8 1
    17   17    9 1
    18   18    6 1
    19   19    6 1
    20   20   11 1
    21   21   12 1
    22   23   13 1
    23   24   13 1
    24   11   12 ar
@<TRIPOS>SUBSTRUCTURE
     1 RES1 1

@<TRIPOS>CRYSIN
   9.7080    6.7806   14.7070  90.0000 101.3000  90.0000  14 2

