# MOL2 file generated by ConQuest
# Please check atom types

@<TRIPOS>MOLECULE
DEFLEF
    27    28     1
SMALL
NO_CHARGES
****
Generated from CSD

@<TRIPOS>ATOM
      1 C1         3.1547    2.0153   12.4069 C.3       1 RES1    0.0000
      2 N1         4.6093    2.0172   12.1565 N.am      1 RES1    0.0000
      3 N2         5.4158    3.0090   12.7204 N.pl3     1 RES1    0.0000
      4 O1         4.8610    4.0431   12.9894 O.2       1 RES1    0.0000
      5 O2         6.5583    2.7372   12.9041 O.2       1 RES1    0.0000
      6 C2         5.1428    0.7701   11.7855 C.2       1 RES1    0.0000
      7 O3         6.2943    0.5127   11.6018 O.2       1 RES1    0.0000
      8 N3         4.0373   -0.0761   11.6574 N.am      1 RES1    0.0000
      9 C3         4.0846   -1.4871   11.9209 C.2       1 RES1    0.0000
     10 C4         5.4453   -2.1666   11.6574 C.3       1 RES1    0.0000
     11 O4         3.1039   -2.0336   12.3030 O.2       1 RES1    0.0000
     12 C5         2.7850    0.6313   11.8096 C.3       1 RES1    0.0000
     13 N4         2.2487    1.0467   10.5091 N.am      1 RES1    0.0000
     14 N5         1.6912    0.0925    9.6577 N.pl3     1 RES1    0.0000
     15 O5         1.7385   -1.0496   10.0509 O.2       1 RES1    0.0000
     16 O6         1.2324    0.4752    8.5947 O.2       1 RES1    0.0000
     17 C6         1.9189    2.4201   10.4164 C.2       1 RES1    0.0000
     18 O7         1.3030    2.9608    9.5519 O.2       1 RES1    0.0000
     19 N6         2.4353    2.9897   11.5944 N.am      1 RES1    0.0000
     20 C7         2.0115    4.2369   12.1416 C.2       1 RES1    0.0000
     21 C8         1.3853    5.2267   11.1900 C.3       1 RES1    0.0000
     22 O8         2.1932    4.4373   13.3066 O.2       1 RES1    0.0000
     23 H1         2.1671    0.0578   12.3179 H         1 RES1    0.0000
     24 H2         2.9352    2.2071   13.3753 H         1 RES1    0.0000
     25 H3         0.5418    4.8190   10.8709 H         1 RES1    0.0000
     26 H4         1.2756    6.0816   11.7057 H         1 RES1    0.0000
     27 H5         1.9820    5.1756   10.4999 H         1 RES1    0.0000
@<TRIPOS>BOND
     1    1    2 1
     2    2    3 1
     3    3    4 2
     4    5    3 2
     5    6    2 1
     6    7    6 2
     7    8    6 1
     8    9    8 1
     9   10    9 1
    10   11    9 2
    11   12    1 1
    12   13   12 1
    13   14   13 1
    14   15   14 2
    15   16   14 2
    16   17   13 1
    17   18   17 2
    18   19    1 1
    19   20   19 1
    20   21   20 1
    21   22   20 2
    22   23   12 1
    23   24    1 1
    24   25   21 1
    25   26   21 1
    26   27   21 1
    27    8   12 1
    28   17   19 1
@<TRIPOS>SUBSTRUCTURE
     1 RES1 1

@<TRIPOS>CRYSIN
   6.8580    9.6380   18.5510  90.0000  90.0000  90.0000  19 1

