# MOL2 file generated by ConQuest
# Please check atom types

@<TRIPOS>MOLECULE
DEFWUH
    41    43     1
SMALL
NO_CHARGES
****
Generated from CSD

@<TRIPOS>ATOM
      1 O1        10.0492    2.0016    2.3866 O.2       1 RES1    0.0000
      2 O2        10.1069    2.5826    4.4862 O.2       1 RES1    0.0000
      3 O3         5.7061    3.5644    6.4877 O.2       1 RES1    0.0000
      4 O4         4.6586    5.1194    5.3675 O.2       1 RES1    0.0000
      5 O5         3.4223    2.5127    4.6644 O.2       1 RES1    0.0000
      6 O6         1.7464    3.9557    5.0666 O.3       1 RES1    0.0000
      7 O7        -0.2083    5.7168    0.9122 O.2       1 RES1    0.0000
      8 O8         1.0156    5.9754   -0.8674 O.2       1 RES1    0.0000
      9 N1         9.5616    2.5334    3.3873 N.pl3     1 RES1    0.0000
     10 N2         5.4449    4.1704    5.4486 N.pl3     1 RES1    0.0000
     11 N3         0.8571    5.6435    0.3062 N.pl3     1 RES1    0.0000
     12 N4         8.6986    4.0548   -1.2493 N.1       1 RES1    0.0000
     13 N5         4.8703    5.5608   -2.5541 N.1       1 RES1    0.0000
     14 C1         7.7827    3.4575    1.9652 C.ar      1 RES1    0.0000
     15 H1         8.3501    3.3661    1.2088 H         1 RES1    0.0000
     16 C2         8.2230    3.1403    3.2476 C.ar      1 RES1    0.0000
     17 C3         7.4719    3.3644    4.3838 C.ar      1 RES1    0.0000
     18 H2         7.8410    3.2299    5.2490 H         1 RES1    0.0000
     19 C4         6.1637    3.7902    4.2248 C.ar      1 RES1    0.0000
     20 C5         2.9655    4.2143    3.0683 C.ar      1 RES1    0.0000
     21 C6         1.8567    4.6832    2.3407 C.ar      1 RES1    0.0000
     22 H3         0.9912    4.6893    2.7323 H         1 RES1    0.0000
     23 C7         2.0391    5.1323    1.0509 C.ar      1 RES1    0.0000
     24 C8         3.2443    5.0858    0.3723 C.ar      1 RES1    0.0000
     25 H4         3.3174    5.3444   -0.5398 H         1 RES1    0.0000
     26 C9         5.7474    4.3867    0.6561 C.2       1 RES1    0.0000
     27 C10        6.4664    3.9161    1.8436 C.ar      1 RES1    0.0000
     28 C11        5.6104    3.9721    2.9659 C.ar      1 RES1    0.0000
     29 C12        4.2338    4.2928    2.4560 C.ar      1 RES1    0.0000
     30 C13        4.3460    4.6384    1.1074 C.ar      1 RES1    0.0000
     31 C14        6.2484    4.6022   -0.5814 C.2       1 RES1    0.0000
     32 C15        7.6181    4.2988   -0.9357 C.1       1 RES1    0.0000
     33 C16        5.4695    5.1280   -1.6782 C.1       1 RES1    0.0000
     34 C17        2.7500    3.4790    4.3582 C.2       1 RES1    0.0000
     35 C18        1.4634    3.2291    6.3170 C.3       1 RES1    0.0000
     36 H5         2.2758    3.1911    6.8814 H         1 RES1    0.0000
     37 H6         1.1750    2.3024    6.1175 H         1 RES1    0.0000
     38 C19        0.3666    3.9704    7.0350 C.3       1 RES1    0.0000
     39 H7         0.6596    4.8875    7.2185 H         1 RES1    0.0000
     40 H8         0.1626    3.5178    7.8789 H         1 RES1    0.0000
     41 H9        -0.4344    3.9902    6.4717 H         1 RES1    0.0000
@<TRIPOS>BOND
     1    1    9 2
     2    2    9 2
     3    3   10 2
     4    4   10 2
     5    5   34 2
     6    6   34 1
     7    7   11 2
     8    8   11 2
     9    9   16 1
    10   10   19 1
    11   11   23 1
    12   12   32 3
    13   13   33 3
    14   14   15 1
    15   16   14 ar
    16   17   16 ar
    17   18   17 1
    18   19   17 ar
    19   20   21 ar
    20   21   22 1
    21   23   21 ar
    22   24   23 ar
    23   25   24 1
    24   26   27 1
    25   27   14 ar
    26   28   19 ar
    27   29   20 ar
    28   30   24 ar
    29   31   26 2
    30   32   31 1
    31   33   31 1
    32   34   20 1
    33   35    6 1
    34   36   35 1
    35   37   35 1
    36   38   35 1
    37   39   38 1
    38   40   38 1
    39   41   38 1
    40   26   30 1
    41   27   28 ar
    42   28   29 1
    43   29   30 ar
@<TRIPOS>SUBSTRUCTURE
     1 RES1 1

@<TRIPOS>CRYSIN
  19.4810    8.6200   10.8140  90.0000  99.4000  90.0000  14 1

