# MOL2 file generated by ConQuest
# Please check atom types

@<TRIPOS>MOLECULE
DEFYAP
   108   112     2
SMALL
NO_CHARGES
****
Generated from CSD

@<TRIPOS>ATOM
      1 C1         2.0495    8.0404   -2.4251 C.3       1 RES1    0.0000
      2 C2         0.3851    7.3259    0.0824 C.2       1 RES1    0.0000
      3 C3        -0.6850    4.2157    0.2720 C.3       1 RES1    0.0000
      4 C4        -0.7575    6.6949    2.2081 C.2       1 RES1    0.0000
      5 C5         0.3698    7.7884    5.1753 C.3       1 RES1    0.0000
      6 C6         2.7357    9.3624   -2.5222 C.ar      1 RES1    0.0000
      7 C7         2.5977   10.3067   -1.5166 C.ar      1 RES1    0.0000
      8 C8         3.2801   11.4942   -1.5799 C.ar      1 RES1    0.0000
      9 C9         4.1093   11.7526   -2.6376 C.ar      1 RES1    0.0000
     10 C10        4.8366    7.8588    4.8263 C.3       2 RES2    0.0000
     11 C11        3.7198    5.6860    7.1551 C.2       2 RES2    0.0000
     12 C12        3.7439    2.6542    8.0378 C.3       2 RES2    0.0000
     13 C13        4.8437    5.4652    9.3796 C.2       2 RES2    0.0000
     14 C14        6.4230    5.1686   12.0236 C.3       2 RES2    0.0000
     15 C15        4.2880    9.1005    4.2002 C.ar      2 RES2    0.0000
     16 C16        4.5688   10.3402    4.7424 C.ar      2 RES2    0.0000
     17 C17        4.0233   11.4835    4.1859 C.ar      2 RES2    0.0000
     18 C18        3.2091   11.4008    3.0855 C.ar      2 RES2    0.0000
     19 C19        4.2624   10.8353   -3.6314 C.ar      1 RES1    0.0000
     20 C20        3.5674    9.6430   -3.5971 C.ar      1 RES1    0.0000
     21 C21       -1.7307    3.3129   -0.2913 C.ar      1 RES1    0.0000
     22 C22       -1.9375    3.2217   -1.6386 C.ar      1 RES1    0.0000
     23 C23       -2.9007    2.3749   -2.1517 C.ar      1 RES1    0.0000
     24 C24       -3.6494    1.6188   -1.3225 C.ar      1 RES1    0.0000
     25 C25       -3.4823    1.7176    0.0183 C.ar      1 RES1    0.0000
     26 C26       -2.5310    2.5605    0.5373 C.ar      1 RES1    0.0000
     27 C27       -0.1353    8.6900    6.2548 C.ar      1 RES1    0.0000
     28 C28       -0.9552    8.2059    7.2415 C.ar      1 RES1    0.0000
     29 C29       -1.4362    9.0272    8.2311 C.ar      1 RES1    0.0000
     30 C30       -1.1100   10.3383    8.2357 C.ar      1 RES1    0.0000
     31 C31       -0.2991   10.8414    7.2547 C.ar      1 RES1    0.0000
     32 C32        0.1975   10.0218    6.2671 C.ar      1 RES1    0.0000
     33 C33        2.9289   10.1889    2.5418 C.ar      2 RES2    0.0000
     34 C34        3.4563    9.0434    3.1086 C.ar      2 RES2    0.0000
     35 C35        2.6401    1.6584    8.1456 C.ar      2 RES2    0.0000
     36 C36        1.9469    1.2707    7.0159 C.ar      2 RES2    0.0000
     37 C37        0.9311    0.3572    7.1080 C.ar      2 RES2    0.0000
     38 C38        0.5600   -0.1494    8.3095 C.ar      2 RES2    0.0000
     39 C39        1.2193    0.2249    9.4431 C.ar      2 RES2    0.0000
     40 C40        2.2642    1.1320    9.3612 C.ar      2 RES2    0.0000
     41 C41        7.1395    6.3396   12.6186 C.ar      2 RES2    0.0000
     42 C42        7.9553    6.1801   13.7278 C.ar      2 RES2    0.0000
     43 C43        8.6825    7.2497   14.2095 C.ar      2 RES2    0.0000
     44 C44        8.5886    8.4780   13.6112 C.ar      2 RES2    0.0000
     45 C45        7.7677    8.6454   12.5275 C.ar      2 RES2    0.0000
     46 C46        7.0540    7.5914   12.0280 C.ar      2 RES2    0.0000
     47 N1         0.1897    7.1843   -1.2560 N.am      1 RES1    0.0000
     48 N2        -0.3366    6.4340    0.8790 N.am      1 RES1    0.0000
     49 N3         0.1240    7.4580    2.8960 N.am      1 RES1    0.0000
     50 N4         4.6265    6.6248    6.7892 N.am      2 RES2    0.0000
     51 N5         4.1296    4.9289    8.2924 N.am      2 RES2    0.0000
     52 N6         4.5977    4.8620   10.5708 N.am      2 RES2    0.0000
     53 O1         0.6930    8.2807   -1.9919 O.3       1 RES1    0.0000
     54 O2         1.1864    8.0980    0.5802 O.2       1 RES1    0.0000
     55 O3        -1.2060    5.5737    0.1897 O.3       1 RES1    0.0000
     56 O4        -1.7570    6.1915    2.6618 O.2       1 RES1    0.0000
     57 O5        -0.4333    8.0845    4.0285 O.3       1 RES1    0.0000
     58 O6         4.0702    7.6617    6.0096 O.3       2 RES2    0.0000
     59 O7         2.7022    5.4177    6.5599 O.2       2 RES2    0.0000
     60 O8         3.2374    3.8935    8.6050 O.3       2 RES2    0.0000
     61 O9         5.6715    6.3395    9.2073 O.2       2 RES2    0.0000
     62 O10        5.0931    5.6013   11.6661 O.3       2 RES2    0.0000
     63 H1         2.4781    7.4020   -1.7426 H         1 RES1    0.0000
     64 H2         2.0505    7.5073   -3.2834 H         1 RES1    0.0000
     65 H3        -0.6079    6.9292   -1.5647 H         1 RES1    0.0000
     66 H4        -0.5344    4.0109    1.1666 H         1 RES1    0.0000
     67 H5         0.1478    4.2156   -0.3504 H         1 RES1    0.0000
     68 H6         0.6231    7.9994    2.4176 H         1 RES1    0.0000
     69 H7         1.3208    8.0486    4.9325 H         1 RES1    0.0000
     70 H8         0.2303    6.7988    5.3562 H         1 RES1    0.0000
     71 H9         2.0628   10.1498   -0.7924 H         1 RES1    0.0000
     72 H10        3.1694   12.0901   -0.9098 H         1 RES1    0.0000
     73 H11        4.5123   12.5166   -2.6946 H         1 RES1    0.0000
     74 H12        5.7287    8.0476    5.1856 H         2 RES2    0.0000
     75 H13        4.7080    6.9723    4.2354 H         2 RES2    0.0000
     76 H14        5.1383    6.9065    7.4767 H         2 RES2    0.0000
     77 H15        4.5741    2.4138    8.5718 H         2 RES2    0.0000
     78 H16        3.9755    2.8268    7.0823 H         2 RES2    0.0000
     79 H17        3.7604    4.5741   10.7381 H         2 RES2    0.0000
     80 H18        6.3467    4.4338   12.6880 H         2 RES2    0.0000
     81 H19        6.9191    4.7948   11.1490 H         2 RES2    0.0000
     82 H20        5.1339   10.3797    5.5341 H         2 RES2    0.0000
     83 H21        4.2249   12.3641    4.5968 H         2 RES2    0.0000
     84 H22        2.8440   12.2499    2.7441 H         2 RES2    0.0000
     85 H23        4.8564   11.0212   -4.4409 H         1 RES1    0.0000
     86 H24        3.6736    8.9734   -4.3015 H         1 RES1    0.0000
     87 H25       -1.4767    3.9304   -2.2067 H         1 RES1    0.0000
     88 H26       -3.0791    2.3684   -3.1000 H         1 RES1    0.0000
     89 H27       -4.3046    1.0515   -1.7426 H         1 RES1    0.0000
     90 H28       -4.0378    1.2395    0.6604 H         1 RES1    0.0000
     91 H29       -2.3311    2.6798    1.5023 H         1 RES1    0.0000
     92 H30       -1.2120    7.2470    7.2547 H         1 RES1    0.0000
     93 H31       -1.9443    8.6858    8.8891 H         1 RES1    0.0000
     94 H32       -1.4687   10.8552    8.9313 H         1 RES1    0.0000
     95 H33       -0.1075   11.7318    7.2052 H         1 RES1    0.0000
     96 H34        0.7523   10.3455    5.5727 H         1 RES1    0.0000
     97 H35        2.3406   10.1494    1.7719 H         2 RES2    0.0000
     98 H36        3.2564    8.1980    2.7221 H         2 RES2    0.0000
     99 H37        2.2128    1.6800    6.1266 H         2 RES2    0.0000
    100 H38        0.4253    0.1551    6.2917 H         2 RES2    0.0000
    101 H39       -0.1878   -0.8014    8.3480 H         2 RES2    0.0000
    102 H40        1.0180   -0.0867   10.2997 H         2 RES2    0.0000
    103 H41        2.7241    1.4109   10.1328 H         2 RES2    0.0000
    104 H42        8.0273    5.3523   14.1536 H         2 RES2    0.0000
    105 H43        9.2228    7.1185   14.9442 H         2 RES2    0.0000
    106 H44        9.0056    9.2364   13.9408 H         2 RES2    0.0000
    107 H45        7.6335    9.5325   12.2000 H         2 RES2    0.0000
    108 H46        6.5180    7.7132   11.2737 H         2 RES2    0.0000
@<TRIPOS>BOND
     1    1    6 1
     2    2   47 1
     3    3   21 1
     4    4   48 1
     5    5   27 1
     6    6    7 ar
     7    7    8 ar
     8    8    9 ar
     9    9   19 ar
    10   10   15 1
    11   11   50 1
    12   12   35 1
    13   13   51 1
    14   14   41 1
    15   15   16 ar
    16   16   17 ar
    17   17   18 ar
    18   18   33 ar
    19   19   20 ar
    20   20    6 ar
    21   21   22 ar
    22   22   23 ar
    23   23   24 ar
    24   24   25 ar
    25   25   26 ar
    26   26   21 ar
    27   27   28 ar
    28   28   29 ar
    29   29   30 ar
    30   30   31 ar
    31   31   32 ar
    32   32   27 ar
    33   33   34 ar
    34   34   15 ar
    35   35   36 ar
    36   36   37 ar
    37   37   38 ar
    38   38   39 ar
    39   39   40 ar
    40   40   35 ar
    41   41   42 ar
    42   42   43 ar
    43   43   44 ar
    44   44   45 ar
    45   45   46 ar
    46   46   41 ar
    47   47   53 1
    48   48    2 1
    49   49    4 1
    50   50   58 1
    51   51   11 1
    52   52   13 1
    53   53    1 1
    54   54    2 2
    55   55    3 1
    56   56    4 2
    57   57    5 1
    58   58   10 1
    59   59   11 2
    60   60   12 1
    61   61   13 2
    62   62   14 1
    63   63    1 1
    64   64    1 1
    65   65   47 1
    66   66    3 1
    67   67    3 1
    68   68   49 1
    69   69    5 1
    70   70    5 1
    71   71    7 1
    72   72    8 1
    73   73    9 1
    74   74   10 1
    75   75   10 1
    76   76   50 1
    77   77   12 1
    78   78   12 1
    79   79   52 1
    80   80   14 1
    81   81   14 1
    82   82   16 1
    83   83   17 1
    84   84   18 1
    85   85   19 1
    86   86   20 1
    87   87   22 1
    88   88   23 1
    89   89   24 1
    90   90   25 1
    91   91   26 1
    92   92   28 1
    93   93   29 1
    94   94   30 1
    95   95   31 1
    96   96   32 1
    97   97   33 1
    98   98   34 1
    99   99   36 1
   100  100   37 1
   101  101   38 1
   102  102   39 1
   103  103   40 1
   104  104   42 1
   105  105   43 1
   106  106   44 1
   107  107   45 1
   108  108   46 1
   109   48   55 1
   110   49   57 1
   111   51   60 1
   112   52   62 1
@<TRIPOS>SUBSTRUCTURE
     1 RES1 1
     2 RES2 10

@<TRIPOS>CRYSIN
   8.9947   13.8200   18.7140 100.7630  90.4470 107.2270   2 1

