# MOL2 file generated by ConQuest
# Please check atom types

@<TRIPOS>MOLECULE
DEGBEX
    64    69     1
SMALL
NO_CHARGES
****
Generated from CSD

@<TRIPOS>ATOM
      1 O1        11.0806    6.4326    3.4363 O.3       1 RES1    0.0000
      2 O2         6.7744    6.6356    1.4592 O.2       1 RES1    0.0000
      3 O3         7.5920   10.3610   -0.1046 O.2       1 RES1    0.0000
      4 O4         4.6818    8.4280    5.4957 O.3       1 RES1    0.0000
      5 N1        12.0537    6.7935    2.4661 N.2       1 RES1    0.0000
      6 N2        10.0251    7.5129    1.8584 N.2       1 RES1    0.0000
      7 N3         4.5795    8.4745    3.3126 N.2       1 RES1    0.0000
      8 N4         3.5918    9.2746    5.1525 N.2       1 RES1    0.0000
      9 N5         7.3045    8.9001    1.5765 N.am      1 RES1    0.0000
     10 C1        12.8730    9.3761   -1.8648 C.ar      1 RES1    0.0000
     11 H1        13.1998    9.8349   -2.6063 H         1 RES1    0.0000
     12 C2        11.5548    9.5340   -1.4885 C.ar      1 RES1    0.0000
     13 H2        10.9828   10.0796   -1.9804 H         1 RES1    0.0000
     14 C3        11.1011    8.8672   -0.3713 C.ar      1 RES1    0.0000
     15 H3        10.2144    8.9687   -0.1083 H         1 RES1    0.0000
     16 C4        11.9479    8.0390    0.3759 C.ar      1 RES1    0.0000
     17 C5        13.2881    7.8750   -0.0316 C.ar      1 RES1    0.0000
     18 C6        13.7038    8.5540   -1.1582 C.ar      1 RES1    0.0000
     19 H4        14.5818    8.4488   -1.4482 H         1 RES1    0.0000
     20 C7        14.2509    6.9856    0.6920 C.3       1 RES1    0.0000
     21 H5        15.0767    6.9440    0.2056 H         1 RES1    0.0000
     22 H6        13.8781    6.1035    0.7654 H         1 RES1    0.0000
     23 H7        14.4138    7.3380    1.5693 H         1 RES1    0.0000
     24 C8        11.3827    7.4248    1.5717 C.2       1 RES1    0.0000
     25 C9         9.9154    6.8926    2.9639 C.2       1 RES1    0.0000
     26 C10        8.7073    6.5892    3.7685 C.3       1 RES1    0.0000
     27 H8         8.9477    6.5978    4.7079 H         1 RES1    0.0000
     28 H9         8.4020    5.6949    3.5498 H         1 RES1    0.0000
     29 C11        7.5384    7.5900    3.5393 C.3       1 RES1    0.0000
     30 C12        7.1429    7.5985    2.0735 C.2       1 RES1    0.0000
     31 C13        7.7513    9.7444    2.6309 C.ar      1 RES1    0.0000
     32 C14        7.9863   11.1085    2.6100 C.ar      1 RES1    0.0000
     33 H10        7.8882   11.6052    1.8299 H         1 RES1    0.0000
     34 C15        8.3684   11.6920    3.7884 C.ar      1 RES1    0.0000
     35 H11        8.5395   12.6071    3.7975 H         1 RES1    0.0000
     36 C16        8.5103   10.9837    4.9594 C.ar      1 RES1    0.0000
     37 H12        8.7720   11.4155    5.7394 H         1 RES1    0.0000
     38 C17        8.2646    9.6343    4.9667 C.ar      1 RES1    0.0000
     39 H13        8.3508    9.1437    5.7505 H         1 RES1    0.0000
     40 C18        7.8890    9.0189    3.7966 C.ar      1 RES1    0.0000
     41 C19        6.6121    8.3191   -0.7296 C.3       1 RES1    0.0000
     42 H14        6.4774    8.7559   -1.5748 H         1 RES1    0.0000
     43 H15        5.7683    8.0096   -0.3928 H         1 RES1    0.0000
     44 H16        7.2039    7.5728   -0.8461 H         1 RES1    0.0000
     45 C20        7.2052    9.2734    0.2287 C.2       1 RES1    0.0000
     46 C21        6.3562    7.0823    4.3913 C.3       1 RES1    0.0000
     47 H17        6.0858    6.2075    4.0710 H         1 RES1    0.0000
     48 H18        6.6459    6.9844    5.3118 H         1 RES1    0.0000
     49 C22        5.1847    8.0072    4.3405 C.2       1 RES1    0.0000
     50 C23        3.5836    9.2575    3.8682 C.2       1 RES1    0.0000
     51 C24        4.2440   10.8552    1.4133 C.3       1 RES1    0.0000
     52 H19        4.8803   10.9225    2.1291 H         1 RES1    0.0000
     53 H20        4.3036   11.6345    0.8572 H         1 RES1    0.0000
     54 H21        4.4334   10.0723    0.8902 H         1 RES1    0.0000
     55 C25        2.8577   10.7525    1.9850 C.ar      1 RES1    0.0000
     56 C26        1.8122   11.4449    1.3784 C.ar      1 RES1    0.0000
     57 H22        1.9932   11.9722    0.6332 H         1 RES1    0.0000
     58 C27        0.5288   11.3715    1.8446 C.ar      1 RES1    0.0000
     59 H23       -0.1475   11.8388    1.4115 H         1 RES1    0.0000
     60 C28        0.2374   10.6240    2.9294 C.ar      1 RES1    0.0000
     61 H24       -0.6374   10.5751    3.2414 H         1 RES1    0.0000
     62 C29        1.2430    9.9340    3.5718 C.ar      1 RES1    0.0000
     63 H25        1.0440    9.4263    4.3243 H         1 RES1    0.0000
     64 C30        2.5593    9.9891    3.1030 C.ar      1 RES1    0.0000
@<TRIPOS>BOND
     1    1    5 1
     2    2   30 2
     3    3   45 2
     4    4    8 1
     5    5   24 2
     6    6   24 1
     7    7   49 2
     8    8   50 2
     9    9   30 1
    10   10   11 1
    11   12   10 ar
    12   13   12 1
    13   14   12 ar
    14   15   14 1
    15   16   14 ar
    16   17   16 ar
    17   18   10 ar
    18   19   18 1
    19   20   17 1
    20   21   20 1
    21   22   20 1
    22   23   20 1
    23   24   16 1
    24   25    1 1
    25   26   25 1
    26   27   26 1
    27   28   26 1
    28   29   26 1
    29   30   29 1
    30   31    9 1
    31   32   31 ar
    32   33   32 1
    33   34   32 ar
    34   35   34 1
    35   36   34 ar
    36   37   36 1
    37   38   36 ar
    38   39   38 1
    39   40   29 1
    40   41   42 1
    41   43   41 1
    42   44   41 1
    43   45    9 1
    44   46   29 1
    45   47   46 1
    46   48   46 1
    47   49    4 1
    48   50    7 1
    49   51   52 1
    50   53   51 1
    51   54   51 1
    52   55   51 1
    53   56   55 ar
    54   57   56 1
    55   58   56 ar
    56   59   58 1
    57   60   58 ar
    58   61   60 1
    59   62   60 ar
    60   63   62 1
    61   64   50 1
    62    6   25 2
    63   17   18 ar
    64   31   40 ar
    65   38   40 ar
    66   41   45 1
    67   46   49 1
    68   55   64 ar
    69   62   64 ar
@<TRIPOS>SUBSTRUCTURE
     1 RES1 1

@<TRIPOS>CRYSIN
  11.6800   12.2340   18.3960  90.0000  93.8500  90.0000  14 1

