# MOL2 file generated by ConQuest
# Please check atom types

@<TRIPOS>MOLECULE
DEGCAW
   617   582     2
SMALL
NO_CHARGES
****
Generated from CSD

@<TRIPOS>ATOM
      1 O1        16.9190   15.3398   10.9593 O.2       1 RES1    0.0000
      2 O2        16.8773   13.3731   10.0845 O.2       1 RES1    0.0000
      3 N1        16.9014   14.5969    9.9667 N.pl3     1 RES1    0.0000
      4 C1        16.9103   15.2229    8.6858 C.ar      1 RES1    0.0000
      5 C2        17.1915   16.5805    8.6484 C.ar      1 RES1    0.0000
      6 H1        17.3270   17.0526    9.4617 H         1 RES1    0.0000
      7 C3        17.2757   17.2524    7.4501 C.ar      1 RES1    0.0000
      8 H2        17.4688   18.1825    7.4498 H         1 RES1    0.0000
      9 C4        17.0883   16.6096    6.2627 C.ar      1 RES1    0.0000
     10 H3        17.1642   17.0885    5.4464 H         1 RES1    0.0000
     11 C5        16.7790   15.2218    6.2472 C.ar      1 RES1    0.0000
     12 C6        16.6577   14.5180    7.4784 C.ar      1 RES1    0.0000
     13 C7        16.5787   14.4958    5.0386 C.ar      1 RES1    0.0000
     14 C8        16.2639   13.1794    5.0851 C.ar      1 RES1    0.0000
     15 H4        16.1398   12.6800    4.2874 H         1 RES1    0.0000
     16 C9        16.1255   12.5706    6.3489 C.ar      1 RES1    0.0000
     17 N2        16.2991   13.1883    7.4883 N.ar      1 RES1    0.0000
     18 C10       15.8054   11.1186    6.4172 C.2       1 RES1    0.0000
     19 O3        16.7699   15.2261    3.9193 O.3       1 RES1    0.0000
     20 O4        15.7043   10.4278    5.4200 O.2       1 RES1    0.0000
     21 C11       16.6322   14.5492    2.6710 C.3       1 RES1    0.0000
     22 H5        15.6867   14.2978    2.5248 H         1 RES1    0.0000
     23 H6        17.1765   13.7203    2.6750 H         1 RES1    0.0000
     24 C12       17.1000   15.4718    1.5631 C.3       1 RES1    0.0000
     25 H7        18.0415   15.7433    1.7682 H         1 RES1    0.0000
     26 C13       17.1084   14.7139    0.2547 C.3       1 RES1    0.0000
     27 H8        17.6752   13.9176    0.3429 H         1 RES1    0.0000
     28 H9        16.1941   14.4413    0.0283 H         1 RES1    0.0000
     29 H10       17.4635   15.2914   -0.4534 H         1 RES1    0.0000
     30 C14       16.2479   16.7255    1.5302 C.3       1 RES1    0.0000
     31 H11       16.2842   17.1674    2.4030 H         1 RES1    0.0000
     32 H12       16.5893   17.3324    0.8416 H         1 RES1    0.0000
     33 H13       15.3199   16.4859    1.3233 H         1 RES1    0.0000
     34 N3        15.6560   10.6699    7.6955 N.am      1 RES1    0.0000
     35 H14       15.6780   11.2847    8.3254 H         1 RES1    0.0000
     36 C15       15.4728    9.3578    8.1327 C.ar      1 RES1    0.0000
     37 C16       15.5312    8.2375    7.3242 C.ar      1 RES1    0.0000
     38 H15       15.6800    8.3398    6.3928 H         1 RES1    0.0000
     39 C17       15.3768    6.9710    7.8516 C.ar      1 RES1    0.0000
     40 H16       15.4012    6.2199    7.2684 H         1 RES1    0.0000
     41 C18       15.1881    6.7712    9.1854 C.ar      1 RES1    0.0000
     42 H17       15.1053    5.8899    9.5269 H         1 RES1    0.0000
     43 C19       15.1169    7.8666   10.0551 C.ar      1 RES1    0.0000
     44 C20       15.2354    9.1971    9.5413 C.ar      1 RES1    0.0000
     45 C21       14.9431    7.7476   11.4674 C.ar      1 RES1    0.0000
     46 C22       14.8522    8.8742   12.2251 C.ar      1 RES1    0.0000
     47 H18       14.7540    8.8025   13.1682 H         1 RES1    0.0000
     48 C23       14.9013   10.1415   11.6215 C.ar      1 RES1    0.0000
     49 N4        15.0990   10.3080   10.3059 N.ar      1 RES1    0.0000
     50 C24       14.6607   11.3392   12.4510 C.2       1 RES1    0.0000
     51 O5        14.8526    6.5007   11.9692 O.3       1 RES1    0.0000
     52 H19       14.7358    6.5427   12.7998 H         1 RES1    0.0000
     53 O6        14.6695   11.2736   13.6873 O.2       1 RES1    0.0000
     54 N5        14.3984   12.4659   11.7533 N.am      1 RES1    0.0000
     55 H20       14.3460   12.3500   10.8814 H         1 RES1    0.0000
     56 C25       14.1982   13.7805   12.1764 C.ar      1 RES1    0.0000
     57 C26       14.3383   14.2479   13.4535 C.ar      1 RES1    0.0000
     58 H21       14.5215   13.6449   14.1628 H         1 RES1    0.0000
     59 C27       14.2131   15.6200   13.7162 C.ar      1 RES1    0.0000
     60 H22       14.2739   15.9263   14.6133 H         1 RES1    0.0000
     61 C28       14.0046   16.5303   12.7179 C.ar      1 RES1    0.0000
     62 H23       13.9520   17.4579   12.9216 H         1 RES1    0.0000
     63 C29       13.8681   16.0924   11.3943 C.ar      1 RES1    0.0000
     64 C30       13.8912   14.6974   11.1290 C.ar      1 RES1    0.0000
     65 C31       13.7419   16.9432   10.2616 C.ar      1 RES1    0.0000
     66 C32       13.5696   16.4220    9.0208 C.ar      1 RES1    0.0000
     67 H24       13.4895   16.9880    8.2630 H         1 RES1    0.0000
     68 C33       13.5127   15.0224    8.8862 C.ar      1 RES1    0.0000
     69 N6        13.6729   14.1740    9.8916 N.ar      1 RES1    0.0000
     70 C34       13.2332   14.4065    7.5532 C.2       1 RES1    0.0000
     71 O7        13.8316   18.2747   10.5399 O.3       1 RES1    0.0000
     72 O8        13.3218   15.0435    6.5050 O.2       1 RES1    0.0000
     73 C35       13.9671   19.1926    9.4407 C.3       1 RES1    0.0000
     74 H25       13.1346   19.1976    8.9035 H         1 RES1    0.0000
     75 H26       14.7125   18.9071    8.8553 H         1 RES1    0.0000
     76 C36       14.2318   20.5496    9.9607 C.3       1 RES1    0.0000
     77 H27       15.0261   20.5033   10.5668 H         1 RES1    0.0000
     78 C37       14.5454   21.5152    8.8516 C.3       1 RES1    0.0000
     79 H28       14.7171   22.4044    9.2293 H         1 RES1    0.0000
     80 H29       15.3410   21.2099    8.3679 H         1 RES1    0.0000
     81 H30       13.7854   21.5615    8.2347 H         1 RES1    0.0000
     82 C38       13.0424   21.0342   10.7743 C.3       1 RES1    0.0000
     83 H31       13.2251   21.9345   11.1166 H         1 RES1    0.0000
     84 H32       12.2439   21.0557   10.2041 H         1 RES1    0.0000
     85 H33       12.8899   20.4244   11.5275 H         1 RES1    0.0000
     86 N7        12.9019   13.0929    7.6204 N.am      1 RES1    0.0000
     87 H34       12.8262   12.7841    8.4416 H         1 RES1    0.0000
     88 C39       12.6616   12.1510    6.6388 C.ar      1 RES1    0.0000
     89 C40       12.7406   12.4074    5.2678 C.ar      1 RES1    0.0000
     90 H35       12.9334   13.2827    4.9533 H         1 RES1    0.0000
     91 C41       12.5357   11.3744    4.3698 C.ar      1 RES1    0.0000
     92 H36       12.5700   11.5573    3.4373 H         1 RES1    0.0000
     93 C42       12.2810   10.0709    4.7938 C.ar      1 RES1    0.0000
     94 H37       12.1601    9.3764    4.1570 H         1 RES1    0.0000
     95 C43       12.2048    9.7918    6.1726 C.ar      1 RES1    0.0000
     96 C44       12.3521   10.8413    7.0981 C.ar      1 RES1    0.0000
     97 C45       11.9915    8.4915    6.6827 C.ar      1 RES1    0.0000
     98 C46       11.8964    8.3032    8.0480 C.ar      1 RES1    0.0000
     99 H38       11.7772    7.4359    8.4132 H         1 RES1    0.0000
    100 C47       11.9809    9.4284    8.8791 C.ar      1 RES1    0.0000
    101 N8        12.2184   10.6520    8.4543 N.ar      1 RES1    0.0000
    102 C48       11.7686    9.2243   10.3387 C.2       1 RES1    0.0000
    103 O9        11.9091    7.5051    5.7615 O.3       1 RES1    0.0000
    104 O10       11.6831    8.0801   10.8145 O.2       1 RES1    0.0000
    105 C49       11.7496    6.1539    6.2370 C.3       1 RES1    0.0000
    106 H39       10.8611    6.0405    6.6563 H         1 RES1    0.0000
    107 H40       12.4437    5.9401    6.9085 H         1 RES1    0.0000
    108 C50       11.8869    5.2298    5.0043 C.3       1 RES1    0.0000
    109 H41       11.7765    4.2901    5.3358 H         1 RES1    0.0000
    110 C51       10.7029    5.5204    4.1287 C.3       1 RES1    0.0000
    111 H42        9.8771    5.4235    4.6501 H         1 RES1    0.0000
    112 H43       10.7668    6.4351    3.7830 H         1 RES1    0.0000
    113 H44       10.6883    4.8891    3.3778 H         1 RES1    0.0000
    114 C52       13.2661    5.3159    4.4036 C.3       1 RES1    0.0000
    115 H45       13.9356    5.1043    5.0865 H         1 RES1    0.0000
    116 H46       13.3392    4.6774    3.6640 H         1 RES1    0.0000
    117 H47       13.4176    6.2234    4.0692 H         1 RES1    0.0000
    118 N9        11.6416   10.3022   11.1004 N.am      1 RES1    0.0000
    119 H48       11.6729   11.1018   10.7369 H         1 RES1    0.0000
    120 C53       11.4502   10.1623   12.5232 C.3       1 RES1    0.0000
    121 H49       12.2237    9.6670   12.8933 H         1 RES1    0.0000
    122 H50       10.6437    9.6096   12.6779 H         1 RES1    0.0000
    123 C54       11.3013   11.4343   13.2792 C.ar      1 RES1    0.0000
    124 C55       11.4190   11.3690   14.6578 C.ar      1 RES1    0.0000
    125 H51       11.6294   10.5422   15.0752 H         1 RES1    0.0000
    126 N10       11.0325   12.5767   12.6232 N.ar      1 RES1    0.0000
    127 C56       10.8545   13.6823   13.3807 C.ar      1 RES1    0.0000
    128 C57       10.5755   14.9825   12.6867 C.2       1 RES1    0.0000
    129 O11       10.5112   16.0267   13.3186 O.2       1 RES1    0.0000
    130 C58       10.9402   13.6952   14.7590 C.ar      1 RES1    0.0000
    131 H52       10.8045   14.5022   15.2453 H         1 RES1    0.0000
    132 C59       11.2305   12.4996   15.4295 C.ar      1 RES1    0.0000
    133 O12       11.3163   12.4903   16.7655 O.3       1 RES1    0.0000
    134 H53       11.4932   11.7116   17.0305 H         1 RES1    0.0000
    135 N11       10.3999   14.9033   11.3365 N.am      1 RES1    0.0000
    136 H54       10.3382   14.0897   11.0032 H         1 RES1    0.0000
    137 C60       10.3076   15.9374   10.4223 C.ar      1 RES1    0.0000
    138 C61       10.4136   17.2825   10.7592 C.ar      1 RES1    0.0000
    139 H55       10.5037   17.5476   11.6663 H         1 RES1    0.0000
    140 C62       10.3865   18.2367    9.7337 C.ar      1 RES1    0.0000
    141 H56       10.4284   19.1546    9.9746 H         1 RES1    0.0000
    142 C63       10.3046   17.9311    8.4217 C.ar      1 RES1    0.0000
    143 H57       10.3270   18.6165    7.7643 H         1 RES1    0.0000
    144 C64       10.1844   16.5651    8.0400 C.ar      1 RES1    0.0000
    145 C65       10.1302   15.5758    9.0383 C.ar      1 RES1    0.0000
    146 C66       10.0922   16.1512    6.6759 C.ar      1 RES1    0.0000
    147 C67        9.9014   14.8373    6.4019 C.ar      1 RES1    0.0000
    148 H58        9.8696   14.5345    5.5030 H         1 RES1    0.0000
    149 C68        9.7542   13.9319    7.4509 C.ar      1 RES1    0.0000
    150 N12        9.9014   14.2648    8.7434 N.ar      1 RES1    0.0000
    151 C69        9.4040   12.5419    7.1525 C.2       1 RES1    0.0000
    152 O13        9.3786   12.1122    5.9924 O.2       1 RES1    0.0000
    153 O14       10.2554   17.0311    5.6589 O.3       1 RES1    0.0000
    154 C70       10.3629   16.5648    4.2874 C.3       1 RES1    0.0000
    155 H59        9.5828   15.9980    4.0607 H         1 RES1    0.0000
    156 H60       11.1849   16.0231    4.1797 H         1 RES1    0.0000
    157 C71       10.4145   17.7843    3.3409 C.3       1 RES1    0.0000
    158 H61       11.1808   18.3654    3.6130 H         1 RES1    0.0000
    159 C72       10.6562   17.3037    1.9326 C.3       1 RES1    0.0000
    160 H62       11.4781   16.7728    1.9071 H         1 RES1    0.0000
    161 H63        9.8982   16.7549    1.6407 H         1 RES1    0.0000
    162 H64       10.7481   18.0785    1.3375 H         1 RES1    0.0000
    163 C73        9.1297   18.6201    3.3863 C.3       1 RES1    0.0000
    164 H65        8.9741   18.9286    4.3044 H         1 RES1    0.0000
    165 H66        9.2215   19.3913    2.7912 H         1 RES1    0.0000
    166 H67        8.3717   18.0677    3.0944 H         1 RES1    0.0000
    167 N13        9.0655   11.8109    8.2407 N.am      1 RES1    0.0000
    168 H68        9.0475   12.2532    8.9998 H         1 RES1    0.0000
    169 C74        8.7445   10.4708    8.3291 C.ar      1 RES1    0.0000
    170 C75        8.7575    9.5608    7.3038 C.ar      1 RES1    0.0000
    171 H69        8.9305    9.8535    6.4183 H         1 RES1    0.0000
    172 C76        8.5218    8.2135    7.5470 C.ar      1 RES1    0.0000
    173 H70        8.5050    7.6044    6.8179 H         1 RES1    0.0000
    174 C77        8.3144    7.7483    8.8136 C.ar      1 RES1    0.0000
    175 H71        8.2176    6.8153    8.9658 H         1 RES1    0.0000
    176 C78        8.2427    8.6432    9.8936 C.ar      1 RES1    0.0000
    177 C79        8.4194   10.0328    9.6620 C.ar      1 RES1    0.0000
    178 C80        8.0340    8.2497   11.2478 C.ar      1 RES1    0.0000
    179 C81        7.9251    9.2093   12.2129 C.ar      1 RES1    0.0000
    180 H72        7.7692    8.9603   13.1172 H         1 RES1    0.0000
    181 C82        8.0464   10.5720   11.8664 C.ar      1 RES1    0.0000
    182 N14        8.2903   10.9777   10.6238 N.ar      1 RES1    0.0000
    183 C83        7.8420   11.5950   12.9188 C.2       1 RES1    0.0000
    184 O15        7.9512    6.9330   11.5144 O.3       1 RES1    0.0000
    185 H73        7.8067    6.8225   12.3351 H         1 RES1    0.0000
    186 O16        7.8251   11.2843   14.1081 O.2       1 RES1    0.0000
    187 N15        7.6749   12.8659   12.4765 N.am      1 RES1    0.0000
    188 H74        7.7510   12.9778   11.6068 H         1 RES1    0.0000
    189 C84        7.3970   14.0248   13.2081 C.ar      1 RES1    0.0000
    190 C85        7.4489   14.0804   14.5893 C.ar      1 RES1    0.0000
    191 H75        7.6767   13.2970   15.0781 H         1 RES1    0.0000
    192 C86        7.1708   15.2717   15.2897 C.ar      1 RES1    0.0000
    193 H76        7.1918   15.2842   16.2399 H         1 RES1    0.0000
    194 C87        6.8712   16.3976   14.5963 C.ar      1 RES1    0.0000
    195 H77        6.7016   17.2033   15.0696 H         1 RES1    0.0000
    196 C88        6.8086   16.3944   13.2107 C.ar      1 RES1    0.0000
    197 C89        7.0761   15.1777   12.4889 C.ar      1 RES1    0.0000
    198 C90        6.5219   17.5368   12.4852 C.ar      1 RES1    0.0000
    199 C91        6.5154   17.4579   11.1052 C.ar      1 RES1    0.0000
    200 H78        6.3510   18.2363   10.5838 H         1 RES1    0.0000
    201 C92        6.7542   16.2215   10.4776 C.ar      1 RES1    0.0000
    202 N16        7.0021   15.1067   11.1313 N.ar      1 RES1    0.0000
    203 C93        6.6999   16.2588    9.0253 C.2       1 RES1    0.0000
    204 O17        6.2200   18.6312   13.1908 O.3       1 RES1    0.0000
    205 O18        6.7258   17.3116    8.4042 O.2       1 RES1    0.0000
    206 C94        5.9272   19.8397   12.5079 C.3       1 RES1    0.0000
    207 H79        5.2908   19.6675   11.7712 H         1 RES1    0.0000
    208 H80        6.7581   20.2163   12.1197 H         1 RES1    0.0000
    209 C95        5.3057   20.8512   13.5252 C.3       1 RES1    0.0000
    210 H81        4.4364   20.5176   13.8879 H         1 RES1    0.0000
    211 C96        6.3466   21.0449   14.6445 C.3       1 RES1    0.0000
    212 H82        6.4714   20.1984   15.1234 H         1 RES1    0.0000
    213 H83        7.1994   21.3283   14.2535 H         1 RES1    0.0000
    214 H84        6.0300   21.7300   15.2708 H         1 RES1    0.0000
    215 C97        5.1376   22.2071   12.7970 C.3       1 RES1    0.0000
    216 H85        4.4792   22.1103   12.0772 H         1 RES1    0.0000
    217 H86        4.8293   22.8851   13.4317 H         1 RES1    0.0000
    218 H87        5.9959   22.4833   12.4172 H         1 RES1    0.0000
    219 N17        6.6027   15.0550    8.3676 N.am      1 RES1    0.0000
    220 H88        6.5852   14.3444    8.8865 H         1 RES1    0.0000
    221 C98        6.5273   14.7928    7.0247 C.ar      1 RES1    0.0000
    222 C99        6.7674   15.7541    6.0613 C.ar      1 RES1    0.0000
    223 H89        6.9750   16.6437    6.3191 H         1 RES1    0.0000
    224 C100       6.7051   15.4133    4.6813 C.ar      1 RES1    0.0000
    225 H90        6.8628   16.0949    4.0380 H         1 RES1    0.0000
    226 C101       6.4240   14.1435    4.2335 C.ar      1 RES1    0.0000
    227 H91        6.4044   13.9247    3.3069 H         1 RES1    0.0000
    228 C102       6.1699   13.1822    5.2338 C.ar      1 RES1    0.0000
    229 C103       6.2219   13.5122    6.5657 C.ar      1 RES1    0.0000
    230 C104       5.8281   11.8658    4.8598 C.ar      1 RES1    0.0000
    231 C105       5.5162   10.8865    5.8402 C.ar      1 RES1    0.0000
    232 H92        5.2702    9.9970    5.6135 H         1 RES1    0.0000
    233 C106       5.5959   11.3313    7.1721 C.ar      1 RES1    0.0000
    234 N18        5.9201   12.5574    7.5665 N.ar      1 RES1    0.0000
    235 C107       5.2861   10.3410    8.1865 C.2       1 RES1    0.0000
    236 O19        5.1084    9.1063    8.0590 O.2       1 RES1    0.0000
    237 O20        5.8020   11.6649    3.5364 O.3       1 RES1    0.0000
    238 C108       5.2301   10.5745    2.9612 C.3       1 RES1    0.0000
    239 H93        4.3307   10.4095    3.3409 H         1 RES1    0.0000
    240 H94        5.7886    9.7674    3.1086 H         1 RES1    0.0000
    241 C109       5.1300   10.9260    1.3517 C.3       1 RES1    0.0000
    242 H95        4.6682   10.1727    0.8841 H         1 RES1    0.0000
    243 C110       4.3446   12.3249    1.0116 C.3       1 RES1    0.0000
    244 H96        3.4343   12.2855    1.3743 H         1 RES1    0.0000
    245 H97        4.8257   13.0746    1.4168 H         1 RES1    0.0000
    246 H98        4.3032   12.4469    0.0397 H         1 RES1    0.0000
    247 C111       6.5010   11.1125    0.7453 C.3       1 RES1    0.0000
    248 H99        7.0403   10.3126    0.9068 H         1 RES1    0.0000
    249 H100       6.4130   11.2596   -0.2182 H         1 RES1    0.0000
    250 H101       6.9356   11.8909    1.1561 H         1 RES1    0.0000
    251 C112       3.4411   11.7403   18.7874 C.3       1 RES1    0.0000
    252 H102       3.3288   10.7646   18.7760 H         1 RES1    0.0000
    253 H103       3.5101   12.0487   19.7140 H         1 RES1    0.0000
    254 H104       2.6697   12.1635   18.3567 H         1 RES1    0.0000
    255 C113       4.7167   12.1133   18.0279 C.3       1 RES1    0.0000
    256 H105       5.5100   11.6649   18.4417 H         1 RES1    0.0000
    257 C114       4.8892   13.6127   18.0449 C.3       1 RES1    0.0000
    258 H106       4.9965   13.9176   18.9687 H         1 RES1    0.0000
    259 H107       5.6848   13.8566   17.5264 H         1 RES1    0.0000
    260 H108       4.1013   14.0359   17.6482 H         1 RES1    0.0000
    261 C115       4.5559   11.6649   16.5771 C.3       1 RES1    0.0000
    262 H109       3.6967   11.9913   16.2059 H         1 RES1    0.0000
    263 H110       5.2968   12.0129   16.0217 H         1 RES1    0.0000
    264 O21        4.5777   10.2481   16.6139 O.3       1 RES1    0.0000
    265 C116       4.5856    9.6433   15.3869 C.ar      1 RES1    0.0000
    266 C117       4.6174    8.2418   15.3813 C.ar      1 RES1    0.0000
    267 C118       4.5991    7.6044   14.1401 C.ar      1 RES1    0.0000
    268 H111       4.5920    6.6539   14.1175 H         1 RES1    0.0000
    269 C119       4.7559    7.3519   16.5374 C.2       1 RES1    0.0000
    270 O22        4.8147    6.1176   16.4629 O.2       1 RES1    0.0000
    271 N19        4.8683    7.9266   17.7644 N.am      1 RES1    0.0000
    272 H112       4.7965    8.7989   17.8608 H         1 RES1    0.0000
    273 C120       4.5946   10.3395   14.1798 C.ar      1 RES1    0.0000
    274 H113       4.5781   11.2883   14.2025 H         1 RES1    0.0000
    275 C121       4.6269    9.7010   12.9443 C.ar      1 RES1    0.0000
    276 C122       4.7763   10.5964   11.7938 C.2       1 RES1    0.0000
    277 O23        4.8350   11.8163   11.8723 O.2       1 RES1    0.0000
    278 N20        4.9037   10.0275   10.5470 N.am      1 RES1    0.0000
    279 H114       4.8393    9.1576   10.4450 H         1 RES1    0.0000
    280 C123       4.5916    8.3003   12.9330 C.ar      1 RES1    0.0000
    281 O24        4.5567    7.6295   11.7400 O.3       1 RES1    0.0000
    282 C124       4.3870    6.2234   11.7031 C.3       1 RES1    0.0000
    283 H115       3.5695    5.9867   12.2047 H         1 RES1    0.0000
    284 H116       5.1556    5.7966   12.1594 H         1 RES1    0.0000
    285 C125       4.2835    5.6962   10.3486 C.3       1 RES1    0.0000
    286 H117       5.1907    6.0513   10.1276 H         1 RES1    0.0000
    287 C126       4.8176    4.2757   10.3401 C.3       1 RES1    0.0000
    288 H118       5.1469    4.0425   11.2328 H         1 RES1    0.0000
    289 H119       4.0978    3.6587   10.0879 H         1 RES1    0.0000
    290 H120       5.5479    4.2040    9.6912 H         1 RES1    0.0000
    291 C127       3.7275    6.3203    9.1755 C.3       1 RES1    0.0000
    292 H121       3.8034    5.7105    8.4132 H         1 RES1    0.0000
    293 H122       2.7821    6.5319    9.3313 H         1 RES1    0.0000
    294 H123       4.2156    7.1489    8.9800 H         1 RES1    0.0000
    295 N21        6.5631    2.9051   19.9789 N.am      1 RES1    0.0000
    296 H124       6.5402    3.6121   19.4533 H         1 RES1    0.0000
    297 C128       6.4891    3.1853   21.3065 C.ar      1 RES1    0.0000
    298 C129       6.7401    2.1917   22.3040 C.ar      1 RES1    0.0000
    299 H125       6.9557    1.3021   22.0518 H         1 RES1    0.0000
    300 C130       6.6642    2.5324   23.6387 C.ar      1 RES1    0.0000
    301 H126       6.8161    1.8509   24.2791 H         1 RES1    0.0000
    302 C131       6.3837    3.7986   24.1034 C.ar      1 RES1    0.0000
    303 H127       6.3623    4.0139   25.0272 H         1 RES1    0.0000
    304 C132       6.1304    4.7599   23.0691 C.ar      1 RES1    0.0000
    305 C133       6.1697    4.4407   21.7769 C.ar      1 RES1    0.0000
    306 C134       5.7963    6.0477   23.4885 C.ar      1 RES1    0.0000
    307 C135       5.5001    7.0090   22.5137 C.ar      1 RES1    0.0000
    308 H128       5.2694    7.8986   22.7545 H         1 RES1    0.0000
    309 C136       5.5560    6.6037   21.1563 C.ar      1 RES1    0.0000
    310 N22        5.8859    5.3945   20.7693 N.ar      1 RES1    0.0000
    311 C137       5.2440    7.6077   20.1504 C.2       1 RES1    0.0000
    312 O25        5.7610    6.2486   24.8146 O.3       1 RES1    0.0000
    313 O26        5.0766    8.8201   20.2751 O.2       1 RES1    0.0000
    314 C138       5.1534    7.3534   25.4040 C.3       1 RES1    0.0000
    315 H129       4.2559    7.5112   25.0158 H         1 RES1    0.0000
    316 H130       5.7042    8.1676   25.2794 H         1 RES1    0.0000
    317 C139       5.0399    6.9552   27.0164 C.3       1 RES1    0.0000
    318 H131       4.6141    7.7085   27.5151 H         1 RES1    0.0000
    319 C140       4.2583    5.5706   27.3593 C.3       1 RES1    0.0000
    320 H132       3.3305    5.6388   27.0561 H         1 RES1    0.0000
    321 H133       4.7005    4.8245   26.9031 H         1 RES1    0.0000
    322 H134       4.2752    5.4200   28.3284 H         1 RES1    0.0000
    323 C141       6.4849    6.7436   27.5350 C.3       1 RES1    0.0000
    324 H135       7.0167    7.5470   27.3565 H         1 RES1    0.0000
    325 H136       6.4634    6.5714   28.4984 H         1 RES1    0.0000
    326 H137       6.8887    5.9759   27.0759 H         1 RES1    0.0000
    327 N23        7.6600    5.0584   15.8712 N.am      1 RES1    0.0000
    328 H138       7.7384    4.9501   16.7414 H         1 RES1    0.0000
    329 C142       7.3778    3.9095   15.1339 C.ar      1 RES1    0.0000
    330 C143       7.4288    3.8424   13.7477 C.ar      1 RES1    0.0000
    331 H139       7.6347    4.6236   13.2475 H         1 RES1    0.0000
    332 C144       7.1842    2.6515   13.0803 C.ar      1 RES1    0.0000
    333 H140       7.2402    2.6293   12.1310 H         1 RES1    0.0000
    334 C145       6.8706    1.5291   13.7462 C.ar      1 RES1    0.0000
    335 H141       6.6923    0.7282   13.2673 H         1 RES1    0.0000
    336 C146       6.8066    1.5356   15.1404 C.ar      1 RES1    0.0000
    337 C147       7.0555    2.7559   15.8469 C.ar      1 RES1    0.0000
    338 C148       6.5134    0.3956   15.8828 C.ar      1 RES1    0.0000
    339 C149       6.4859    0.4839   17.2373 C.ar      1 RES1    0.0000
    340 H142       6.3006   -0.2870   17.7616 H         1 RES1    0.0000
    341 C150       6.7329    1.7175   17.8642 C.ar      1 RES1    0.0000
    342 N24        6.9856    2.8395   17.2152 N.ar      1 RES1    0.0000
    343 C151       6.6669    1.7017   19.3144 C.2       1 RES1    0.0000
    344 O27        6.2250   -0.7041   15.1574 O.3       1 RES1    0.0000
    345 O28        6.6858    0.6478   19.9682 O.2       1 RES1    0.0000
    346 C152       5.8479   -1.8878   15.7950 C.3       1 RES1    0.0000
    347 H143       5.1369   -1.6931   16.4581 H         1 RES1    0.0000
    348 H144       6.6247   -2.2634   16.2796 H         1 RES1    0.0000
    349 C153       5.3354   -2.9126   14.7862 C.3       1 RES1    0.0000
    350 H145       4.4159   -2.7118   14.4462 H         1 RES1    0.0000
    351 C154       6.3324   -3.1099   13.7094 C.3       1 RES1    0.0000
    352 H146       5.9943   -3.7699   13.0690 H         1 RES1    0.0000
    353 H147       6.4924   -2.2598   13.2503 H         1 RES1    0.0000
    354 H148       7.1724   -3.4328   14.0976 H         1 RES1    0.0000
    355 C155       5.4377   -4.2901   15.5400 C.3       1 RES1    0.0000
    356 H149       4.8140   -4.2936   16.2966 H         1 RES1    0.0000
    357 H150       5.2118   -5.0146   14.9222 H         1 RES1    0.0000
    358 H151       6.3545   -4.4120   15.8687 H         1 RES1    0.0000
    359 N25        9.0283    6.1187   20.0980 N.am      1 RES1    0.0000
    360 H152       9.0085    5.6746   19.3371 H         1 RES1    0.0000
    361 C156       8.7157    7.4653   20.0076 C.ar      1 RES1    0.0000
    362 C157       8.7209    8.3570   21.0319 C.ar      1 RES1    0.0000
    363 H153       8.8790    8.0564   21.9186 H         1 RES1    0.0000
    364 C158       8.4941    9.7226   20.7899 C.ar      1 RES1    0.0000
    365 H154       8.4910   10.3306   21.5191 H         1 RES1    0.0000
    366 C159       8.2778   10.1914   19.5207 C.ar      1 RES1    0.0000
    367 H155       8.1675   11.1233   19.3711 H         1 RES1    0.0000
    368 C160       8.2183    9.2882   18.4377 C.ar      1 RES1    0.0000
    369 C161       8.3895    7.9111   18.6780 C.ar      1 RES1    0.0000
    370 C162       8.0123    9.6860   17.1002 C.ar      1 RES1    0.0000
    371 C163       7.9046    8.7078   16.1229 C.ar      1 RES1    0.0000
    372 H156       7.7531    8.9532   15.2169 H         1 RES1    0.0000
    373 C164       8.0174    7.3681   16.4725 C.ar      1 RES1    0.0000
    374 N26        8.2814    6.9530   17.7160 N.ar      1 RES1    0.0000
    375 C165       7.8304    6.3242   15.4153 C.2       1 RES1    0.0000
    376 O29        7.9316   10.9970   16.8284 O.3       1 RES1    0.0000
    377 H157       7.7923   11.1054   16.0075 H         1 RES1    0.0000
    378 O30        7.8212    6.6431   14.2325 O.2       1 RES1    0.0000
    379 N27       10.3745    3.0400   17.0002 N.am      1 RES1    0.0000
    380 H158      10.3173    3.8524   17.3337 H         1 RES1    0.0000
    381 C166      10.2710    1.9933   17.9171 C.ar      1 RES1    0.0000
    382 C167      10.3797    0.6525   17.5763 C.ar      1 RES1    0.0000
    383 H159      10.4805    0.3946   16.6678 H         1 RES1    0.0000
    384 C168      10.3378   -0.3182   18.5919 C.ar      1 RES1    0.0000
    385 H160      10.3587   -1.2339   18.3453 H         1 RES1    0.0000
    386 C169      10.2680   -0.0043   19.9124 C.ar      1 RES1    0.0000
    387 H161      10.2984   -0.6887   20.5698 H         1 RES1    0.0000
    388 C170      10.1484    1.3605   20.3011 C.ar      1 RES1    0.0000
    389 C171      10.0956    2.3577   19.2821 C.ar      1 RES1    0.0000
    390 C172      10.0520    1.7781   21.6469 C.ar      1 RES1    0.0000
    391 C173       9.8623    3.1035   21.9501 C.ar      1 RES1    0.0000
    392 H162       9.8217    3.4077   22.8509 H         1 RES1    0.0000
    393 C174       9.7296    3.9920   20.8704 C.ar      1 RES1    0.0000
    394 N28        9.8656    3.6706   19.5876 N.ar      1 RES1    0.0000
    395 C175       9.3620    5.3880   21.1892 C.2       1 RES1    0.0000
    396 O31       10.1464    0.7995   22.5868 O.3       1 RES1    0.0000
    397 O32        9.3296    5.8145   22.3476 O.2       1 RES1    0.0000
    398 C176      10.1861    1.1407   23.9334 C.3       1 RES1    0.0000
    399 H163       9.3913    1.6967   24.1374 H         1 RES1    0.0000
    400 H164      10.9883    1.6967   24.0920 H         1 RES1    0.0000
    401 C177      10.2139   -0.0072   24.8855 C.3       1 RES1    0.0000
    402 H165      10.9841   -0.6134   24.6843 H         1 RES1    0.0000
    403 C178      10.2570    0.4448   26.3165 C.3       1 RES1    0.0000
    404 H166      10.2747   -0.3372   26.9059 H         1 RES1    0.0000
    405 H167      11.0620    0.9864   26.4638 H         1 RES1    0.0000
    406 H168       9.4622    0.9828   26.5120 H         1 RES1    0.0000
    407 C179       8.8696   -0.7246   24.6191 C.3       1 RES1    0.0000
    408 H169       8.7942   -1.5030   25.2057 H         1 RES1    0.0000
    409 H170       8.1296   -0.1076   24.7976 H         1 RES1    0.0000
    410 H171       8.8363   -1.0151   23.6840 H         1 RES1    0.0000
    411 N29       11.6208    7.6285   17.2407 N.am      1 RES1    0.0000
    412 H172      11.6588    6.8296   17.6057 H         1 RES1    0.0000
    413 C180      11.4359    7.7709   15.8131 C.3       1 RES1    0.0000
    414 H173      12.2120    8.2644   15.4465 H         1 RES1    0.0000
    415 H174      10.6309    8.3254   15.6561 H         1 RES1    0.0000
    416 C181      11.2863    6.4986   15.0506 C.ar      1 RES1    0.0000
    417 C182      11.4095    6.5667   13.6966 C.ar      1 RES1    0.0000
    418 H175      11.6256    7.3964   13.2843 H         1 RES1    0.0000
    419 N30       10.9990    5.3565   15.7023 N.ar      1 RES1    0.0000
    420 C183      10.8433    4.2531   14.9588 C.ar      1 RES1    0.0000
    421 C184      10.5548    2.9621   15.6355 C.2       1 RES1    0.0000
    422 O33       10.4758    1.9122   15.0163 O.2       1 RES1    0.0000
    423 C185      10.9376    4.2395   13.5779 C.ar      1 RES1    0.0000
    424 H176      10.8125    3.4292   13.0945 H         1 RES1    0.0000
    425 C186      11.2192    5.4246   12.9041 C.ar      1 RES1    0.0000
    426 O34       11.3153    5.4408   11.5643 O.3       1 RES1    0.0000
    427 H177      11.4852    6.2199   11.3064 H         1 RES1    0.0000
    428 N31       12.8669    4.8446   20.7089 N.am      1 RES1    0.0000
    429 H178      12.7818    5.1509   19.8897 H         1 RES1    0.0000
    430 C187      12.6297    5.7844   21.6987 C.ar      1 RES1    0.0000
    431 C188      12.6976    5.5222   23.0575 C.ar      1 RES1    0.0000
    432 H179      12.8801    4.6416   23.3666 H         1 RES1    0.0000
    433 C189      12.4941    6.5664   23.9691 C.ar      1 RES1    0.0000
    434 H180      12.5230    6.3813   24.8996 H         1 RES1    0.0000
    435 C190      12.2527    7.8537   23.5468 C.ar      1 RES1    0.0000
    436 H181      12.1440    8.5514   24.1827 H         1 RES1    0.0000
    437 C191      12.1687    8.1357   22.1714 C.ar      1 RES1    0.0000
    438 C192      12.3233    7.1008   21.2312 C.ar      1 RES1    0.0000
    439 C193      11.9571    9.4413   21.6522 C.ar      1 RES1    0.0000
    440 C194      11.8558    9.6246   20.3025 C.ar      1 RES1    0.0000
    441 H182      11.7216   10.4920   19.9407 H         1 RES1    0.0000
    442 C195      11.9512    8.5134   19.4629 C.ar      1 RES1    0.0000
    443 N32       12.1871    7.2784   19.8917 N.ar      1 RES1    0.0000
    444 C196      11.7316    8.7175   18.0010 C.2       1 RES1    0.0000
    445 O35       11.6623    9.8564   17.5233 O.2       1 RES1    0.0000
    446 O36       11.8904   10.4181   22.6015 O.3       1 RES1    0.0000
    447 C197      11.6697   11.7625   22.1283 C.3       1 RES1    0.0000
    448 H183      10.7640   11.8479   21.7372 H         1 RES1    0.0000
    449 H184      12.3370   11.9985   21.4340 H         1 RES1    0.0000
    450 C198      11.8147   12.6765   23.3440 C.3       1 RES1    0.0000
    451 H185      11.6895   13.6091   23.0067 H         1 RES1    0.0000
    452 C199      10.5991   12.3716   24.1941 C.3       1 RES1    0.0000
    453 H186       9.7896   12.4505   23.6500 H         1 RES1    0.0000
    454 H187      10.6667   11.4605   24.5483 H         1 RES1    0.0000
    455 H188      10.5562   13.0065   24.9393 H         1 RES1    0.0000
    456 C200      13.2102   12.6262   23.9419 C.3       1 RES1    0.0000
    457 H189      13.8693   12.8522   23.2504 H         1 RES1    0.0000
    458 H190      13.2741   13.2719   24.6758 H         1 RES1    0.0000
    459 H191      13.3874   11.7259   24.2819 H         1 RES1    0.0000
    460 N33       14.3778    5.4759   16.5754 N.am      1 RES1    0.0000
    461 H192      14.3245    5.5921   17.4470 H         1 RES1    0.0000
    462 C201      14.1762    4.1659   16.1518 C.ar      1 RES1    0.0000
    463 C202      14.3264    3.6835   14.8757 C.ar      1 RES1    0.0000
    464 H193      14.5133    4.2865   14.1656 H         1 RES1    0.0000
    465 C203      14.2093    2.3226   14.6031 C.ar      1 RES1    0.0000
    466 H194      14.2788    2.0195   13.7066 H         1 RES1    0.0000
    467 C204      13.9923    1.4004   15.6196 C.ar      1 RES1    0.0000
    468 H195      13.9432    0.4735   15.4209 H         1 RES1    0.0000
    469 C205      13.8472    1.8538   16.9486 C.ar      1 RES1    0.0000
    470 C206      13.8649    3.2333   17.2056 C.ar      1 RES1    0.0000
    471 C207      13.7113    0.9807   18.0631 C.ar      1 RES1    0.0000
    472 C208      13.5401    1.5202   19.3139 C.ar      1 RES1    0.0000
    473 H196      13.4662    0.9577   20.0767 H         1 RES1    0.0000
    474 C209      13.4745    2.9116   19.4507 C.ar      1 RES1    0.0000
    475 N34       13.6518    3.7606   18.4337 N.ar      1 RES1    0.0000
    476 C210      13.2111    3.5210   20.7837 C.2       1 RES1    0.0000
    477 O37       13.8089   -0.3318   17.7964 O.3       1 RES1    0.0000
    478 O38       13.2830    2.8872   21.8251 O.2       1 RES1    0.0000
    479 C211      13.9265   -1.2411   18.8922 C.3       1 RES1    0.0000
    480 H197      13.0870   -1.2447   19.4193 H         1 RES1    0.0000
    481 H198      14.6646   -0.9577   19.4873 H         1 RES1    0.0000
    482 C212      14.2017   -2.6253   18.3493 C.3       1 RES1    0.0000
    483 H199      15.0003   -2.5898   17.7502 H         1 RES1    0.0000
    484 C213      14.4865   -3.5981   19.5139 C.3       1 RES1    0.0000
    485 H200      15.2577   -3.2785   20.0257 H         1 RES1    0.0000
    486 H201      13.7017   -3.6444   20.0994 H         1 RES1    0.0000
    487 H202      14.6764   -4.4909   19.1558 H         1 RES1    0.0000
    488 C214      13.0149   -3.1164   17.5618 C.3       1 RES1    0.0000
    489 H203      13.2020   -4.0139   17.2147 H         1 RES1    0.0000
    490 H204      12.2273   -3.1494   18.1441 H         1 RES1    0.0000
    491 H205      12.8414   -2.5073   16.8151 H         1 RES1    0.0000
    492 N35       15.6241    7.2762   20.6412 N.am      1 RES1    0.0000
    493 H206      15.6522    6.6611   20.0115 H         1 RES1    0.0000
    494 C215      15.4457    8.5758   20.2045 C.ar      1 RES1    0.0000
    495 C216      15.4870    9.6953   21.0226 C.ar      1 RES1    0.0000
    496 H207      15.6146    9.5916   21.9583 H         1 RES1    0.0000
    497 C217      15.3451   10.9705   20.4833 C.ar      1 RES1    0.0000
    498 H208      15.3730   11.7223   21.0628 H         1 RES1    0.0000
    499 C218      15.1686   11.1717   19.1484 C.ar      1 RES1    0.0000
    500 H209      15.0963   12.0559   18.8072 H         1 RES1    0.0000
    501 C219      15.0938   10.0694   18.2750 C.ar      1 RES1    0.0000
    502 C220      15.2043    8.7419   18.7990 C.ar      1 RES1    0.0000
    503 C221      14.9170   10.1853   16.8690 C.ar      1 RES1    0.0000
    504 C222      14.8213    9.0608   16.1132 C.ar      1 RES1    0.0000
    505 H210      14.7190    9.1289   15.1716 H         1 RES1    0.0000
    506 C223      14.8746    7.8014   16.7230 C.ar      1 RES1    0.0000
    507 N36       15.0692    7.6281   18.0274 N.ar      1 RES1    0.0000
    508 C224      14.6406    6.5886   15.8840 C.2       1 RES1    0.0000
    509 O39       14.8388   11.4371   16.3632 O.3       1 RES1    0.0000
    510 H211      14.7154   11.3959   15.5343 H         1 RES1    0.0000
    511 O40       14.6540    6.6596   14.6567 O.2       1 RES1    0.0000
    512 N37       16.8680    3.3406   18.3671 N.pl3     1 RES1    0.0000
    513 C225      16.8720    2.7186   19.6548 C.ar      1 RES1    0.0000
    514 C226      17.1705    1.3573   19.7007 C.ar      1 RES1    0.0000
    515 H212      17.3204    0.8824   18.8922 H         1 RES1    0.0000
    516 C227      17.2508    0.6916   20.9013 C.ar      1 RES1    0.0000
    517 H213      17.4497   -0.2367   20.9013 H         1 RES1    0.0000
    518 C228      17.0543    1.3243   22.0878 C.ar      1 RES1    0.0000
    519 H214      17.1243    0.8465   22.9076 H         1 RES1    0.0000
    520 C229      16.7417    2.7103   22.0852 C.ar      1 RES1    0.0000
    521 C230      16.6261    3.4170   20.8546 C.ar      1 RES1    0.0000
    522 C231      16.5377    3.4424   23.3082 C.ar      1 RES1    0.0000
    523 C232      16.2203    4.7556   23.2499 C.ar      1 RES1    0.0000
    524 H215      16.0916    5.2585   24.0439 H         1 RES1    0.0000
    525 C233      16.0867    5.3568   21.9965 C.ar      1 RES1    0.0000
    526 N38       16.2668    4.7427   20.8412 N.ar      1 RES1    0.0000
    527 C234      15.7637    6.8196   21.9212 C.2       1 RES1    0.0000
    528 O41       16.7215    2.7215   24.4264 O.3       1 RES1    0.0000
    529 O42       15.6632    7.5119   22.9231 O.2       1 RES1    0.0000
    530 C235      16.5754    3.3901   25.6755 C.3       1 RES1    0.0000
    531 H216      15.6271    3.6444   25.8121 H         1 RES1    0.0000
    532 H217      17.1202    4.2147   25.6817 H         1 RES1    0.0000
    533 C236      17.0244    2.4757   26.7770 C.3       1 RES1    0.0000
    534 H218      17.9672    2.2060   26.5800 H         1 RES1    0.0000
    535 C237      17.0294    3.2602   28.1051 C.3       1 RES1    0.0000
    536 H219      17.3207    2.6723   28.8328 H         1 RES1    0.0000
    537 H220      17.6432    4.0210   28.0337 H         1 RES1    0.0000
    538 H221      16.1250    3.5870   28.2944 H         1 RES1    0.0000
    539 C238      16.1834    1.2095   26.8067 C.3       1 RES1    0.0000
    540 H222      16.4939    0.6277   27.5321 H         1 RES1    0.0000
    541 H223      15.2435    1.4456   26.9569 H         1 RES1    0.0000
    542 H224      16.2704    0.7389   25.9509 H         1 RES1    0.0000
    543 O43       16.8535    4.5526   18.2572 O.2       1 RES1    0.0000
    544 O44       16.8872    2.6164   17.3688 O.2       1 RES1    0.0000
    545 N39        5.1323   10.8331    9.4787 N.am      1 RES1    0.0000
    546 H225       5.1865   11.7008    9.6090 H         1 RES1    0.0000
    547 N40        5.0992    7.1166   18.8611 N.am      1 RES1    0.0000
    548 H226       5.1560    6.2486   18.7335 H         1 RES1    0.0000
    549 C239      11.6702    6.1732    6.2115 Du        2 SUP2    0.0000
    550 H227      10.9373    6.1696    6.8774 Du        2 SUP2    0.0000
    551 H228      12.4855    5.8145    6.6478 Du        2 SUP2    0.0000
    552 C240      11.2897    5.2872    5.0270 Du        2 SUP2    0.0000
    553 H229      10.3508    5.5025    4.7634 Du        2 SUP2    0.0000
    554 C241      12.1883    5.5455    3.8340 Du        2 SUP2    0.0000
    555 H230      12.1697    6.4996    3.6130 Du        2 SUP2    0.0000
    556 H231      13.1054    5.2765    4.0522 Du        2 SUP2    0.0000
    557 H232      11.8669    5.0290    3.0661 Du        2 SUP2    0.0000
    558 C242      11.3822    3.7950    5.2820 Du        2 SUP2    0.0000
    559 H233      10.8270    3.5547    6.0471 Du        2 SUP2    0.0000
    560 H234      11.0828    3.3072    4.4886 Du        2 SUP2    0.0000
    561 H235      12.3212    3.5547    5.4719 Du        2 SUP2    0.0000
    562 O45       10.0822   17.2642    5.9196 Du        2 SUP2    0.0000
    563 C243      10.0117   16.9701    4.5254 Du        2 SUP2    0.0000
    564 H236       9.4094   16.1989    4.3724 Du        2 SUP2    0.0000
    565 H237      10.9110   16.7334    4.1854 Du        2 SUP2    0.0000
    566 C244       9.4875   18.1825    3.7915 Du        2 SUP2    0.0000
    567 H238      10.1062   18.9465    3.9728 Du        2 SUP2    0.0000
    568 C245       8.0513   18.6201    4.1485 Du        2 SUP2    0.0000
    569 H239       7.8116   19.4093    3.6215 Du        2 SUP2    0.0000
    570 H240       7.4273   17.8920    3.9502 Du        2 SUP2    0.0000
    571 H241       8.0052   18.8389    5.1035 Du        2 SUP2    0.0000
    572 C246       9.5460   17.8597    2.2896 Du        2 SUP2    0.0000
    573 H242       9.2131   18.6237    1.7767 Du        2 SUP2    0.0000
    574 H243      10.4725   17.6696    2.0318 Du        2 SUP2    0.0000
    575 H244       8.9904   17.0741    2.1026 Du        2 SUP2    0.0000
    576 C247       3.5420   13.7059   17.8438 Du        2 SUP2    0.0000
    577 H245       4.3096   14.2655   17.6029 Du        2 SUP2    0.0000
    578 H246       2.8727   13.7418   17.1297 Du        2 SUP2    0.0000
    579 H247       3.1483   14.0323   18.6797 Du        2 SUP2    0.0000
    580 C248       4.0154   12.2245   18.0364 Du        2 SUP2    0.0000
    581 H248       4.7396   12.1348   18.7222 Du        2 SUP2    0.0000
    582 C249       2.7517   11.4497   18.4105 Du        2 SUP2    0.0000
    583 H249       2.4400   11.7367   19.2946 Du        2 SUP2    0.0000
    584 H250       2.0521   11.6255   17.7446 Du        2 SUP2    0.0000
    585 H251       2.9489   10.4884   18.4275 Du        2 SUP2    0.0000
    586 C250       4.4489   11.7331   16.6508 Du        2 SUP2    0.0000
    587 H252       3.7986   12.0523   15.9764 Du        2 SUP2    0.0000
    588 H253       5.3314   12.1241   16.4297 Du        2 SUP2    0.0000
    589 O46        4.5367   10.3162   16.5828 Du        2 SUP2    0.0000
    590 O47        4.6335    7.7264   11.7116 Du        2 SUP2    0.0000
    591 C251       4.7757    6.2844   11.7967 Du        2 SUP2    0.0000
    592 H254       4.0376    5.8791   12.3181 Du        2 SUP2    0.0000
    593 H255       5.6403    6.0333   12.2075 Du        2 SUP2    0.0000
    594 C252       4.7136    5.8755   10.3316 Du        2 SUP2    0.0000
    595 H256       4.8507    4.8855   10.2778 Du        2 SUP2    0.0000
    596 C253       5.7703    6.5499    9.4759 Du        2 SUP2    0.0000
    597 H257       5.6821    6.2450    8.5464 Du        2 SUP2    0.0000
    598 H258       5.6524    7.5219    9.5127 Du        2 SUP2    0.0000
    599 H259       6.6624    6.3131    9.8102 Du        2 SUP2    0.0000
    600 C254       3.3014    6.1983    9.8046 Du        2 SUP2    0.0000
    601 H260       2.6344    5.7571   10.3685 Du        2 SUP2    0.0000
    602 H261       3.1589    7.1668    9.8272 Du        2 SUP2    0.0000
    603 H262       3.2160    5.8791    8.8836 Du        2 SUP2    0.0000
    604 O48       11.8139   10.4561   22.5222 Du        2 SUP2    0.0000
    605 C255      11.8616   11.8084   22.0490 Du        2 SUP2    0.0000
    606 H263      11.3432   11.8945   21.2130 Du        2 SUP2    0.0000
    607 H264      12.8044   12.0631   21.8534 Du        2 SUP2    0.0000
    608 C256      11.2920   12.7159   23.1229 Du        2 SUP2    0.0000
    609 H265      10.3357   12.4612   23.2646 Du        2 SUP2    0.0000
    610 C257      12.0475   12.5222   24.4406 Du        2 SUP2    0.0000
    611 H266      11.6514   13.1141   25.1207 Du        2 SUP2    0.0000
    612 H267      11.9455   11.5932   24.7325 Du        2 SUP2    0.0000
    613 H268      12.9819   12.7374   24.3187 Du        2 SUP2    0.0000
    614 C258      11.3367   14.2189   22.7857 Du        2 SUP2    0.0000
    615 H269      10.9486   14.7318   23.5253 Du        2 SUP2    0.0000
    616 H270      12.2683   14.4951   22.6497 Du        2 SUP2    0.0000
    617 H271      10.8237   14.3875   21.9668 Du        2 SUP2    0.0000
@<TRIPOS>BOND
     1    1    3 2
     2    2    3 2
     3    3    4 1
     4    4    5 ar
     5    5    6 1
     6    7    5 ar
     7    8    7 1
     8    9    7 ar
     9   10    9 1
    10   11    9 ar
    11   12    4 ar
    12   13   11 ar
    13   14   13 ar
    14   15   14 1
    15   16   14 ar
    16   17   12 ar
    17   18   16 1
    18   19   13 1
    19   20   18 2
    20   21   19 1
    21   22   21 1
    22   23   21 1
    23   24   21 1
    24   25   24 1
    25   26   24 1
    26   27   26 1
    27   28   26 1
    28   29   26 1
    29   30   24 1
    30   31   30 1
    31   32   30 1
    32   33   30 1
    33   34   18 1
    34   35   34 1
    35   36   34 1
    36   37   36 ar
    37   38   37 1
    38   39   37 ar
    39   40   39 1
    40   41   39 ar
    41   42   41 1
    42   43   41 ar
    43   44   36 ar
    44   45   43 ar
    45   46   45 ar
    46   47   46 1
    47   48   46 ar
    48   49   44 ar
    49   50   48 1
    50   51   45 1
    51   52   51 1
    52   53   50 2
    53   54   50 1
    54   55   54 1
    55   56   54 1
    56   57   56 ar
    57   58   57 1
    58   59   57 ar
    59   60   59 1
    60   61   59 ar
    61   62   61 1
    62   63   61 ar
    63   64   56 ar
    64   65   63 ar
    65   66   65 ar
    66   67   66 1
    67   68   66 ar
    68   69   64 ar
    69   70   68 1
    70   71   65 1
    71   72   70 2
    72   73   71 1
    73   74   73 1
    74   75   73 1
    75   76   73 1
    76   77   76 1
    77   78   76 1
    78   79   78 1
    79   80   78 1
    80   81   78 1
    81   82   76 1
    82   83   82 1
    83   84   82 1
    84   85   82 1
    85   86   70 1
    86   87   86 1
    87   88   86 1
    88   89   88 ar
    89   90   89 1
    90   91   89 ar
    91   92   91 1
    92   93   91 ar
    93   94   93 1
    94   95   93 ar
    95   96   88 ar
    96   97   95 ar
    97   98   97 ar
    98   99   98 1
    99  100   98 ar
   100  101   96 ar
   101  102  100 1
   102  103   97 1
   103  104  102 2
   104  105  103 1
   105  106  105 1
   106  107  105 1
   107  108  105 1
   108  109  108 1
   109  110  108 1
   110  111  110 1
   111  112  110 1
   112  113  110 1
   113  114  108 1
   114  115  114 1
   115  116  114 1
   116  117  114 1
   117  118  102 1
   118  119  118 1
   119  120  118 1
   120  121  120 1
   121  122  120 1
   122  123  120 1
   123  124  123 ar
   124  125  124 1
   125  126  123 ar
   126  127  126 ar
   127  128  127 1
   128  129  128 2
   129  130  127 ar
   130  131  130 1
   131  132  124 ar
   132  133  132 1
   133  134  133 1
   134  135  128 1
   135  136  135 1
   136  137  135 1
   137  138  137 ar
   138  139  138 1
   139  140  138 ar
   140  141  140 1
   141  142  140 ar
   142  143  142 1
   143  144  142 ar
   144  145  137 ar
   145  146  144 ar
   146  147  146 ar
   147  148  147 1
   148  149  147 ar
   149  150  145 ar
   150  151  149 1
   151  152  151 2
   152  153  146 1
   153  154  153 1
   154  155  154 1
   155  156  154 1
   156  157  154 1
   157  158  157 1
   158  159  157 1
   159  160  159 1
   160  161  159 1
   161  162  159 1
   162  163  157 1
   163  164  163 1
   164  165  163 1
   165  166  163 1
   166  167  151 1
   167  168  167 1
   168  169  167 1
   169  170  169 ar
   170  171  170 1
   171  172  170 ar
   172  173  172 1
   173  174  172 ar
   174  175  174 1
   175  176  174 ar
   176  177  169 ar
   177  178  176 ar
   178  179  178 ar
   179  180  179 1
   180  181  179 ar
   181  182  177 ar
   182  183  181 1
   183  184  178 1
   184  185  184 1
   185  186  183 2
   186  187  183 1
   187  188  187 1
   188  189  187 1
   189  190  189 ar
   190  191  190 1
   191  192  190 ar
   192  193  192 1
   193  194  192 ar
   194  195  194 1
   195  196  194 ar
   196  197  189 ar
   197  198  196 ar
   198  199  198 ar
   199  200  199 1
   200  201  199 ar
   201  202  197 ar
   202  203  201 1
   203  204  198 1
   204  205  203 2
   205  206  204 1
   206  207  206 1
   207  208  206 1
   208  209  206 1
   209  210  209 1
   210  211  209 1
   211  212  211 1
   212  213  211 1
   213  214  211 1
   214  215  209 1
   215  216  215 1
   216  217  215 1
   217  218  215 1
   218  219  203 1
   219  220  219 1
   220  221  219 1
   221  222  221 ar
   222  223  222 1
   223  224  222 ar
   224  225  224 1
   225  226  224 ar
   226  227  226 1
   227  228  226 ar
   228  229  221 ar
   229  230  228 ar
   230  231  230 ar
   231  232  231 1
   232  233  231 ar
   233  234  229 ar
   234  235  233 1
   235  236  235 2
   236  237  230 1
   237  238  237 1
   238  239  238 1
   239  240  238 1
   240  241  238 1
   241  242  241 1
   242  243  241 1
   243  244  243 1
   244  245  243 1
   245  246  243 1
   246  247  241 1
   247  248  247 1
   248  249  247 1
   249  250  247 1
   250  251  252 1
   251  253  251 1
   252  254  251 1
   253  255  251 1
   254  256  255 1
   255  257  255 1
   256  258  257 1
   257  259  257 1
   258  260  257 1
   259  261  255 1
   260  262  261 1
   261  263  261 1
   262  264  261 1
   263  265  264 1
   264  266  265 ar
   265  267  266 ar
   266  268  267 1
   267  269  266 1
   268  270  269 2
   269  271  269 1
   270  272  271 1
   271  273  265 ar
   272  274  273 1
   273  275  273 ar
   274  276  275 1
   275  277  276 2
   276  278  276 1
   277  279  278 1
   278  280  267 ar
   279  281  280 1
   280  282  281 1
   281  283  282 1
   282  284  282 1
   283  285  282 1
   284  286  285 1
   285  287  285 1
   286  288  287 1
   287  289  287 1
   288  290  287 1
   289  291  285 1
   290  292  291 1
   291  293  291 1
   292  294  291 1
   293  295  296 1
   294  297  295 1
   295  298  297 ar
   296  299  298 1
   297  300  298 ar
   298  301  300 1
   299  302  300 ar
   300  303  302 1
   301  304  302 ar
   302  305  297 ar
   303  306  304 ar
   304  307  306 ar
   305  308  307 1
   306  309  307 ar
   307  310  305 ar
   308  311  309 1
   309  312  306 1
   310  313  311 2
   311  314  312 1
   312  315  314 1
   313  316  314 1
   314  317  314 1
   315  318  317 1
   316  319  317 1
   317  320  319 1
   318  321  319 1
   319  322  319 1
   320  323  317 1
   321  324  323 1
   322  325  323 1
   323  326  323 1
   324  327  328 1
   325  329  327 1
   326  330  329 ar
   327  331  330 1
   328  332  330 ar
   329  333  332 1
   330  334  332 ar
   331  335  334 1
   332  336  334 ar
   333  337  329 ar
   334  338  336 ar
   335  339  338 ar
   336  340  339 1
   337  341  339 ar
   338  342  337 ar
   339  343  295 1
   340  344  338 1
   341  345  343 2
   342  346  344 1
   343  347  346 1
   344  348  346 1
   345  349  346 1
   346  350  349 1
   347  351  349 1
   348  352  351 1
   349  353  351 1
   350  354  351 1
   351  355  349 1
   352  356  355 1
   353  357  355 1
   354  358  355 1
   355  359  360 1
   356  361  359 1
   357  362  361 ar
   358  363  362 1
   359  364  362 ar
   360  365  364 1
   361  366  364 ar
   362  367  366 1
   363  368  366 ar
   364  369  361 ar
   365  370  368 ar
   366  371  370 ar
   367  372  371 1
   368  373  371 ar
   369  374  369 ar
   370  375  327 1
   371  376  370 1
   372  377  376 1
   373  378  375 2
   374  379  380 1
   375  381  379 1
   376  382  381 ar
   377  383  382 1
   378  384  382 ar
   379  385  384 1
   380  386  384 ar
   381  387  386 1
   382  388  386 ar
   383  389  381 ar
   384  390  388 ar
   385  391  390 ar
   386  392  391 1
   387  393  391 ar
   388  394  389 ar
   389  395  359 1
   390  396  390 1
   391  397  395 2
   392  398  396 1
   393  399  398 1
   394  400  398 1
   395  401  398 1
   396  402  401 1
   397  403  401 1
   398  404  403 1
   399  405  403 1
   400  406  403 1
   401  407  401 1
   402  408  407 1
   403  409  407 1
   404  410  407 1
   405  411  412 1
   406  413  411 1
   407  414  413 1
   408  415  413 1
   409  416  413 1
   410  417  416 ar
   411  418  417 1
   412  419  416 ar
   413  420  419 ar
   414  421  379 1
   415  422  421 2
   416  423  420 ar
   417  424  423 1
   418  425  417 ar
   419  426  425 1
   420  427  426 1
   421  428  429 1
   422  430  428 1
   423  431  430 ar
   424  432  431 1
   425  433  431 ar
   426  434  433 1
   427  435  433 ar
   428  436  435 1
   429  437  435 ar
   430  438  430 ar
   431  439  437 ar
   432  440  439 ar
   433  441  440 1
   434  442  440 ar
   435  443  438 ar
   436  444  411 1
   437  445  444 2
   438  446  439 1
   439  447  446 1
   440  448  447 1
   441  449  447 1
   442  450  447 1
   443  451  450 1
   444  452  450 1
   445  453  452 1
   446  454  452 1
   447  455  452 1
   448  456  450 1
   449  457  456 1
   450  458  456 1
   451  459  456 1
   452  460  461 1
   453  462  460 1
   454  463  462 ar
   455  464  463 1
   456  465  463 ar
   457  466  465 1
   458  467  465 ar
   459  468  467 1
   460  469  467 ar
   461  470  462 ar
   462  471  469 ar
   463  472  471 ar
   464  473  472 1
   465  474  472 ar
   466  475  470 ar
   467  476  428 1
   468  477  471 1
   469  478  476 2
   470  479  477 1
   471  480  479 1
   472  481  479 1
   473  482  479 1
   474  483  482 1
   475  484  482 1
   476  485  484 1
   477  486  484 1
   478  487  484 1
   479  488  482 1
   480  489  488 1
   481  490  488 1
   482  491  488 1
   483  492  493 1
   484  494  492 1
   485  495  494 ar
   486  496  495 1
   487  497  495 ar
   488  498  497 1
   489  499  497 ar
   490  500  499 1
   491  501  499 ar
   492  502  494 ar
   493  503  501 ar
   494  504  503 ar
   495  505  504 1
   496  506  504 ar
   497  507  502 ar
   498  508  460 1
   499  509  503 1
   500  510  509 1
   501  511  508 2
   502  512  513 1
   503  513  514 ar
   504  514  515 1
   505  516  514 ar
   506  517  516 1
   507  518  516 ar
   508  519  518 1
   509  520  518 ar
   510  521  513 ar
   511  522  520 ar
   512  523  522 ar
   513  524  523 1
   514  525  523 ar
   515  526  521 ar
   516  527  492 1
   517  528  522 1
   518  529  527 2
   519  530  528 1
   520  531  530 1
   521  532  530 1
   522  533  530 1
   523  534  533 1
   524  535  533 1
   525  536  535 1
   526  537  535 1
   527  538  535 1
   528  539  533 1
   529  540  539 1
   530  541  539 1
   531  542  539 1
   532  543  512 2
   533  544  512 2
   534  545  235 1
   535  546  545 1
   536  547  271 1
   537  548  547 1
   538   11   12 ar
   539   16   17 ar
   540   43   44 ar
   541   48   49 ar
   542   63   64 ar
   543   68   69 ar
   544   95   96 ar
   545  100  101 ar
   546  130  132 ar
   547  144  145 ar
   548  149  150 ar
   549  176  177 ar
   550  181  182 ar
   551  196  197 ar
   552  201  202 ar
   553  228  229 ar
   554  233  234 ar
   555  275  280 ar
   556  278  545 1
   557  304  305 ar
   558  309  310 ar
   559  311  547 1
   560  336  337 ar
   561  341  342 ar
   562  341  343 1
   563  368  369 ar
   564  373  374 ar
   565  373  375 1
   566  388  389 ar
   567  393  394 ar
   568  393  395 1
   569  420  421 1
   570  423  425 ar
   571  437  438 ar
   572  442  443 ar
   573  442  444 1
   574  469  470 ar
   575  474  475 ar
   576  474  476 1
   577  501  502 ar
   578  506  507 ar
   579  506  508 1
   580  520  521 ar
   581  525  526 ar
   582  525  527 1
@<TRIPOS>SUBSTRUCTURE
     1 RES1 1
     2 SUP2 549

@<TRIPOS>CRYSIN
  27.3920   35.8700   28.3370  90.0000  90.1400  90.0000 231 1

