# MOL2 file generated by ConQuest
# Please check atom types

@<TRIPOS>MOLECULE
DEHPAK
    66    69     1
SMALL
NO_CHARGES
****
Generated from CSD

@<TRIPOS>ATOM
      1 C1         7.7049   16.8041    3.7339 C.ar      1 RES1    0.0000
      2 C2         8.7021   16.9177    2.7507 C.ar      1 RES1    0.0000
      3 C3         9.1773   15.7991    2.0398 C.ar      1 RES1    0.0000
      4 C4         8.6253   14.5408    2.3405 C.ar      1 RES1    0.0000
      5 C5         7.6325   14.3813    3.3177 C.ar      1 RES1    0.0000
      6 C6         7.1864   15.5241    4.0058 C.ar      1 RES1    0.0000
      7 O1         9.1813   18.1438    2.5089 O.3       1 RES1    0.0000
      8 O2         9.0790   13.4911    1.6273 O.3       1 RES1    0.0000
      9 O3         6.2227   15.3397    4.9259 O.3       1 RES1    0.0000
     10 C7         7.2896   17.9829    4.4693 C.2       1 RES1    0.0000
     11 N1         6.3656   17.9055    5.3482 N.2       1 RES1    0.0000
     12 O4         6.1800   19.1310    6.0219 O.3       1 RES1    0.0000
     13 C8         4.9346   19.0714    6.7472 C.3       1 RES1    0.0000
     14 C9         3.7486   19.1548    5.8419 C.ar      1 RES1    0.0000
     15 C10        2.9831   18.0445    5.5375 C.ar      1 RES1    0.0000
     16 C11        1.9039   18.1481    4.6786 C.ar      1 RES1    0.0000
     17 C12        1.5961   19.3517    4.1014 C.ar      1 RES1    0.0000
     18 C13        2.3305   20.4514    4.4053 C.ar      1 RES1    0.0000
     19 C14        3.3888   20.3608    5.2586 C.ar      1 RES1    0.0000
     20 C15       10.1843   15.9182    1.0027 C.2       1 RES1    0.0000
     21 N2        10.6996   17.0560    0.7225 N.2       1 RES1    0.0000
     22 O5        11.5945   16.9706   -0.3434 O.3       1 RES1    0.0000
     23 C16       12.0790   18.2940   -0.6654 C.3       1 RES1    0.0000
     24 C17       13.0453   18.8321    0.3438 C.ar      1 RES1    0.0000
     25 C18       12.8792   20.1059    0.8900 C.ar      1 RES1    0.0000
     26 C19       13.7936   20.6166    1.7823 C.ar      1 RES1    0.0000
     27 C20       14.8837   19.8604    2.1790 C.ar      1 RES1    0.0000
     28 C21       15.0515   18.5823    1.6398 C.ar      1 RES1    0.0000
     29 C22       14.1566   18.0806    0.7382 C.ar      1 RES1    0.0000
     30 C23        7.0553   13.0883    3.6337 C.2       1 RES1    0.0000
     31 N3         7.2860   12.0737    2.8815 N.2       1 RES1    0.0000
     32 O6         6.6880   10.9002    3.3812 O.3       1 RES1    0.0000
     33 C24        6.5172    9.9904    2.2843 C.3       1 RES1    0.0000
     34 C25        6.1959    8.6246    2.8184 C.ar      1 RES1    0.0000
     35 C26        6.8928    7.5246    2.3488 C.ar      1 RES1    0.0000
     36 C27        6.5890    6.2462    2.7961 C.ar      1 RES1    0.0000
     37 C28        5.5926    6.0684    3.7135 C.ar      1 RES1    0.0000
     38 C29        4.8959    7.1569    4.2086 C.ar      1 RES1    0.0000
     39 C30        5.1891    8.4264    3.7418 C.ar      1 RES1    0.0000
     40 H1         7.7142   18.7974    4.3046 H         1 RES1    0.0000
     41 H2         4.9343   19.8399    7.3536 H         1 RES1    0.0000
     42 H3         4.9111   18.2249    7.2924 H         1 RES1    0.0000
     43 H4         3.2101   17.2354    5.9249 H         1 RES1    0.0000
     44 H5         1.3966   17.4174    4.4763 H         1 RES1    0.0000
     45 H6         0.8869   19.4196    3.4926 H         1 RES1    0.0000
     46 H7         2.0915   21.2695    3.9761 H         1 RES1    0.0000
     47 H8         3.8819   21.1239    5.4674 H         1 RES1    0.0000
     48 H9        10.4412   15.1604    0.5109 H         1 RES1    0.0000
     49 H10       12.5095   18.2050   -1.5201 H         1 RES1    0.0000
     50 H11       11.3181   18.8702   -0.7652 H         1 RES1    0.0000
     51 H12       12.1389   20.6010    0.6204 H         1 RES1    0.0000
     52 H13       13.6744   21.4780    2.1344 H         1 RES1    0.0000
     53 H14       15.4913   20.2072    2.8179 H         1 RES1    0.0000
     54 H15       15.7958   18.0627    1.8894 H         1 RES1    0.0000
     55 H16       14.2867   17.2387    0.3559 H         1 RES1    0.0000
     56 H17        6.5096   12.9861    4.4072 H         1 RES1    0.0000
     57 H18        7.3469    9.9812    1.7400 H         1 RES1    0.0000
     58 H19        5.7617   10.3386    1.7243 H         1 RES1    0.0000
     59 H20        7.5818    7.6315    1.7020 H         1 RES1    0.0000
     60 H21        7.0523    5.5135    2.4648 H         1 RES1    0.0000
     61 H22        5.4009    5.2024    4.0090 H         1 RES1    0.0000
     62 H23        4.2559    7.0292    4.8740 H         1 RES1    0.0000
     63 H24        4.7060    9.1637    4.0666 H         1 RES1    0.0000
     64 H25        8.6938   12.8008    1.8328 H         1 RES1    0.0000
     65 H26        6.0430   16.0208    5.3547 H         1 RES1    0.0000
     66 H27        9.6800   18.0991    1.8560 H         1 RES1    0.0000
@<TRIPOS>BOND
     1    1    2 ar
     2    2    3 ar
     3    3    4 ar
     4    4    5 ar
     5    5    6 ar
     6    6    1 ar
     7    7    2 1
     8    8    4 1
     9    9    6 1
    10   10    1 1
    11   11   10 2
    12   12   11 1
    13   13   12 1
    14   14   13 1
    15   15   14 ar
    16   16   15 ar
    17   17   16 ar
    18   18   17 ar
    19   19   14 ar
    20   20    3 1
    21   21   20 2
    22   22   21 1
    23   23   22 1
    24   24   23 1
    25   25   24 ar
    26   26   25 ar
    27   27   26 ar
    28   28   27 ar
    29   29   24 ar
    30   30    5 1
    31   31   30 2
    32   32   31 1
    33   33   32 1
    34   34   33 1
    35   35   34 ar
    36   36   35 ar
    37   37   36 ar
    38   38   37 ar
    39   39   34 ar
    40   40   10 1
    41   41   13 1
    42   42   13 1
    43   43   15 1
    44   44   16 1
    45   45   17 1
    46   46   18 1
    47   47   19 1
    48   48   20 1
    49   49   23 1
    50   50   23 1
    51   51   25 1
    52   52   26 1
    53   53   27 1
    54   54   28 1
    55   55   29 1
    56   56   30 1
    57   57   33 1
    58   58   33 1
    59   59   35 1
    60   60   36 1
    61   61   37 1
    62   62   38 1
    63   63   39 1
    64   64    8 1
    65   65    9 1
    66   66    7 1
    67   18   19 ar
    68   28   29 ar
    69   38   39 ar
@<TRIPOS>SUBSTRUCTURE
     1 RES1 1

@<TRIPOS>CRYSIN
  33.0940   33.0940    4.6401  90.0000  90.0000  90.0000  82 1

