# MOL2 file generated by ConQuest
# Please check atom types

@<TRIPOS>MOLECULE
DEJWEU
    33    33     1
SMALL
NO_CHARGES
****
Generated from CSD

@<TRIPOS>ATOM
      1 O1         3.8375    1.9044    3.3654 O.2       1 RES1    0.0000
      2 O2         3.1483    3.7339    4.2627 O.2       1 RES1    0.0000
      3 O3         1.9155    0.8410   -0.8853 O.2       1 RES1    0.0000
      4 O4        -0.1705    1.2501   -1.2484 O.2       1 RES1    0.0000
      5 O5         0.5528    3.4472    6.9331 O.2       1 RES1    0.0000
      6 O6         1.0523    1.7827    5.5146 O.3       1 RES1    0.0000
      7 O7        -0.2761    5.6155    5.9626 O.3       1 RES1    0.0000
      8 N1         3.0018    2.7796    3.5293 N.pl3     1 RES1    0.0000
      9 N2         0.8379    1.3034   -0.5607 N.pl3     1 RES1    0.0000
     10 C1         0.5411    3.2005    3.2520 C.ar      1 RES1    0.0000
     11 C2         1.7452    2.6713    2.7560 C.ar      1 RES1    0.0000
     12 C3         1.8518    2.0407    1.5364 C.ar      1 RES1    0.0000
     13 C4         0.7257    1.9597    0.7607 C.ar      1 RES1    0.0000
     14 C5        -0.4865    2.4586    1.1769 C.ar      1 RES1    0.0000
     15 C6        -0.5678    3.0589    2.4157 C.ar      1 RES1    0.0000
     16 C7         0.3776    3.8113    4.5897 C.2       1 RES1    0.0000
     17 C8         0.6678    3.0339    5.7819 C.2       1 RES1    0.0000
     18 C9         1.4161    0.9256    6.6553 C.3       1 RES1    0.0000
     19 C10        2.8364    1.0798    6.9388 C.3       1 RES1    0.0000
     20 C11       -0.0804    5.0827    4.7534 C.2       1 RES1    0.0000
     21 C12       -0.3753    6.0482    3.6713 C.3       1 RES1    0.0000
     22 H1         2.7035    1.6723    1.2568 H         1 RES1    0.0000
     23 H2        -1.2732    2.3343    0.6430 H         1 RES1    0.0000
     24 H3        -1.4097    3.4117    2.7106 H         1 RES1    0.0000
     25 H4         1.1845   -0.0788    6.4467 H         1 RES1    0.0000
     26 H5         0.8506    1.0638    7.4258 H         1 RES1    0.0000
     27 H6         3.4818    0.9059    6.1331 H         1 RES1    0.0000
     28 H7        -0.3050    5.6558    2.7614 H         1 RES1    0.0000
     29 H8         0.1799    6.8527    3.8195 H         1 RES1    0.0000
     30 H9         0.0589    4.9350    6.6175 H         1 RES1    0.0000
     31 H10       -1.2504    6.2738    3.5768 H         1 RES1    0.0000
     32 H11        3.0542    0.3650    7.7464 H         1 RES1    0.0000
     33 H12        3.0654    1.9589    7.2156 H         1 RES1    0.0000
@<TRIPOS>BOND
     1    1    8 2
     2    2    8 2
     3    3    9 2
     4    4    9 2
     5    5   17 2
     6    6   17 1
     7    7   20 1
     8    8   11 1
     9    9   13 1
    10   10   11 ar
    11   11   12 ar
    12   12   13 ar
    13   13   14 ar
    14   14   15 ar
    15   15   10 ar
    16   16   10 1
    17   17   16 1
    18   18    6 1
    19   19   18 1
    20   20   16 2
    21   21   20 1
    22   22   12 1
    23   23   14 1
    24   24   15 1
    25   25   18 1
    26   26   18 1
    27   27   19 1
    28   28   21 1
    29   29   21 1
    30   30    7 1
    31   31   21 1
    32   32   19 1
    33   33   19 1
@<TRIPOS>SUBSTRUCTURE
     1 RES1 1

@<TRIPOS>CRYSIN
  15.4000    8.2100   11.4470  90.0000  90.0000 109.7400  14 4

