# MOL2 file generated by ConQuest
# Please check atom types

@<TRIPOS>MOLECULE
DEKBOK
    32    33     1
SMALL
NO_CHARGES
****
Generated from CSD

@<TRIPOS>ATOM
      1 O1         3.9938    0.8747    3.5012 O.3       1 RES1    0.0000
      2 O2         6.1804    1.1066    5.2122 O.3       1 RES1    0.0000
      3 N1         5.6367   -0.2181    4.8905 N.3       1 RES1    0.0000
      4 C1         6.3665   -0.7306    3.6864 C.3       1 RES1    0.0000
      5 C2         6.0278    0.1491    2.4606 C.3       1 RES1    0.0000
      6 C3         4.5495    0.3672    2.2728 C.3       1 RES1    0.0000
      7 C4         4.2402    0.0000    4.5917 C.3       1 RES1    0.0000
      8 C5         5.9582   -2.1918    3.4897 C.3       1 RES1    0.0000
      9 C6         7.8510   -0.6955    3.9826 C.3       1 RES1    0.0000
     10 C7         4.1516    1.3560    1.1811 C.ar      1 RES1    0.0000
     11 C8         2.8441    1.7883    1.1147 C.ar      1 RES1    0.0000
     12 C9         2.4383    2.6919    0.1379 C.ar      1 RES1    0.0000
     13 C10        3.3264    3.1806   -0.7802 C.ar      1 RES1    0.0000
     14 C11        4.6174    2.7558   -0.7355 C.ar      1 RES1    0.0000
     15 C12        5.0305    1.8397    0.2337 C.ar      1 RES1    0.0000
     16 H1         5.7961    1.4073    5.8724 H         1 RES1    0.0000
     17 H2         6.4623    1.0101    2.5614 H         1 RES1    0.0000
     18 H3         6.3867   -0.2707    1.6638 H         1 RES1    0.0000
     19 H4         4.1308   -0.4963    2.0762 H         1 RES1    0.0000
     20 H5         3.8284   -0.8572    4.4001 H         1 RES1    0.0000
     21 H6         3.8077    0.3609    5.3821 H         1 RES1    0.0000
     22 H7         6.1833   -2.6956    4.2750 H         1 RES1    0.0000
     23 H8         6.4231   -2.5553    2.7325 H         1 RES1    0.0000
     24 H9         5.0116   -2.2420    3.3378 H         1 RES1    0.0000
     25 H10        8.1304    0.2143    4.1090 H         1 RES1    0.0000
     26 H11        8.3327   -1.0790    3.2458 H         1 RES1    0.0000
     27 H12        8.0307   -1.1993    4.7794 H         1 RES1    0.0000
     28 H13        2.2242    1.4713    1.7315 H         1 RES1    0.0000
     29 H14        1.5502    2.9676    0.1085 H         1 RES1    0.0000
     30 H15        3.0516    3.7922   -1.4237 H         1 RES1    0.0000
     31 H16        5.2301    3.0791   -1.3560 H         1 RES1    0.0000
     32 H17        5.9147    1.5502    0.2401 H         1 RES1    0.0000
@<TRIPOS>BOND
     1    1    6 1
     2    2    3 1
     3    3    4 1
     4    4    5 1
     5    5    6 1
     6    6   10 1
     7    7    1 1
     8    8    4 1
     9    9    4 1
    10   10   11 ar
    11   11   12 ar
    12   12   13 ar
    13   13   14 ar
    14   14   15 ar
    15   15   10 ar
    16   16    2 1
    17   17    5 1
    18   18    5 1
    19   19    6 1
    20   20    7 1
    21   21    7 1
    22   22    8 1
    23   23    8 1
    24   24    8 1
    25   25    9 1
    26   26    9 1
    27   27    9 1
    28   28   11 1
    29   29   12 1
    30   30   13 1
    31   31   14 1
    32   32   15 1
    33    3    7 1
@<TRIPOS>SUBSTRUCTURE
     1 RES1 1

@<TRIPOS>CRYSIN
   6.9582   12.5320   12.8850  90.0000  97.7000  90.0000  14 1

