# MOL2 file generated by ConQuest
# Please check atom types

@<TRIPOS>MOLECULE
DEKBUQ
    37    38     1
SMALL
NO_CHARGES
****
Generated from CSD

@<TRIPOS>ATOM
      1 O1         2.3508   -0.3858    0.6793 O.3       1 RES1    0.0000
      2 O2         4.6901   -0.1251    2.1347 O.3       1 RES1    0.0000
      3 O3         5.4054   -1.0414    4.0295 O.2       1 RES1    0.0000
      4 N1         4.2653   -1.4646    1.7101 N.3       1 RES1    0.0000
      5 C1         4.8752   -1.6780    0.3694 C.3       1 RES1    0.0000
      6 C2         4.3093   -0.7090   -0.6554 C.3       1 RES1    0.0000
      7 C3         2.8066   -0.6391   -0.6525 C.3       1 RES1    0.0000
      8 C4         2.8393   -1.3658    1.6029 C.3       1 RES1    0.0000
      9 C5         4.6106   -3.1315   -0.0358 C.3       1 RES1    0.0000
     10 C6         6.3548   -1.5081    0.5169 C.3       1 RES1    0.0000
     11 C7         5.2773   -0.0981    3.3264 C.2       1 RES1    0.0000
     12 C8         5.8083    1.2689    3.6258 C.3       1 RES1    0.0000
     13 C9         2.2355    0.4097   -1.5552 C.ar      1 RES1    0.0000
     14 C10        2.6782    0.5084   -2.8676 C.ar      1 RES1    0.0000
     15 C11        2.1683    1.4891   -3.7301 C.ar      1 RES1    0.0000
     16 C12        1.2271    2.3692   -3.2653 C.ar      1 RES1    0.0000
     17 C13        0.7638    2.2784   -1.9902 C.ar      1 RES1    0.0000
     18 C14        1.2687    1.3002   -1.1187 C.ar      1 RES1    0.0000
     19 H1         4.6646    0.1766   -0.4797 H         1 RES1    0.0000
     20 H2         4.6084   -0.9764   -1.5388 H         1 RES1    0.0000
     21 H3         2.4585   -1.5099   -0.9355 H         1 RES1    0.0000
     22 H4         2.4803   -1.1640    2.4803 H         1 RES1    0.0000
     23 H5         2.4918   -2.2330    1.3392 H         1 RES1    0.0000
     24 H6         4.9837   -3.7203    0.6242 H         1 RES1    0.0000
     25 H7         5.0180   -3.3051   -0.8878 H         1 RES1    0.0000
     26 H8         3.6645   -3.2793   -0.0983 H         1 RES1    0.0000
     27 H9         6.5478   -0.6016    0.7687 H         1 RES1    0.0000
     28 H10        6.7839   -1.7080   -0.3173 H         1 RES1    0.0000
     29 H11        6.6787   -2.1048    1.1947 H         1 RES1    0.0000
     30 H12        6.2370    1.2652    4.4839 H         1 RES1    0.0000
     31 H13        5.0830    1.8988    3.6333 H         1 RES1    0.0000
     32 H14        6.4428    1.5204    2.9510 H         1 RES1    0.0000
     33 H15        3.3219   -0.0859   -3.1804 H         1 RES1    0.0000
     34 H16        2.4672    1.5424   -4.6090 H         1 RES1    0.0000
     35 H17        0.9030    3.0346   -3.8269 H         1 RES1    0.0000
     36 H18        0.1088    2.8672   -1.6923 H         1 RES1    0.0000
     37 H19        0.9536    1.2505   -0.2458 H         1 RES1    0.0000
@<TRIPOS>BOND
     1    1    7 1
     2    2    4 1
     3    3   11 2
     4    4    5 1
     5    5    6 1
     6    6    7 1
     7    7   13 1
     8    8    1 1
     9    9    5 1
    10   10    5 1
    11   11    2 1
    12   12   11 1
    13   13   14 ar
    14   14   15 ar
    15   15   16 ar
    16   16   17 ar
    17   17   18 ar
    18   18   13 ar
    19   19    6 1
    20   20    6 1
    21   21    7 1
    22   22    8 1
    23   23    8 1
    24   24    9 1
    25   25    9 1
    26   26    9 1
    27   27   10 1
    28   28   10 1
    29   29   10 1
    30   30   12 1
    31   31   12 1
    32   32   12 1
    33   33   14 1
    34   34   15 1
    35   35   16 1
    36   36   17 1
    37   37   18 1
    38    4    8 1
@<TRIPOS>SUBSTRUCTURE
     1 RES1 1

@<TRIPOS>CRYSIN
  15.0710    6.1330   14.9180  90.0000  93.0700  90.0000  14 1

