# MOL2 file generated by ConQuest
# Please check atom types

@<TRIPOS>MOLECULE
DEKLAJ
    66    70     1
SMALL
NO_CHARGES
****
Generated from CSD

@<TRIPOS>ATOM
      1 C1         0.9485    7.2807    0.9731 C.ar      1 RES1    0.0000
      2 H1         1.4633    6.4833    1.0196 H         1 RES1    0.0000
      3 C2         1.0067    8.0730   -0.1640 C.ar      1 RES1    0.0000
      4 H2         1.5693    7.8292   -0.8900 H         1 RES1    0.0000
      5 C3         0.2419    9.2192   -0.2321 C.ar      1 RES1    0.0000
      6 H3         0.2538    9.7482   -1.0209 H         1 RES1    0.0000
      7 C4        -0.5355    9.5999    0.8298 C.ar      1 RES1    0.0000
      8 H4        -1.0484   10.3992    0.7836 H         1 RES1    0.0000
      9 C5        -0.5693    8.8220    1.9622 C.ar      1 RES1    0.0000
     10 H5        -1.0937    9.0973    2.7047 H         1 RES1    0.0000
     11 C6         0.1513    7.6415    2.0348 C.ar      1 RES1    0.0000
     12 C7        -0.0410    6.7725    3.2470 C.3       1 RES1    0.0000
     13 H6        -0.0849    7.3479    4.0513 H         1 RES1    0.0000
     14 H7        -0.9068    6.2973    3.1677 H         1 RES1    0.0000
     15 O1         1.0180    5.7960    3.4246 O.3       1 RES1    0.0000
     16 C8         2.1410    6.2506    4.0254 C.2       1 RES1    0.0000
     17 O2         2.3581    7.3797    4.3621 O.2       1 RES1    0.0000
     18 N1         2.9609    5.1430    4.2990 N.am      1 RES1    0.0000
     19 O3         4.2706    5.5880    4.6898 O.3       1 RES1    0.0000
     20 C9         5.3005    5.1033    3.7518 C.3       1 RES1    0.0000
     21 H8         6.1885    5.5282    3.9282 H         1 RES1    0.0000
     22 C10        4.8621    5.3136    2.3358 C.2       1 RES1    0.0000
     23 H9         5.3646    5.8110    1.7018 H         1 RES1    0.0000
     24 C11        3.7013    4.7368    2.0549 C.2       1 RES1    0.0000
     25 H10        3.3162    4.7340    1.1863 H         1 RES1    0.0000
     26 C12        3.0573    4.0897    3.2458 C.3       1 RES1    0.0000
     27 H11        2.1549    3.7261    3.0151 H         1 RES1    0.0000
     28 C13        3.9676    2.9931    3.8184 C.3       1 RES1    0.0000
     29 H12        4.0231    2.2445    3.1587 H         1 RES1    0.0000
     30 C14        5.3444    3.6105    3.9754 C.2       1 RES1    0.0000
     31 N2         6.3396    2.8531    4.2249 N.2       1 RES1    0.0000
     32 O4         7.5213    3.6771    4.3600 O.3       1 RES1    0.0000
     33 C15        8.6808    2.9576    4.4111 C.2       1 RES1    0.0000
     34 O5         8.7550    1.7701    4.2982 O.2       1 RES1    0.0000
     35 C16        9.8282    3.8980    4.6223 C.ar      1 RES1    0.0000
     36 C17       11.1295    3.3823    4.6197 C.ar      1 RES1    0.0000
     37 H13       11.2703    2.4531    4.4771 H         1 RES1    0.0000
     38 C18       12.2084    4.2170    4.8236 C.ar      1 RES1    0.0000
     39 H14       13.0952    3.8757    4.8375 H         1 RES1    0.0000
     40 C19       11.9619    5.5672    5.0074 C.ar      1 RES1    0.0000
     41 C20       10.6951    6.1012    5.0211 C.ar      1 RES1    0.0000
     42 H15       10.5625    7.0312    5.1594 H         1 RES1    0.0000
     43 C21        9.6171    5.2539    4.8297 C.ar      1 RES1    0.0000
     44 H16        8.7326    5.6011    4.8401 H         1 RES1    0.0000
     45 N3        13.1029    6.4812    5.1976 N.pl3     1 RES1    0.0000
     46 O6        14.1877    6.0060    5.4980 O.2       1 RES1    0.0000
     47 O7        12.9140    7.6828    5.0438 O.2       1 RES1    0.0000
     48 C22        3.4207    2.4473    5.1361 C.3       1 RES1    0.0000
     49 H17        3.5383    3.1179    5.8545 H         1 RES1    0.0000
     50 H18        2.4540    2.2520    5.0465 H         1 RES1    0.0000
     51 O8         4.1395    1.2385    5.4659 O.3       1 RES1    0.0000
     52 C23        3.6534    0.0912    4.9428 C.2       1 RES1    0.0000
     53 O9         2.5637   -0.0178    4.4366 O.2       1 RES1    0.0000
     54 C24        4.6619   -1.0011    5.0660 C.ar      1 RES1    0.0000
     55 C25        6.0206   -0.6978    5.1748 C.ar      1 RES1    0.0000
     56 H19        6.3086    0.2074    5.1927 H         1 RES1    0.0000
     57 C26        6.9457   -1.7223    5.2566 C.ar      1 RES1    0.0000
     58 H20        7.8736   -1.5357    5.3377 H         1 RES1    0.0000
     59 C27        6.4863   -3.0244    5.2185 C.ar      1 RES1    0.0000
     60 C28        5.1509   -3.3587    5.0923 C.ar      1 RES1    0.0000
     61 H21        4.8745   -4.2665    5.0619 H         1 RES1    0.0000
     62 C29        4.2268   -2.3240    5.0119 C.ar      1 RES1    0.0000
     63 H22        3.3006   -2.5184    4.9209 H         1 RES1    0.0000
     64 N4         7.4845   -4.1099    5.3170 N.pl3     1 RES1    0.0000
     65 O10        8.6785   -3.8023    5.3464 O.2       1 RES1    0.0000
     66 O11        7.0688   -5.2629    5.3673 O.2       1 RES1    0.0000
@<TRIPOS>BOND
     1    1    2 1
     2    3    1 ar
     3    4    3 1
     4    5    3 ar
     5    6    5 1
     6    7    5 ar
     7    8    7 1
     8    9    7 ar
     9   10    9 1
    10   11    1 ar
    11   12   11 1
    12   13   12 1
    13   14   12 1
    14   15   12 1
    15   16   15 1
    16   17   16 2
    17   18   16 1
    18   19   18 1
    19   20   19 1
    20   21   20 1
    21   22   20 1
    22   23   22 1
    23   24   22 2
    24   25   24 1
    25   26   18 1
    26   27   26 1
    27   28   26 1
    28   29   28 1
    29   30   20 1
    30   31   30 2
    31   32   31 1
    32   33   32 1
    33   34   33 2
    34   35   33 1
    35   36   35 ar
    36   37   36 1
    37   38   36 ar
    38   39   38 1
    39   40   38 ar
    40   41   40 ar
    41   42   41 1
    42   43   35 ar
    43   44   43 1
    44   45   40 1
    45   46   45 2
    46   47   45 2
    47   48   28 1
    48   49   48 1
    49   50   48 1
    50   51   48 1
    51   52   51 1
    52   53   52 2
    53   54   52 1
    54   55   54 ar
    55   56   55 1
    56   57   55 ar
    57   58   57 1
    58   59   57 ar
    59   60   59 ar
    60   61   60 1
    61   62   54 ar
    62   63   62 1
    63   64   59 1
    64   65   64 2
    65   66   64 2
    66    9   11 ar
    67   24   26 1
    68   28   30 1
    69   41   43 ar
    70   60   62 ar
@<TRIPOS>SUBSTRUCTURE
     1 RES1 1

@<TRIPOS>CRYSIN
  16.4610   12.5670   12.9910  90.0000  99.1760  90.0000  14 1

