# MOL2 file generated by ConQuest
# Please check atom types

@<TRIPOS>MOLECULE
DEKPUH
   156    82     3
SMALL
NO_CHARGES
****
Generated from CSD

@<TRIPOS>ATOM
      1 C1         4.2859    9.3047    7.7386 C.3       1 RES1    0.0000
      2 C2         3.4546    9.4393    8.9677 C.3       1 RES1    0.0000
      3 H1         3.6258    8.6798    9.5624 H         1 RES1    0.0000
      4 H2         2.5074    9.4551    8.7221 H         1 RES1    0.0000
      5 H3         3.6862   10.2729    9.4286 H         1 RES1    0.0000
      6 C3         3.8950    8.0698    6.8902 C.3       1 RES1    0.0000
      7 H4         3.9903    7.2582    7.4302 H         1 RES1    0.0000
      8 H5         4.4831    8.0126    6.1080 H         1 RES1    0.0000
      9 H6         2.9649    8.1585    6.5934 H         1 RES1    0.0000
     10 C4         4.2813   10.5227    6.8541 C.3       1 RES1    0.0000
     11 H7         4.5706   11.3030    7.3720 H         1 RES1    0.0000
     12 H8         3.3756   10.6741    6.5119 H         1 RES1    0.0000
     13 H9         4.8956   10.3832    6.1034 H         1 RES1    0.0000
     14 C5         6.4220    9.8708    8.7943 C.2       1 RES1    0.0000
     15 C6         8.9025    8.4762    7.1846 C.3       1 RES1    0.0000
     16 C7        10.2476    8.5203    7.8853 C.2       1 RES1    0.0000
     17 C8        10.1041    9.4086    9.1039 C.3       1 RES1    0.0000
     18 C9        10.6938    8.9756   10.3655 C.3       1 RES1    0.0000
     19 H10       10.2384    9.2401   11.2035 H         1 RES1    0.0000
     20 H11       11.1360    8.0908   10.3900 H         1 RES1    0.0000
     21 C10        8.8548   10.3141    9.0026 C.3       1 RES1    0.0000
     22 C11        8.7665   10.8201    7.5699 C.2       1 RES1    0.0000
     23 H12        8.7450   11.7449    7.3522 H         1 RES1    0.0000
     24 C12        8.7235    9.8631    6.6492 C.2       1 RES1    0.0000
     25 H13        8.5903   10.0440    5.7263 H         1 RES1    0.0000
     26 C13        8.8265   11.3740   10.0850 C.3       1 RES1    0.0000
     27 H14        8.1099   12.0147    9.8965 H         1 RES1    0.0000
     28 H15        9.6863   11.8427   10.1060 H         1 RES1    0.0000
     29 H16        8.6648   10.9495   10.9533 H         1 RES1    0.0000
     30 C14        8.7007    7.3380    6.2070 C.3       1 RES1    0.0000
     31 H17        8.8479    6.4846    6.6644 H         1 RES1    0.0000
     32 H18        9.3374    7.4269    5.4679 H         1 RES1    0.0000
     33 H19        7.7854    7.3669    5.8555 H         1 RES1    0.0000
     34 N1         7.7048    9.3400    9.1167 N.am      1 RES1    0.0000
     35 O1         5.6918    8.9924    8.1099 O.3       1 RES1    0.0000
     36 O2         7.9965    8.1940    8.3264 O.3       1 RES1    0.0000
     37 O3        11.3022   10.0102    9.5741 O.3       1 RES1    0.0000
     38 O4        11.2578    7.9518    7.5582 O.2       1 RES1    0.0000
     39 O5         6.0715   10.9418    9.1998 O.2       1 RES1    0.0000
     40 C15        7.1027    8.6307    2.3708 C.3       2 RES2    0.0000
     41 C16        6.5062    7.2334    2.2859 C.3       2 RES2    0.0000
     42 H20        6.8796    6.7665    1.5096 H         2 RES2    0.0000
     43 H21        5.5339    7.2989    2.1916 H         2 RES2    0.0000
     44 H22        6.7232    6.7363    3.1017 H         2 RES2    0.0000
     45 C17        6.9366    9.3950    1.0487 C.3       2 RES2    0.0000
     46 H23        7.3697   10.2709    1.1208 H         2 RES2    0.0000
     47 H24        5.9824    9.5159    0.8589 H         2 RES2    0.0000
     48 H25        7.3502    8.8846    0.3212 H         2 RES2    0.0000
     49 C18        6.4707    9.4250    3.5114 C.3       2 RES2    0.0000
     50 H26        6.5736    8.9291    4.3506 H         2 RES2    0.0000
     51 H27        5.5173    9.5598    3.3264 H         2 RES2    0.0000
     52 H28        6.9146   10.2951    3.5894 H         2 RES2    0.0000
     53 C19        9.3653    7.8605    1.9972 C.2       2 RES2    0.0000
     54 C20       11.6436    9.9536    3.2414 C.3       2 RES2    0.0000
     55 C21       13.0311    9.3300    3.2682 C.2       2 RES2    0.0000
     56 C22       13.0642    8.1295    2.3766 C.3       2 RES2    0.0000
     57 C23       13.9581    7.0124    2.7095 C.3       2 RES2    0.0000
     58 H29       14.4643    7.0619    3.5591 H         2 RES2    0.0000
     59 H30       13.6810    6.1020    2.4383 H         2 RES2    0.0000
     60 C24       11.7656    7.9959    1.5456 C.3       2 RES2    0.0000
     61 C25       11.5046    9.3735    0.9241 C.2       2 RES2    0.0000
     62 H31       11.4264    9.5218   -0.0116 H         2 RES2    0.0000
     63 C26       11.4005   10.3411    1.8343 C.2       2 RES2    0.0000
     64 H32       11.1795   11.2326    1.5922 H         2 RES2    0.0000
     65 C27       11.8642    6.8432    0.5517 C.3       2 RES2    0.0000
     66 H33       11.8306    5.9915    1.0359 H         2 RES2    0.0000
     67 H34       12.7097    6.9057    0.0605 H         2 RES2    0.0000
     68 H35       11.1156    6.8908   -0.0791 H         2 RES2    0.0000
     69 C28       11.3940   10.9820    4.2970 C.3       2 RES2    0.0000
     70 H36       10.4756   11.3150    4.2179 H         2 RES2    0.0000
     71 H37       12.0221   11.7249    4.1830 H         2 RES2    0.0000
     72 H38       11.5201   10.5797    5.1816 H         2 RES2    0.0000
     73 N2        10.6711    7.8139    2.5594 N.am      2 RES2    0.0000
     74 O6         8.5275    8.5626    2.7631 O.3       2 RES2    0.0000
     75 O7        10.8473    8.7463    3.6278 O.3       2 RES2    0.0000
     76 O8        14.2956    7.9591    1.6632 O.3       2 RES2    0.0000
     77 O9        13.9828    9.7301    3.9037 O.2       2 RES2    0.0000
     78 O10        9.0881    7.2586    0.9940 O.2       2 RES2    0.0000
     79 C29        7.0405    8.4529    2.0438 Du        3 SUP3    0.0000
     80 C30        6.2882    8.7110    3.2810 Du        3 SUP3    0.0000
     81 H39        6.4825    8.0074    3.9351 Du        3 SUP3    0.0000
     82 H40        5.3277    8.7184    3.0831 Du        3 SUP3    0.0000
     83 H41        6.5515    9.5803    3.6476 Du        3 SUP3    0.0000
     84 C31        6.6682    7.1546    1.2884 Du        3 SUP3    0.0000
     85 H42        6.8509    6.3794    1.8587 Du        3 SUP3    0.0000
     86 H43        7.2009    7.0886    0.4679 Du        3 SUP3    0.0000
     87 H44        5.7159    7.1727    1.0580 Du        3 SUP3    0.0000
     88 C32        7.1170    9.5596    1.0824 Du        3 SUP3    0.0000
     89 H45        7.5339   10.3355    1.5026 Du        3 SUP3    0.0000
     90 H46        6.2079    9.7971    0.7868 Du        3 SUP3    0.0000
     91 H47        7.6429    9.2815    0.3026 Du        3 SUP3    0.0000
     92 C33        9.2268    9.0477    3.0168 Du        3 SUP3    0.0000
     93 C34       11.7235    7.6973    1.3559 Du        3 SUP3    0.0000
     94 C35       11.5015    6.5782    0.4108 Du        3 SUP3    0.0000
     95 H48       11.6178    5.7267    0.8811 Du        3 SUP3    0.0000
     96 H49       12.1493    6.6372   -0.3224 Du        3 SUP3    0.0000
     97 H50       10.5924    6.6310    0.0489 Du        3 SUP3    0.0000
     98 C36       13.0429    7.7529    2.0822 Du        3 SUP3    0.0000
     99 C37       12.9213    8.6200    3.2915 Du        3 SUP3    0.0000
    100 C38       13.5014    8.1595    4.5380 Du        3 SUP3    0.0000
    101 H51       13.0474    8.4095    5.3818 Du        3 SUP3    0.0000
    102 H52       13.9424    7.2732    4.5450 Du        3 SUP3    0.0000
    103 C39       11.6585    9.5274    3.2402 Du        3 SUP3    0.0000
    104 C40       11.6368   10.5462    4.3052 Du        3 SUP3    0.0000
    105 H53       10.9211   11.1915    4.1260 Du        3 SUP3    0.0000
    106 H54       12.4983   11.0121    4.3296 Du        3 SUP3    0.0000
    107 H55       11.4762   10.1124    5.1700 Du        3 SUP3    0.0000
    108 C41       11.5386   10.0092    1.7703 Du        3 SUP3    0.0000
    109 H56       11.4742   10.9265    1.5317 Du        3 SUP3    0.0000
    110 C42       11.5285    9.0578    0.9032 Du        3 SUP3    0.0000
    111 H57       11.4073    9.2466   -0.0186 Du        3 SUP3    0.0000
    112 N3        10.5384    8.5135    3.3380 Du        3 SUP3    0.0000
    113 O11        8.4934    8.1616    2.3999 Du        3 SUP3    0.0000
    114 O12        8.8847   10.1268    3.3869 Du        3 SUP3    0.0000
    115 O13       10.8097    7.3953    2.5198 Du        3 SUP3    0.0000
    116 O14       14.0819    7.2094    1.7004 Du        3 SUP3    0.0000
    117 O15       14.1051    9.2017    3.7686 Du        3 SUP3    0.0000
    118 C43        4.2937    9.6209    8.2973 Du        3 SUP3    0.0000
    119 C44        3.6731    8.2216    8.1611 Du        3 SUP3    0.0000
    120 H58        4.2022    7.6891    7.5315 Du        3 SUP3    0.0000
    121 H59        2.7543    8.3019    7.8294 Du        3 SUP3    0.0000
    122 H60        3.6663    7.7805    9.0364 Du        3 SUP3    0.0000
    123 C45        4.1675   10.2220    6.8902 Du        3 SUP3    0.0000
    124 H61        4.5889   11.1033    6.8646 Du        3 SUP3    0.0000
    125 H62        3.2124   10.3134    6.6574 Du        3 SUP3    0.0000
    126 H63        4.5974    9.6320    6.2361 Du        3 SUP3    0.0000
    127 C46        3.6955   10.4287    9.3646 Du        3 SUP3    0.0000
    128 H64        3.7151    9.9263   10.2049 Du        3 SUP3    0.0000
    129 H65        2.7680   10.6412    9.1318 Du        3 SUP3    0.0000
    130 H66        4.2047   11.2596    9.4682 Du        3 SUP3    0.0000
    131 C47        6.5537    8.7216    7.8841 Du        3 SUP3    0.0000
    132 C48        8.8774   10.8124    9.1283 Du        3 SUP3    0.0000
    133 C49        8.6422   11.8337   10.1269 Du        3 SUP3    0.0000
    134 H67        7.7275   12.1721   10.0396 Du        3 SUP3    0.0000
    135 H68        9.2774   12.5700    9.9977 Du        3 SUP3    0.0000
    136 H69        8.7648   11.4503   11.0208 Du        3 SUP3    0.0000
    137 C50       10.2469   10.1500    9.0771 Du        3 SUP3    0.0000
    138 C51       10.2430    8.9718    8.2473 Du        3 SUP3    0.0000
    139 C52       11.1348    7.8528    8.5301 Du        3 SUP3    0.0000
    140 H70       11.6699    7.8898    9.3623 Du        3 SUP3    0.0000
    141 H71       10.8340    6.9471    8.2682 Du        3 SUP3    0.0000
    142 C53        8.9360    8.8601    7.3709 Du        3 SUP3    0.0000
    143 C54        8.9969    7.7280    6.4351 Du        3 SUP3    0.0000
    144 H72        8.2026    7.7366    5.8613 Du        3 SUP3    0.0000
    145 H73        9.0271    6.8880    6.9391 Du        3 SUP3    0.0000
    146 H74        9.8016    7.8055    5.8811 Du        3 SUP3    0.0000
    147 C55        8.6851   10.2241    6.8518 Du        3 SUP3    0.0000
    148 H75        8.5738   10.3875    5.9218 Du        3 SUP3    0.0000
    149 C56        8.6135   11.1728    7.7084 Du        3 SUP3    0.0000
    150 H76        8.4047   12.0632    7.4512 Du        3 SUP3    0.0000
    151 N4         7.8792    8.6902    8.4521 Du        3 SUP3    0.0000
    152 O16        5.7460    9.4596    8.6546 Du        3 SUP3    0.0000
    153 O17        6.2639    8.0868    6.9088 Du        3 SUP3    0.0000
    154 O18        8.0789    9.6138    9.4984 Du        3 SUP3    0.0000
    155 O19       11.2187   10.5713    9.6847 Du        3 SUP3    0.0000
    156 O20       11.4655    8.7742    7.4838 Du        3 SUP3    0.0000
@<TRIPOS>BOND
     1    1    2 1
     2    2    3 1
     3    4    2 1
     4    5    2 1
     5    6    1 1
     6    7    6 1
     7    8    6 1
     8    9    6 1
     9   10    1 1
    10   11   10 1
    11   12   10 1
    12   13   10 1
    13   14   34 1
    14   15   16 1
    15   16   17 1
    16   17   18 1
    17   18   19 1
    18   20   18 1
    19   21   17 1
    20   22   21 1
    21   23   22 1
    22   24   15 1
    23   25   24 1
    24   26   21 1
    25   27   26 1
    26   28   26 1
    27   29   26 1
    28   30   15 1
    29   31   30 1
    30   32   30 1
    31   33   30 1
    32   34   21 1
    33   35    1 1
    34   36   15 1
    35   37   17 1
    36   38   16 2
    37   39   14 2
    38   40   41 1
    39   41   42 1
    40   43   41 1
    41   44   41 1
    42   45   40 1
    43   46   45 1
    44   47   45 1
    45   48   45 1
    46   49   40 1
    47   50   49 1
    48   51   49 1
    49   52   49 1
    50   53   73 1
    51   54   55 1
    52   55   56 1
    53   56   57 1
    54   57   58 1
    55   59   57 1
    56   60   56 1
    57   61   60 1
    58   62   61 1
    59   63   54 1
    60   64   63 1
    61   65   60 1
    62   66   65 1
    63   67   65 1
    64   68   65 1
    65   69   54 1
    66   70   69 1
    67   71   69 1
    68   72   69 1
    69   73   60 1
    70   74   40 1
    71   75   54 1
    72   76   56 1
    73   77   55 2
    74   78   53 2
    75   14   35 1
    76   18   37 1
    77   22   24 2
    78   34   36 1
    79   53   74 1
    80   57   76 1
    81   61   63 2
    82   73   75 1
@<TRIPOS>SUBSTRUCTURE
     1 RES1 1
     2 RES2 40
     3 SUP3 79

@<TRIPOS>CRYSIN
  11.2220   11.5293   13.0311  75.3670  64.5100  72.7130   2 1

