# MOL2 file generated by ConQuest
# Please check atom types

@<TRIPOS>MOLECULE
DEKYOI
    21    21     1
SMALL
NO_CHARGES
****
Generated from CSD

@<TRIPOS>ATOM
      1 C1         0.9192    6.6667    7.2789 C.ar      1 RES1    0.0000
      2 C2         2.8868    8.6371    7.2477 C.ar      1 RES1    0.0000
      3 C3         2.4104    8.1512    6.0343 C.ar      1 RES1    0.0000
      4 O1         0.8516    6.6576    4.9575 O.3       1 RES1    0.0000
      5 O2         2.4870    8.1754    3.6962 O.2       1 RES1    0.0000
      6 C4         2.3799    8.1689    8.4501 C.ar      1 RES1    0.0000
      7 N1         2.9091    8.7345    9.6647 N.pl3     1 RES1    0.0000
      8 O3         2.3872    8.4310   10.7379 O.2       1 RES1    0.0000
      9 O4         0.8113    6.6832    9.5899 O.3       1 RES1    0.0000
     10 C5         2.9218    8.6516    4.7506 C.2       1 RES1    0.0000
     11 C6         1.4036    7.1463    6.0755 C.ar      1 RES1    0.0000
     12 C7         1.3802    7.1743    8.4767 C.ar      1 RES1    0.0000
     13 C8         3.9300    9.7353    4.6944 C.3       1 RES1    0.0000
     14 O5         3.8402    9.5167    9.5990 O.2       1 RES1    0.0000
     15 H1         3.6276    9.3551    7.2666 H         1 RES1    0.0000
     16 H2         0.1971    5.8430    7.2908 H         1 RES1    0.0000
     17 H3         4.6211    9.6348    5.3444 H         1 RES1    0.0000
     18 H4         3.5368   10.5568    4.8617 H         1 RES1    0.0000
     19 H5         1.2782    7.0241    4.2755 H         1 RES1    0.0000
     20 H6         1.1940    7.1380   10.2405 H         1 RES1    0.0000
     21 H7         4.3077    9.8109    3.8100 H         1 RES1    0.0000
@<TRIPOS>BOND
     1    1   11 ar
     2    2    3 ar
     3    3   10 1
     4    4   11 1
     5    5   10 2
     6    6    2 ar
     7    7    6 1
     8    8    7 2
     9    9   12 1
    10   10   13 1
    11   11    3 ar
    12   12    1 ar
    13   13   17 1
    14   14    7 2
    15   15    2 1
    16   16    1 1
    17   18   13 1
    18   19    4 1
    19   20    9 1
    20   21   13 1
    21    6   12 ar
@<TRIPOS>SUBSTRUCTURE
     1 RES1 1

@<TRIPOS>CRYSIN
   4.6800   10.3600   17.2400  90.0000  90.1800  90.0000 231 1

