# MOL2 file generated by ConQuest
# Please check atom types

@<TRIPOS>MOLECULE
DEKZAV
    23    23     1
SMALL
NO_CHARGES
****
Generated from CSD

@<TRIPOS>ATOM
      1 O1         1.2671    3.7016    0.8926 O.2       1 RES1    0.0000
      2 O2         1.1447    1.2913    0.0996 O.3       1 RES1    0.0000
      3 O3         4.3031   -1.7705    1.6003 O.3       1 RES1    0.0000
      4 O4         2.1040   -1.2516   -1.0580 O.2       1 RES1    0.0000
      5 O5         1.4941   -2.0793    0.8371 O.2       1 RES1    0.0000
      6 O6         6.1675   -0.8412    3.1256 O.2       1 RES1    0.0000
      7 O7         6.2836    1.2565    3.6238 O.2       1 RES1    0.0000
      8 N1         2.0856   -1.2526    0.1654 N.pl3     1 RES1    0.0000
      9 N2         5.7454    0.3252    3.0486 N.pl3     1 RES1    0.0000
     10 C1         2.9530    2.1615    1.4329 C.ar      1 RES1    0.0000
     11 C2         2.2804    1.1084    0.7745 C.ar      1 RES1    0.0000
     12 C3         2.7939   -0.1762    0.8515 C.ar      1 RES1    0.0000
     13 C4         3.9251   -0.4966    1.5910 C.ar      1 RES1    0.0000
     14 C5         4.5702    0.5643    2.2412 C.ar      1 RES1    0.0000
     15 C6         4.0945    1.8624    2.1436 C.ar      1 RES1    0.0000
     16 C7         2.3989    3.5313    1.3702 C.2       1 RES1    0.0000
     17 C8         3.1904    4.6842    1.8509 C.3       1 RES1    0.0000
     18 H1         4.5627    2.5265    2.6500 H         1 RES1    0.0000
     19 H2         2.7341    5.4402    1.7564 H         1 RES1    0.0000
     20 H3         3.5470    4.5883    2.8144 H         1 RES1    0.0000
     21 H4         4.0820    4.7045    1.4072 H         1 RES1    0.0000
     22 H5         0.9116    2.1296    0.2157 H         1 RES1    0.0000
     23 H6         4.9762   -1.8489    2.0954 H         1 RES1    0.0000
@<TRIPOS>BOND
     1    1   16 2
     2    2   11 1
     3    3   13 1
     4    4    8 2
     5    5    8 2
     6    6    9 2
     7    7    9 2
     8    8   12 1
     9    9   14 1
    10   10   11 ar
    11   11   12 ar
    12   12   13 ar
    13   13   14 ar
    14   14   15 ar
    15   15   10 ar
    16   16   10 1
    17   17   16 1
    18   18   15 1
    19   19   17 1
    20   20   17 1
    21   21   17 1
    22   22    2 1
    23   23    3 1
@<TRIPOS>SUBSTRUCTURE
     1 RES1 1

@<TRIPOS>CRYSIN
   9.7200    9.6800   10.8000  90.0000 108.0000  90.0000 231 1

