# MOL2 file generated by ConQuest
# Please check atom types

@<TRIPOS>MOLECULE
DEKZEZ
    23    23     1
SMALL
NO_CHARGES
****
Generated from CSD

@<TRIPOS>ATOM
      1 O1         3.4609   -1.4213    1.6196 O.2       1 RES1    0.0000
      2 O2         0.7933    1.6630    1.9000 O.3       1 RES1    0.0000
      3 O3         0.4972    4.2008    2.1825 O.2       1 RES1    0.0000
      4 O4         2.1328    5.5406    1.7278 O.2       1 RES1    0.0000
      5 O5         6.4936    3.8300    0.6810 O.2       1 RES1    0.0000
      6 O6         7.0510    2.1334    1.8929 O.2       1 RES1    0.0000
      7 O7         5.2848    0.2062    1.4787 O.3       1 RES1    0.0000
      8 N1         1.6849    4.4059    1.8818 N.pl3     1 RES1    0.0000
      9 N2         6.2170    2.8404    1.3410 N.pl3     1 RES1    0.0000
     10 C1         2.9928    0.8737    1.6698 C.ar      1 RES1    0.0000
     11 C2         2.0882    1.9439    1.7768 C.ar      1 RES1    0.0000
     12 C3         2.5781    3.2691    1.7396 C.ar      1 RES1    0.0000
     13 C4         3.9311    3.5387    1.5752 C.ar      1 RES1    0.0000
     14 C5         4.7992    2.4993    1.5002 C.ar      1 RES1    0.0000
     15 C6         4.3774    1.1693    1.5615 C.ar      1 RES1    0.0000
     16 C7         2.5837   -0.5392    1.6209 C.2       1 RES1    0.0000
     17 C8         1.1464   -0.9858    1.5452 C.3       1 RES1    0.0000
     18 H1         4.2108    4.4498    1.5459 H         1 RES1    0.0000
     19 H2         0.6959   -0.6983    2.5243 H         1 RES1    0.0000
     20 H3         1.1520   -1.9163    1.5263 H         1 RES1    0.0000
     21 H4         0.8083   -0.4872    0.8088 H         1 RES1    0.0000
     22 H5         0.3526    2.4522    1.9698 H         1 RES1    0.0000
     23 H6         4.8690   -0.6009    1.5002 H         1 RES1    0.0000
@<TRIPOS>BOND
     1    1   16 2
     2    2   11 1
     3    3    8 2
     4    4    8 2
     5    5    9 2
     6    6    9 2
     7    7   15 1
     8    8   12 1
     9    9   14 1
    10   10   11 ar
    11   11   12 ar
    12   12   13 ar
    13   13   14 ar
    14   14   15 ar
    15   15   10 ar
    16   16   10 1
    17   17   16 1
    18   18   13 1
    19   19   17 1
    20   20   17 1
    21   21   17 1
    22   22    2 1
    23   23    7 1
@<TRIPOS>SUBSTRUCTURE
     1 RES1 1

@<TRIPOS>CRYSIN
   8.9500   16.2400    6.5600  90.0000  96.1200  90.0000  14 1

