# MOL2 file generated by ConQuest
# Please check atom types

@<TRIPOS>MOLECULE
DELSAP
    75    81     1
SMALL
NO_CHARGES
****
Generated from CSD

@<TRIPOS>ATOM
      1 N1         5.2773    7.7897    6.6053 N.am      1 RES1    0.0000
      2 N2         3.0286    8.7320    3.9030 N.3       1 RES1    0.0000
      3 O1         4.4778    9.8315    7.1483 O.2       1 RES1    0.0000
      4 O2         6.2901    9.6541    4.5541 O.2       1 RES1    0.0000
      5 O3         4.1887    9.6272    3.8289 O.3       1 RES1    0.0000
      6 O4         1.2276    6.6711    5.1359 O.3       1 RES1    0.0000
      7 O5         1.0916    6.3870    2.8903 O.3       1 RES1    0.0000
      8 O6         2.6779    9.8181    1.3591 O.3       1 RES1    0.0000
      9 C1         4.8259    7.8101    5.2097 C.3       1 RES1    0.0000
     10 C2         5.5704    6.5998    4.5958 C.3       1 RES1    0.0000
     11 H1         5.0075    6.1391    3.9537 H         1 RES1    0.0000
     12 H2         6.3836    6.8849    4.1509 H         1 RES1    0.0000
     13 C3         5.8902    5.7026    5.7695 C.3       1 RES1    0.0000
     14 H3         5.1412    5.1198    5.9723 H         1 RES1    0.0000
     15 H4         6.6705    5.1567    5.5848 H         1 RES1    0.0000
     16 C4         6.1551    6.6456    6.9038 C.3       1 RES1    0.0000
     17 H5         5.9238    6.2422    7.7554 H         1 RES1    0.0000
     18 H6         7.0858    6.9167    6.9230 H         1 RES1    0.0000
     19 C5         5.0890    8.8180    7.4321 C.2       1 RES1    0.0000
     20 H7         5.4500    8.7569    8.2871 H         1 RES1    0.0000
     21 C6         5.2230    9.1107    4.5282 C.2       1 RES1    0.0000
     22 C7         3.2982    7.8432    5.0644 C.3       1 RES1    0.0000
     23 H8         2.9003    8.2288    5.8720 H         1 RES1    0.0000
     24 C8         2.5724    6.5540    4.7051 C.3       1 RES1    0.0000
     25 H9         3.0162    5.7573    5.0655 H         1 RES1    0.0000
     26 C9         2.4742    6.5362    3.1686 C.3       1 RES1    0.0000
     27 H10        2.9860    5.7866    2.7969 H         1 RES1    0.0000
     28 C10        3.0412    7.8750    2.6820 C.3       1 RES1    0.0000
     29 H11        3.9656    7.7477    2.3846 H         1 RES1    0.0000
     30 C11        2.2292    8.4820    1.5578 C.3       1 RES1    0.0000
     31 H12        2.3501    7.9653    0.7446 H         1 RES1    0.0000
     32 H13        1.2875    8.4769    1.7865 H         1 RES1    0.0000
     33 C12        0.3608    6.2511    4.1069 C.3       1 RES1    0.0000
     34 C13       -0.8148    7.1483    4.0630 C.3       1 RES1    0.0000
     35 H14       -1.3671    6.9905    4.8323 H         1 RES1    0.0000
     36 H15       -1.3202    6.9740    3.2655 H         1 RES1    0.0000
     37 H16       -0.5208    8.0620    4.0619 H         1 RES1    0.0000
     38 C14        0.0335    4.7889    4.2748 C.3       1 RES1    0.0000
     39 H17        0.8448    4.2925    4.4088 H         1 RES1    0.0000
     40 H18       -0.4101    4.4682    3.4863 H         1 RES1    0.0000
     41 H19       -0.5413    4.6743    5.0340 H         1 RES1    0.0000
     42 C15        1.8994   10.6289    0.4472 C.3       1 RES1    0.0000
     43 C16        2.6543   11.9639    0.3796 C.ar      1 RES1    0.0000
     44 C17        3.8631   12.1510    1.0093 C.ar      1 RES1    0.0000
     45 H20        4.2230   11.4663    1.5263 H         1 RES1    0.0000
     46 C18        4.5519   13.3511    0.8831 C.ar      1 RES1    0.0000
     47 H21        5.3661   13.4630    1.3179 H         1 RES1    0.0000
     48 C19        4.0470   14.3679    0.1273 C.ar      1 RES1    0.0000
     49 H22        4.5171   15.1658    0.0394 H         1 RES1    0.0000
     50 C20        2.8297   14.2024   -0.5058 C.ar      1 RES1    0.0000
     51 H23        2.4766   14.8909   -1.0217 H         1 RES1    0.0000
     52 C21        2.1368   13.0151   -0.3728 C.ar      1 RES1    0.0000
     53 H24        1.3119   12.9171   -0.7907 H         1 RES1    0.0000
     54 C22        1.8928    9.9175   -0.9192 C.ar      1 RES1    0.0000
     55 C23        2.9388   10.0982   -1.8045 C.ar      1 RES1    0.0000
     56 H25        3.5945   10.7307   -1.6187 H         1 RES1    0.0000
     57 C24        3.0226    9.3461   -2.9681 C.ar      1 RES1    0.0000
     58 H26        3.7246    9.4912   -3.5606 H         1 RES1    0.0000
     59 C25        2.0842    8.3955   -3.2509 C.ar      1 RES1    0.0000
     60 H27        2.1454    7.8915   -4.0292 H         1 RES1    0.0000
     61 C26        1.0447    8.1944   -2.3689 C.ar      1 RES1    0.0000
     62 H28        0.4099    7.5377   -2.5480 H         1 RES1    0.0000
     63 C27        0.9360    8.9542   -1.2255 C.ar      1 RES1    0.0000
     64 H29        0.2168    8.8218   -0.6511 H         1 RES1    0.0000
     65 C28        0.4851   10.8656    1.0093 C.ar      1 RES1    0.0000
     66 C29       -0.5845   11.2232    0.1836 C.ar      1 RES1    0.0000
     67 H30       -0.4454   11.3174   -0.7322 H         1 RES1    0.0000
     68 C30       -1.8530   11.4421    0.7108 C.ar      1 RES1    0.0000
     69 H31       -2.5490   11.6967    0.1498 H         1 RES1    0.0000
     70 C31       -2.0861   11.2830    2.0523 C.ar      1 RES1    0.0000
     71 H32       -2.9411   11.4001    2.3993 H         1 RES1    0.0000
     72 C32       -1.0414   10.9509    2.8769 C.ar      1 RES1    0.0000
     73 H33       -1.1922   10.8644    3.7904 H         1 RES1    0.0000
     74 C33        0.2412   10.7422    2.3745 C.ar      1 RES1    0.0000
     75 H34        0.9356   10.5207    2.9524 H         1 RES1    0.0000
@<TRIPOS>BOND
     1    1    9 1
     2    2    5 1
     3    3   19 2
     4    4   21 2
     5    5   21 1
     6    6   24 1
     7    7   26 1
     8    8   30 1
     9    9   10 1
    10   10   11 1
    11   12   10 1
    12   13   10 1
    13   14   13 1
    14   15   13 1
    15   16    1 1
    16   17   16 1
    17   18   16 1
    18   19    1 1
    19   20   19 1
    20   21    9 1
    21   22    2 1
    22   23   22 1
    23   24   22 1
    24   25   24 1
    25   26   24 1
    26   27   26 1
    27   28    2 1
    28   29   28 1
    29   30   28 1
    30   31   30 1
    31   32   30 1
    32   33    6 1
    33   34   33 1
    34   35   34 1
    35   36   34 1
    36   37   34 1
    37   38   33 1
    38   39   38 1
    39   40   38 1
    40   41   38 1
    41   42    8 1
    42   43   42 1
    43   44   43 ar
    44   45   44 1
    45   46   44 ar
    46   47   46 1
    47   48   46 ar
    48   49   48 1
    49   50   48 ar
    50   51   50 1
    51   52   43 ar
    52   53   52 1
    53   54   42 1
    54   55   54 ar
    55   56   55 1
    56   57   55 ar
    57   58   57 1
    58   59   57 ar
    59   60   59 1
    60   61   59 ar
    61   62   61 1
    62   63   54 ar
    63   64   63 1
    64   65   42 1
    65   66   65 ar
    66   67   66 1
    67   68   66 ar
    68   69   68 1
    69   70   68 ar
    70   71   70 1
    71   72   70 ar
    72   73   72 1
    73   74   65 ar
    74   75   74 1
    75    7   33 1
    76    9   22 1
    77   13   16 1
    78   26   28 1
    79   50   52 ar
    80   61   63 ar
    81   72   74 ar
@<TRIPOS>SUBSTRUCTURE
     1 RES1 1

@<TRIPOS>CRYSIN
  10.0296   12.7262   11.4028  90.0000  98.9420  90.0000   4 1

