# MOL2 file generated by ConQuest
# Please check atom types

@<TRIPOS>MOLECULE
DELWUN
   100   104     2
SMALL
NO_CHARGES
****
Generated from CSD

@<TRIPOS>ATOM
      1 C1         8.6227    1.6797    0.3234 C.3       1 RES1    0.0000
      2 H1         8.2075    1.0719    0.9708 H         1 RES1    0.0000
      3 H2         9.5978    1.6024    0.3830 H         1 RES1    0.0000
      4 H3         8.3308    1.4426   -0.5805 H         1 RES1    0.0000
      5 C2         6.9491    3.2309    0.9855 C.2       1 RES1    0.0000
      6 C3         6.6631    4.6537    1.2972 C.ar      1 RES1    0.0000
      7 C4         7.5599    5.6640    0.9696 C.ar      1 RES1    0.0000
      8 H4         8.3794    5.4507    0.5391 H         1 RES1    0.0000
      9 C5         7.2573    6.9805    1.2699 C.ar      1 RES1    0.0000
     10 H5         7.8694    7.6656    1.0294 H         1 RES1    0.0000
     11 C6         6.0687    7.3229    1.9212 C.ar      1 RES1    0.0000
     12 C7         5.1744    6.2958    2.2456 C.ar      1 RES1    0.0000
     13 H6         4.3603    6.5038    2.6905 H         1 RES1    0.0000
     14 C8         5.4612    4.9838    1.9275 C.ar      1 RES1    0.0000
     15 H7         4.8364    4.2996    2.1392 H         1 RES1    0.0000
     16 C9         5.8279    8.7289    2.2319 C.2       1 RES1    0.0000
     17 H8         6.3701    9.3621    1.7758 H         1 RES1    0.0000
     18 C10        4.9303    9.2223    3.0847 C.2       1 RES1    0.0000
     19 H9         4.3795    8.6019    3.5491 H         1 RES1    0.0000
     20 C11        4.7266   10.6493    3.3623 C.ar      1 RES1    0.0000
     21 C12        5.2233   11.6488    2.5073 C.ar      1 RES1    0.0000
     22 H10        5.7099   11.3957    1.7319 H         1 RES1    0.0000
     23 C13        5.0205   12.9902    2.7693 C.ar      1 RES1    0.0000
     24 H11        5.3571   13.6550    2.1807 H         1 RES1    0.0000
     25 C14        4.3143   13.3493    3.9135 C.ar      1 RES1    0.0000
     26 C15        3.8277   12.3758    4.7792 C.ar      1 RES1    0.0000
     27 C16        4.0159   11.0321    4.5043 C.ar      1 RES1    0.0000
     28 H12        3.6634   10.3722    5.0907 H         1 RES1    0.0000
     29 C17        3.9562   14.7397    4.3645 C.3       1 RES1    0.0000
     30 C18        3.1271   12.9883    5.9630 C.3       1 RES1    0.0000
     31 C19        5.1782   15.5713    4.7614 C.3       1 RES1    0.0000
     32 H13        4.8829   16.4099    5.1736 H         1 RES1    0.0000
     33 H14        5.7120   15.7692    3.9638 H         1 RES1    0.0000
     34 H15        5.7229   15.0667    5.4005 H         1 RES1    0.0000
     35 C20        3.0981   15.4716    3.3354 C.3       1 RES1    0.0000
     36 H16        2.3077   14.9310    3.1247 H         1 RES1    0.0000
     37 H17        3.6207   15.6187    2.5197 H         1 RES1    0.0000
     38 H18        2.8147   16.3360    3.7003 H         1 RES1    0.0000
     39 C21        3.9165   12.8282    7.2607 C.3       1 RES1    0.0000
     40 H19        4.8281   13.1647    7.1324 H         1 RES1    0.0000
     41 H20        3.9499   11.8806    7.5080 H         1 RES1    0.0000
     42 H21        3.4779   13.3366    7.9739 H         1 RES1    0.0000
     43 C22        1.6860   12.5201    6.1391 C.3       1 RES1    0.0000
     44 H22        1.2420   13.0761    6.8128 H         1 RES1    0.0000
     45 H23        1.6796   11.5851    6.4323 H         1 RES1    0.0000
     46 H24        1.2109   12.5979    5.2859 H         1 RES1    0.0000
     47 N1         3.1401   14.4178    5.5608 N.3       1 RES1    0.0000
     48 O1         8.2276    3.0395    0.6176 O.3       1 RES1    0.0000
     49 O2         6.1388    2.3401    1.0650 O.2       1 RES1    0.0000
     50 O3         2.6188   15.3248    6.2908 O.2       1 RES1    0.0000
     51 C23        2.8610    2.1783   -0.3617 C.3       2 RES2    0.0000
     52 H25        2.4846    1.4359    0.1561 H         2 RES2    0.0000
     53 H26        3.8399    2.1370   -0.3269 H         2 RES2    0.0000
     54 H27        2.5637    2.1115   -1.2928 H         2 RES2    0.0000
     55 C24        1.1669    3.4487    0.7064 C.2       2 RES2    0.0000
     56 C25        0.7941    4.7806    1.2462 C.ar      2 RES2    0.0000
     57 C26        1.6746    5.8621    1.2430 C.ar      2 RES2    0.0000
     58 H28        2.5511    5.7543    0.8928 H         2 RES2    0.0000
     59 C27        1.2833    7.0889    1.7450 C.ar      2 RES2    0.0000
     60 H29        1.8929    7.8174    1.7319 H         2 RES2    0.0000
     61 C28       -0.0022    7.2706    2.2717 C.ar      2 RES2    0.0000
     62 C29       -0.8624    6.1697    2.2946 C.ar      2 RES2    0.0000
     63 H30       -1.7297    6.2647    2.6710 H         2 RES2    0.0000
     64 C30       -0.4786    4.9458    1.7833 C.ar      2 RES2    0.0000
     65 H31       -1.0855    4.2150    1.7977 H         2 RES2    0.0000
     66 C31       -0.4742    8.5520    2.7993 C.2       2 RES2    0.0000
     67 H32       -1.2506    8.5293    3.3466 H         2 RES2    0.0000
     68 C32        0.0760    9.7441    2.5880 C.2       2 RES2    0.0000
     69 H33        0.8530    9.7731    2.0417 H         2 RES2    0.0000
     70 C33       -0.4161   11.0200    3.1264 C.ar      2 RES2    0.0000
     71 C34        0.0126   12.2239    2.5485 C.ar      2 RES2    0.0000
     72 H34        0.6267   12.1976    1.8246 H         2 RES2    0.0000
     73 C35       -0.4373   13.4532    3.0078 C.ar      2 RES2    0.0000
     74 H35       -0.1465   14.2581    2.5954 H         2 RES2    0.0000
     75 C36       -1.3188   13.4856    4.0779 C.ar      2 RES2    0.0000
     76 C37       -1.7539   12.2985    4.6592 C.ar      2 RES2    0.0000
     77 C38       -1.3185   11.0716    4.1992 C.ar      2 RES2    0.0000
     78 H36       -1.6266   10.2701    4.6053 H         2 RES2    0.0000
     79 C39       -1.8801   14.6894    4.7924 C.3       2 RES2    0.0000
     80 C40       -2.6872   12.5415    5.8161 C.3       2 RES2    0.0000
     81 C41       -0.7979   15.5365    5.4622 C.3       2 RES2    0.0000
     82 H37       -1.2167   16.1775    6.0737 H         2 RES2    0.0000
     83 H38       -0.2915   16.0217    4.7760 H         2 RES2    0.0000
     84 H39       -0.1919   14.9538    5.9664 H         2 RES2    0.0000
     85 C42       -2.7841   15.5514    3.9155 C.3       2 RES2    0.0000
     86 H40       -3.4678   14.9874    3.4979 H         2 RES2    0.0000
     87 H41       -2.2475   15.9854    3.2198 H         2 RES2    0.0000
     88 H42       -3.2186   16.2353    4.4663 H         2 RES2    0.0000
     89 C43       -2.1333   12.0160    7.1368 C.3       2 RES2    0.0000
     90 H43       -1.2412   12.3910    7.2885 H         2 RES2    0.0000
     91 H44       -2.0744   11.0384    7.1007 H         2 RES2    0.0000
     92 H45       -2.7289   12.2809    7.8690 H         2 RES2    0.0000
     93 C44       -4.0935   12.0097    5.5547 C.3       2 RES2    0.0000
     94 H46       -4.6787   12.2513    6.3030 H         2 RES2    0.0000
     95 H47       -4.0625   11.0344    5.4664 H         2 RES2    0.0000
     96 H48       -4.4429   12.4018    4.7273 H         2 RES2    0.0000
     97 N2        -2.7035   14.0207    5.8293 N.3       2 RES2    0.0000
     98 O4         2.4116    3.4321    0.1983 O.3       2 RES2    0.0000
     99 O5         0.4425    2.4829    0.7247 O.2       2 RES2    0.0000
    100 O6        -3.3970   14.6818    6.6672 O.2       2 RES2    0.0000
@<TRIPOS>BOND
     1    1    2 1
     2    3    1 1
     3    4    1 1
     4    5    6 1
     5    6    7 ar
     6    7    8 1
     7    9    7 ar
     8   10    9 1
     9   11    9 ar
    10   12   11 ar
    11   13   12 1
    12   14    6 ar
    13   15   14 1
    14   16   11 1
    15   17   16 1
    16   18   16 2
    17   19   18 1
    18   20   18 1
    19   21   20 ar
    20   22   21 1
    21   23   21 ar
    22   24   23 1
    23   25   23 ar
    24   26   25 ar
    25   27   20 ar
    26   28   27 1
    27   29   25 1
    28   30   26 1
    29   31   29 1
    30   32   31 1
    31   33   31 1
    32   34   31 1
    33   35   29 1
    34   36   35 1
    35   37   35 1
    36   38   35 1
    37   39   30 1
    38   40   39 1
    39   41   39 1
    40   42   39 1
    41   43   30 1
    42   44   43 1
    43   45   43 1
    44   46   43 1
    45   47   29 1
    46   48    1 1
    47   49    5 2
    48   50   47 1
    49   51   52 1
    50   53   51 1
    51   54   51 1
    52   55   56 1
    53   56   57 ar
    54   57   58 1
    55   59   57 ar
    56   60   59 1
    57   61   59 ar
    58   62   61 ar
    59   63   62 1
    60   64   56 ar
    61   65   64 1
    62   66   61 1
    63   67   66 1
    64   68   66 2
    65   69   68 1
    66   70   68 1
    67   71   70 ar
    68   72   71 1
    69   73   71 ar
    70   74   73 1
    71   75   73 ar
    72   76   75 ar
    73   77   70 ar
    74   78   77 1
    75   79   75 1
    76   80   76 1
    77   81   79 1
    78   82   81 1
    79   83   81 1
    80   84   81 1
    81   85   79 1
    82   86   85 1
    83   87   85 1
    84   88   85 1
    85   89   80 1
    86   90   89 1
    87   91   89 1
    88   92   89 1
    89   93   80 1
    90   94   93 1
    91   95   93 1
    92   96   93 1
    93   97   79 1
    94   98   51 1
    95   99   55 2
    96  100   97 1
    97    5   48 1
    98   12   14 ar
    99   26   27 ar
   100   30   47 1
   101   55   98 1
   102   62   64 ar
   103   76   77 ar
   104   80   97 1
@<TRIPOS>SUBSTRUCTURE
     1 RES1 1
     2 RES2 51

@<TRIPOS>CRYSIN
  11.6300   13.4320   24.4070  90.0000  91.9760  90.0000  14 1

