# MOL2 file generated by ConQuest
# Please check atom types

@<TRIPOS>MOLECULE
DELZEZ
    35    36     1
SMALL
NO_CHARGES
****
Generated from CSD

@<TRIPOS>ATOM
      1 C1        -0.0524    1.6808   18.8954 C.2       1 RES1    0.0000
      2 C2        -1.4897    1.1399   18.9342 C.3       1 RES1    0.0000
      3 C3        -1.7141    0.2545   20.1415 C.2       1 RES1    0.0000
      4 C4        -0.8256    0.0201   21.0727 C.2       1 RES1    0.0000
      5 C5         0.5724    0.5368   21.0796 C.3       1 RES1    0.0000
      6 C6         0.7147    1.8164   20.2374 C.3       1 RES1    0.0000
      7 C7        -2.4441    2.3393   18.9661 C.ar      1 RES1    0.0000
      8 C8        -3.1311    2.7135   20.1027 C.ar      1 RES1    0.0000
      9 C9        -3.9710    3.8147   20.0753 C.ar      1 RES1    0.0000
     10 C10       -4.1394    4.5223   18.9273 C.ar      1 RES1    0.0000
     11 C11       -3.4468    4.1730   17.7907 C.ar      1 RES1    0.0000
     12 C12       -2.6038    3.0788   17.8067 C.ar      1 RES1    0.0000
     13 C13        2.1558    2.2619   20.0434 C.3       1 RES1    0.0000
     14 N1        -1.1935   -0.8390   22.2207 N.pl3     1 RES1    0.0000
     15 N2         1.4755   -0.5160   20.4588 N.pl3     1 RES1    0.0000
     16 N3         0.0392    2.9321   21.0294 N.pl3     1 RES1    0.0000
     17 O1         0.4753    1.9720   17.8638 O.2       1 RES1    0.0000
     18 O2        -1.7749    0.4123   17.7565 O.3       1 RES1    0.0000
     19 O3        -2.3154   -1.3025   22.2641 O.2       1 RES1    0.0000
     20 O4        -0.3321   -1.0306   23.0561 O.2       1 RES1    0.0000
     21 O5         1.2950   -0.7560   19.2811 O.2       1 RES1    0.0000
     22 O6         2.2953   -1.0638   21.1640 O.2       1 RES1    0.0000
     23 O7        -0.1856    3.9524   20.4177 O.2       1 RES1    0.0000
     24 O8        -0.2204    2.7613   22.1933 O.2       1 RES1    0.0000
     25 H1        -1.2394   -0.0885   17.6401 H         1 RES1    0.0000
     26 H2        -2.6079   -0.1681   20.1895 H         1 RES1    0.0000
     27 H3         0.8687    0.6329   21.9628 H         1 RES1    0.0000
     28 H4        -3.0282    2.2086   20.9130 H         1 RES1    0.0000
     29 H5        -4.4351    4.0803   20.8742 H         1 RES1    0.0000
     30 H6        -4.7443    5.2680   18.9091 H         1 RES1    0.0000
     31 H7        -3.5487    4.6897   16.9874 H         1 RES1    0.0000
     32 H8        -2.1279    2.8291   17.0102 H         1 RES1    0.0000
     33 H9         2.6341    1.5902   19.5504 H         1 RES1    0.0000
     34 H10        2.5711    2.3871   20.8993 H         1 RES1    0.0000
     35 H11        2.1725    3.0884   19.5550 H         1 RES1    0.0000
@<TRIPOS>BOND
     1    1    2 1
     2    2    3 1
     3    3    4 2
     4    4    5 1
     5    5    6 1
     6    6    1 1
     7    7    2 1
     8    8    7 ar
     9    9    8 ar
    10   10    9 ar
    11   11   10 ar
    12   12    7 ar
    13   13    6 1
    14   14    4 1
    15   15    5 1
    16   16    6 1
    17   17    1 2
    18   18    2 1
    19   19   14 2
    20   20   14 2
    21   21   15 2
    22   22   15 2
    23   23   16 2
    24   24   16 2
    25   25   18 1
    26   26    3 1
    27   27    5 1
    28   28    8 1
    29   29    9 1
    30   30   10 1
    31   31   11 1
    32   32   12 1
    33   33   13 1
    34   34   13 1
    35   35   13 1
    36   11   12 ar
@<TRIPOS>SUBSTRUCTURE
     1 RES1 1

@<TRIPOS>CRYSIN
   9.1840    6.9170   22.9840  90.0000  96.7800  90.0000 231 1

