# MOL2 file generated by ConQuest
# Please check atom types

@<TRIPOS>MOLECULE
DELZAV
    34    35     1
SMALL
NO_CHARGES
****
Generated from CSD

@<TRIPOS>ATOM
      1 C1         7.7524    9.5602   -2.0915 C.2       1 RES1    0.0000
      2 C2         6.6796    8.5909   -1.5758 C.3       1 RES1    0.0000
      3 C3         7.2758    7.5220   -0.7028 C.2       1 RES1    0.0000
      4 C4         8.5611    7.4945   -0.3702 C.2       1 RES1    0.0000
      5 C5         9.5935    8.5041   -0.7398 C.3       1 RES1    0.0000
      6 C6         8.9212    9.8290   -1.1217 C.3       1 RES1    0.0000
      7 C7         4.4878    7.8459   -2.5666 C.ar      1 RES1    0.0000
      8 C8         3.7460    7.1771   -3.5417 C.ar      1 RES1    0.0000
      9 C9         4.3956    6.5590   -4.6106 C.ar      1 RES1    0.0000
     10 C10        5.7860    6.6098   -4.7044 C.ar      1 RES1    0.0000
     11 C11        6.5278    7.2765   -3.7294 C.ar      1 RES1    0.0000
     12 C12        5.8781    7.8945   -2.6605 C.ar      1 RES1    0.0000
     13 C13        8.4502   10.5635    0.1343 C.3       1 RES1    0.0000
     14 O1         7.6720   10.1529   -3.1316 O.2       1 RES1    0.0000
     15 O2         5.8425    9.3719   -0.7011 O.3       1 RES1    0.0000
     16 O3         8.2020    5.5516    0.8495 O.2       1 RES1    0.0000
     17 O4        10.2396    6.2818    0.6471 O.2       1 RES1    0.0000
     18 O5         9.8058    7.8564   -2.9802 O.2       1 RES1    0.0000
     19 O6        11.6188    7.9199   -1.7917 O.2       1 RES1    0.0000
     20 O7         9.9072   10.6269   -1.7623 O.3       1 RES1    0.0000
     21 N1         9.0395    6.3410    0.4412 N.pl3     1 RES1    0.0000
     22 N2        10.4129    8.0321   -1.9401 N.pl3     1 RES1    0.0000
     23 H1         5.4567   10.0449   -1.1411 H         1 RES1    0.0000
     24 H2         6.6368    6.8871   -0.3291 H         1 RES1    0.0000
     25 H3        10.1869    8.6142   -0.0481 H         1 RES1    0.0000
     26 H4         9.6035   10.9021   -2.5637 H         1 RES1    0.0000
     27 H5         4.0406    8.2692   -1.8310 H         1 RES1    0.0000
     28 H6         2.7892    7.1432   -3.4771 H         1 RES1    0.0000
     29 H7         3.8848    6.0998   -5.2811 H         1 RES1    0.0000
     30 H8         6.2330    6.1844   -5.4395 H         1 RES1    0.0000
     31 H9         7.4846    7.3104   -3.7939 H         1 RES1    0.0000
     32 H10        7.9504   10.0322    0.0023 H         1 RES1    0.0000
     33 H11        8.0642   11.4058   -0.1132 H         1 RES1    0.0000
     34 H12        9.1986   10.7137    0.7169 H         1 RES1    0.0000
@<TRIPOS>BOND
     1    1    2 1
     2    2    3 1
     3    3    4 2
     4    4    5 1
     5    5    6 1
     6    6    1 1
     7    7    8 ar
     8    8    9 ar
     9    9   10 ar
    10   10   11 ar
    11   11   12 ar
    12   12    2 1
    13   13    6 1
    14   14    1 2
    15   15    2 1
    16   16   21 2
    17   17   21 2
    18   18   22 2
    19   19   22 2
    20   20    6 1
    21   21    4 1
    22   22    5 1
    23   23   15 1
    24   24    3 1
    25   25    5 1
    26   26   20 1
    27   27    7 1
    28   28    8 1
    29   29    9 1
    30   30   10 1
    31   31   11 1
    32   32   13 1
    33   33   13 1
    34   34   13 1
    35    7   12 ar
@<TRIPOS>SUBSTRUCTURE
     1 RES1 1

@<TRIPOS>CRYSIN
  10.7490   21.1650    6.0750  90.0000 105.0500  90.0000  14 1

