# MOL2 file generated by ConQuest
# Please check atom types

@<TRIPOS>MOLECULE
DEMGAE
    63    67     1
SMALL
NO_CHARGES
****
Generated from CSD

@<TRIPOS>ATOM
      1 C1         9.0209   13.2179    9.5497 C.3       1 RES1    0.0000
      2 H1         8.3954   13.3250   10.2961 H         1 RES1    0.0000
      3 C2        12.6042   12.7614    9.3281 C.ar      1 RES1    0.0000
      4 C3        11.5210   13.8093    9.1992 C.3       1 RES1    0.0000
      5 H2        11.9108   14.6645    9.4785 H         1 RES1    0.0000
      6 C4         8.6152   14.2581    8.4788 C.3       1 RES1    0.0000
      7 H3         7.9094   13.8354    7.9462 H         1 RES1    0.0000
      8 C5         8.9460   11.7637    9.1257 C.ar      1 RES1    0.0000
      9 C6        12.3723   11.4216    9.0748 C.ar      1 RES1    0.0000
     10 H4        11.5084   11.1361    8.8803 H         1 RES1    0.0000
     11 C7        12.1807   14.6473    6.9262 C.ar      1 RES1    0.0000
     12 C8        11.1002   13.9581    7.7201 C.3       1 RES1    0.0000
     13 H5        11.0385   13.0482    7.3627 H         1 RES1    0.0000
     14 C9         8.9019    9.0334    8.4619 C.ar      1 RES1    0.0000
     15 C10        8.0033   15.5130    9.0589 C.ar      1 RES1    0.0000
     16 C11        6.6372   15.6517    9.1279 C.ar      1 RES1    0.0000
     17 H6         6.0908   14.9579    8.8350 H         1 RES1    0.0000
     18 C12        9.0266    9.4523    9.7804 C.ar      1 RES1    0.0000
     19 H7         9.0962    8.8166   10.4555 H         1 RES1    0.0000
     20 C13       13.4008   10.4968    9.1053 C.ar      1 RES1    0.0000
     21 H8        13.2087    9.6000    8.9549 H         1 RES1    0.0000
     22 C14       14.7055   10.8742    9.3530 C.ar      1 RES1    0.0000
     23 C15        8.7845   10.0114    7.4984 C.ar      1 RES1    0.0000
     24 H9         8.6918    9.7592    6.6085 H         1 RES1    0.0000
     25 C16        9.0483   10.7846   10.1027 C.ar      1 RES1    0.0000
     26 H10        9.1328   11.0359   10.9938 H         1 RES1    0.0000
     27 C17       12.5716   15.9370    7.2316 C.ar      1 RES1    0.0000
     28 H11       12.1700   16.3790    7.9451 H         1 RES1    0.0000
     29 C18        8.7768   16.5657    9.5067 C.ar      1 RES1    0.0000
     30 H12        9.7034   16.4917    9.4841 H         1 RES1    0.0000
     31 C19        9.7275   14.5900    7.5075 C.2       1 RES1    0.0000
     32 C20       14.9346   12.2017    9.5983 C.ar      1 RES1    0.0000
     33 H13       15.8040   12.4852    9.7736 H         1 RES1    0.0000
     34 C21        8.8009   11.3491    7.8162 C.ar      1 RES1    0.0000
     35 H14        8.7131   11.9825    7.1411 H         1 RES1    0.0000
     36 C22       12.8005   14.0116    5.8678 C.ar      1 RES1    0.0000
     37 H15       12.5670   13.1375    5.6518 H         1 RES1    0.0000
     38 C23        6.0608   16.8127    9.6289 C.ar      1 RES1    0.0000
     39 H16        5.1364   16.8865    9.6843 H         1 RES1    0.0000
     40 C24       13.9152   13.1326    9.5950 C.ar      1 RES1    0.0000
     41 H17       14.1092   14.0241    9.7736 H         1 RES1    0.0000
     42 C25        8.8785    7.5653    8.0921 C.3       1 RES1    0.0000
     43 H18        7.9827    7.2299    8.1701 H         1 RES1    0.0000
     44 H19        9.4566    7.0783    8.6846 H         1 RES1    0.0000
     45 H20        9.1832    7.4592    7.1886 H         1 RES1    0.0000
     46 C26       15.8279    9.8655    9.3326 C.3       1 RES1    0.0000
     47 H21       16.6494   10.3059    9.0985 H         1 RES1    0.0000
     48 H22       15.6346    9.1844    8.6858 H         1 RES1    0.0000
     49 H23       15.9158    9.4666   10.2011 H         1 RES1    0.0000
     50 C27        8.2045   17.7174    9.9817 C.ar      1 RES1    0.0000
     51 H24        8.7458   18.4179   10.2667 H         1 RES1    0.0000
     52 C28       14.1337   15.9457    5.4358 C.ar      1 RES1    0.0000
     53 H25       14.7788   16.3821    4.9270 H         1 RES1    0.0000
     54 C29       13.7668   14.6673    5.1260 C.ar      1 RES1    0.0000
     55 H26       14.1699   14.2324    4.4090 H         1 RES1    0.0000
     56 C30        6.8481   17.8419   10.0405 C.ar      1 RES1    0.0000
     57 H27        6.4643   18.6275   10.3594 H         1 RES1    0.0000
     58 C31       13.5479   16.5849    6.4977 C.ar      1 RES1    0.0000
     59 H28       13.8062   17.4504    6.7227 H         1 RES1    0.0000
     60 N1        10.4053   13.8266   11.3717 N.2       1 RES1    0.0000
     61 N2        10.3546   13.5589   10.0647 N.3       1 RES1    0.0000
     62 O1         9.5051   15.2944    6.5492 O.2       1 RES1    0.0000
     63 O2        11.5194   14.1932   11.7726 O.2       1 RES1    0.0000
@<TRIPOS>BOND
     1    1    2 1
     2    3    4 1
     3    4    5 1
     4    6    1 1
     5    7    6 1
     6    8    1 1
     7    9    3 ar
     8   10    9 1
     9   11   12 1
    10   12    4 1
    11   13   12 1
    12   14   18 ar
    13   15    6 1
    14   16   15 ar
    15   17   16 1
    16   18   19 1
    17   20    9 ar
    18   21   20 1
    19   22   20 ar
    20   23   14 ar
    21   24   23 1
    22   25    8 ar
    23   26   25 1
    24   27   11 ar
    25   28   27 1
    26   29   15 ar
    27   30   29 1
    28   31    6 1
    29   32   22 ar
    30   33   32 1
    31   34    8 ar
    32   35   34 1
    33   36   11 ar
    34   37   36 1
    35   38   16 ar
    36   39   38 1
    37   40    3 ar
    38   41   40 1
    39   42   14 1
    40   43   42 1
    41   44   42 1
    42   45   42 1
    43   46   22 1
    44   47   46 1
    45   48   46 1
    46   49   46 1
    47   50   29 ar
    48   51   50 1
    49   52   53 1
    50   54   36 ar
    51   55   54 1
    52   56   38 ar
    53   57   56 1
    54   58   27 ar
    55   59   58 1
    56   60   61 1
    57   61    1 1
    58   62   31 2
    59   63   60 2
    60    4   61 1
    61   12   31 1
    62   18   25 ar
    63   23   34 ar
    64   32   40 ar
    65   50   56 ar
    66   52   54 ar
    67   52   58 ar
@<TRIPOS>SUBSTRUCTURE
     1 RES1 1

@<TRIPOS>CRYSIN
  10.4373   12.0428   12.6808  67.9470  71.0530  78.0810   2 1

