# MOL2 file generated by ConQuest
# Please check atom types

@<TRIPOS>MOLECULE
DEMMOX
    45    46     1
SMALL
NO_CHARGES
****
Generated from CSD

@<TRIPOS>ATOM
      1 O1         4.2737    3.3231    0.9470 O.2       1 RES1    0.0000
      2 O2         3.0889    3.3309    2.7178 O.2       1 RES1    0.0000
      3 O3         4.7020    6.0837   -0.5811 O.2       1 RES1    0.0000
      4 O4         3.6967    6.3747    1.2826 O.2       1 RES1    0.0000
      5 N1         3.2582    3.5751    1.5555 N.pl3     1 RES1    0.0000
      6 N2         3.7827    5.8992    0.1829 N.pl3     1 RES1    0.0000
      7 C1         0.9831    3.1490   -2.4947 C.3       1 RES1    0.0000
      8 C2         0.4697    2.9568   -1.0644 C.3       1 RES1    0.0000
      9 C3         1.5160    2.8567    0.0489 C.3       1 RES1    0.0000
     10 C4         2.0566    4.1272    0.7240 C.3       1 RES1    0.0000
     11 C5         2.6252    5.0756   -0.3346 C.3       1 RES1    0.0000
     12 C6         1.5944    6.0694   -0.8834 C.3       1 RES1    0.0000
     13 C7         1.9204    6.5773   -2.2824 C.3       1 RES1    0.0000
     14 C8         1.9859    5.4757   -3.2989 C.2       1 RES1    0.0000
     15 C9         0.8564    4.4923   -3.2930 C.3       1 RES1    0.0000
     16 C10        0.5715    3.6297   -4.5384 C.3       1 RES1    0.0000
     17 C11        0.2203    2.4319   -3.6531 C.3       1 RES1    0.0000
     18 C12       -1.2774    2.3384   -3.4202 C.3       1 RES1    0.0000
     19 C13        0.7696    1.0796   -4.0356 C.3       1 RES1    0.0000
     20 C14        1.0573    4.7482    1.6671 C.3       1 RES1    0.0000
     21 C15        3.0043    5.4069   -4.1315 C.2       1 RES1    0.0000
     22 H1         1.9365    2.8710   -2.5730 H         1 RES1    0.0000
     23 H2         3.0116    4.5339   -0.9881 H         1 RES1    0.0000
     24 H3         0.1103    4.9106   -3.0426 H         1 RES1    0.0000
     25 H4         0.0364    2.1305   -1.0468 H         1 RES1    0.0000
     26 H5        -0.2281    3.6115   -0.8903 H         1 RES1    0.0000
     27 H6         1.2656    2.2474    0.7729 H         1 RES1    0.0000
     28 H7         2.2115    2.4033   -0.2739 H         1 RES1    0.0000
     29 H8         1.5630    6.7813   -0.2446 H         1 RES1    0.0000
     30 H9         0.7106    5.6381   -0.9588 H         1 RES1    0.0000
     31 H10        2.6249    7.0671   -2.2697 H         1 RES1    0.0000
     32 H11        1.3115    7.1970   -2.5045 H         1 RES1    0.0000
     33 H12        0.0166    3.8713   -5.1362 H         1 RES1    0.0000
     34 H13        1.4189    3.4296   -5.0090 H         1 RES1    0.0000
     35 H14       -1.7099    2.0136   -4.2263 H         1 RES1    0.0000
     36 H15       -1.6799    3.1438   -3.1013 H         1 RES1    0.0000
     37 H16       -1.5255    1.7798   -2.6317 H         1 RES1    0.0000
     38 H17        0.4836    0.7275   -4.7644 H         1 RES1    0.0000
     39 H18        0.5952    0.4287   -3.2480 H         1 RES1    0.0000
     40 H19        1.5768    1.2471   -4.3633 H         1 RES1    0.0000
     41 H20        0.8866    4.0662    2.2404 H         1 RES1    0.0000
     42 H21        1.3824    5.3523    2.1914 H         1 RES1    0.0000
     43 H22        0.3048    5.0665    1.1349 H         1 RES1    0.0000
     44 H23        3.0295    4.6118   -4.8231 H         1 RES1    0.0000
     45 H24        3.7181    6.1058   -4.0405 H         1 RES1    0.0000
@<TRIPOS>BOND
     1    1    5 2
     2    2    5 2
     3    3    6 2
     4    4    6 2
     5    5   10 1
     6    6   11 1
     7    7    8 1
     8    8    9 1
     9    9   10 1
    10   10   11 1
    11   11   12 1
    12   12   13 1
    13   13   14 1
    14   14   15 1
    15   15    7 1
    16   16   15 1
    17   17    7 1
    18   18   17 1
    19   19   17 1
    20   20   10 1
    21   21   14 2
    22   22    7 1
    23   23   11 1
    24   24   15 1
    25   25    8 1
    26   26    8 1
    27   27    9 1
    28   28    9 1
    29   29   12 1
    30   30   12 1
    31   31   13 1
    32   32   13 1
    33   33   16 1
    34   34   16 1
    35   35   18 1
    36   36   18 1
    37   37   18 1
    38   38   19 1
    39   39   19 1
    40   40   19 1
    41   41   20 1
    42   42   20 1
    43   43   20 1
    44   44   21 1
    45   45   21 1
    46   16   17 1
@<TRIPOS>SUBSTRUCTURE
     1 RES1 1

@<TRIPOS>CRYSIN
   6.4050   12.9910    9.7970  90.0000  93.0400  90.0000   4 1

