# MOL2 file generated by ConQuest
# Please check atom types

@<TRIPOS>MOLECULE
DEMNUE
    62    62     2
SMALL
NO_CHARGES
****
Generated from CSD

@<TRIPOS>ATOM
      1 C1         2.1689    7.1082    3.8825 C.2       1 RES1    0.0000
      2 C2         2.0429    8.5055    4.5651 C.3       1 RES1    0.0000
      3 C3         1.1183    9.4356    3.8718 C.2       1 RES1    0.0000
      4 C4         0.6246    9.2525    2.6594 C.2       1 RES1    0.0000
      5 C5         0.9163    7.9767    1.9057 C.3       1 RES1    0.0000
      6 C6         1.1884    6.7561    2.7989 C.3       1 RES1    0.0000
      7 C7         3.4126    9.1210    4.7878 C.3       1 RES1    0.0000
      8 C8        -0.2060   10.2720    1.9419 C.3       1 RES1    0.0000
      9 C9         1.6795    5.5628    1.9701 C.3       1 RES1    0.0000
     10 C10       -0.1389    6.3824    3.4668 C.3       1 RES1    0.0000
     11 N1         1.4447    8.1842    5.9599 N.pl3     1 RES1    0.0000
     12 N2         2.1135    8.2234    1.0085 N.pl3     1 RES1    0.0000
     13 O1         2.9980    6.3446    4.2956 O.2       1 RES1    0.0000
     14 O2         0.2427    8.2757    6.0967 O.2       1 RES1    0.0000
     15 O3         2.2095    7.8588    6.8370 O.2       1 RES1    0.0000
     16 O4         3.2037    8.3211    1.5383 O.2       1 RES1    0.0000
     17 O5         1.9272    8.3189   -0.1811 O.2       1 RES1    0.0000
     18 H1         0.8564   10.2307    4.3412 H         1 RES1    0.0000
     19 H2         0.1246    7.7606    1.4082 H         1 RES1    0.0000
     20 H3         3.8093    9.3339    3.9402 H         1 RES1    0.0000
     21 H4         3.9714    8.4962    5.2545 H         1 RES1    0.0000
     22 H5         3.3222    9.9223    5.3095 H         1 RES1    0.0000
     23 H6         0.2105   10.4923    1.1064 H         1 RES1    0.0000
     24 H7        -0.2794   11.0620    2.4811 H         1 RES1    0.0000
     25 H8        -1.0815    9.9143    1.7783 H         1 RES1    0.0000
     26 H9         1.0350    5.3582    1.2888 H         1 RES1    0.0000
     27 H10        1.7920    4.8006    2.5427 H         1 RES1    0.0000
     28 H11        2.5195    5.7808    1.5597 H         1 RES1    0.0000
     29 H12       -0.7832    6.1489    2.7935 H         1 RES1    0.0000
     30 H13       -0.4633    7.1299    3.9751 H         1 RES1    0.0000
     31 H14       -0.0024    5.6337    4.0528 H         1 RES1    0.0000
     32 C11        1.8241   -0.1760    3.7404 C.2       2 RES2    0.0000
     33 C12        2.0241    0.3928    2.3161 C.3       2 RES2    0.0000
     34 C13        2.9976    1.5156    2.2370 C.2       2 RES2    0.0000
     35 C14        3.4979    2.1551    3.2790 C.2       2 RES2    0.0000
     36 C15        3.1536    1.7337    4.6778 C.3       2 RES2    0.0000
     37 C16        2.7937    0.2530    4.8320 C.3       2 RES2    0.0000
     38 C17        0.6797    0.7529    1.6925 C.3       2 RES2    0.0000
     39 C18        4.4082    3.3378    3.1530 C.3       2 RES2    0.0000
     40 C19        4.1004   -0.5414    4.6362 C.3       2 RES2    0.0000
     41 C20        2.2146   -0.0584    6.2201 C.3       2 RES2    0.0000
     42 N3         2.5928   -0.7905    1.4953 N.pl3     2 RES2    0.0000
     43 N4         2.0044    2.5960    5.1445 N.pl3     2 RES2    0.0000
     44 O6         0.9605   -0.9900    3.9281 O.2       2 RES2    0.0000
     45 O7         3.7789   -0.8253    1.2741 O.2       2 RES2    0.0000
     46 O8         1.8196   -1.6010    1.0581 O.2       2 RES2    0.0000
     47 O9         2.2064    3.4101    6.0256 O.2       2 RES2    0.0000
     48 O10        0.9296    2.4325    4.6174 O.2       2 RES2    0.0000
     49 H15        3.2840    1.7957    1.3653 H         2 RES2    0.0000
     50 H16        3.9409    1.8530    5.2129 H         2 RES2    0.0000
     51 H17        0.2927    1.4908    2.1686 H         2 RES2    0.0000
     52 H18        0.0912   -0.0052    1.7434 H         2 RES2    0.0000
     53 H19        0.8080    0.9964    0.7725 H         2 RES2    0.0000
     54 H20        4.0074    4.0983    3.5794 H         2 RES2    0.0000
     55 H21        4.5548    3.5318    2.2236 H         2 RES2    0.0000
     56 H22        5.2479    3.1392    3.5741 H         2 RES2    0.0000
     57 H23        3.9197   -1.4808    4.7113 H         2 RES2    0.0000
     58 H24        4.7344   -0.2834    5.3081 H         2 RES2    0.0000
     59 H25        4.4618   -0.3535    3.7672 H         2 RES2    0.0000
     60 H26        2.8307    0.2332    6.8960 H         2 RES2    0.0000
     61 H27        2.0728   -1.0049    6.3019 H         2 RES2    0.0000
     62 H28        1.3790    0.4007    6.3287 H         2 RES2    0.0000
@<TRIPOS>BOND
     1    1    2 1
     2    2    3 1
     3    3    4 2
     4    4    5 1
     5    5    6 1
     6    6    1 1
     7    7    2 1
     8    8    4 1
     9    9    6 1
    10   10    6 1
    11   11    2 1
    12   12    5 1
    13   13    1 2
    14   14   11 2
    15   15   11 2
    16   16   12 2
    17   17   12 2
    18   18    3 1
    19   19    5 1
    20   20    7 1
    21   21    7 1
    22   22    7 1
    23   23    8 1
    24   24    8 1
    25   25    8 1
    26   26    9 1
    27   27    9 1
    28   28    9 1
    29   29   10 1
    30   30   10 1
    31   31   10 1
    32   32   33 1
    33   33   34 1
    34   34   35 2
    35   35   36 1
    36   36   37 1
    37   37   32 1
    38   38   33 1
    39   39   35 1
    40   40   37 1
    41   41   37 1
    42   42   33 1
    43   43   36 1
    44   44   32 2
    45   45   42 2
    46   46   42 2
    47   47   43 2
    48   48   43 2
    49   49   34 1
    50   50   36 1
    51   51   38 1
    52   52   38 1
    53   53   38 1
    54   54   39 1
    55   55   39 1
    56   56   39 1
    57   57   40 1
    58   58   40 1
    59   59   40 1
    60   60   41 1
    61   61   41 1
    62   62   41 1
@<TRIPOS>SUBSTRUCTURE
     1 RES1 1
     2 RES2 32

@<TRIPOS>CRYSIN
   6.4400   13.9190   14.4130  68.9100  85.3700  88.0700   2 1

