# MOL2 file generated by ConQuest
# Please check atom types

@<TRIPOS>MOLECULE
DEMNIS
    33    33     1
SMALL
NO_CHARGES
****
Generated from CSD

@<TRIPOS>ATOM
      1 C1        10.3869    5.4616    5.5876 C.2       1 RES1    0.0000
      2 C2         8.9222    5.2460    5.3675 C.3       1 RES1    0.0000
      3 C3         8.7809    4.2262    4.3216 C.2       1 RES1    0.0000
      4 C4         9.7404    3.4329    3.7063 C.2       1 RES1    0.0000
      5 C5        11.1937    3.5007    3.9791 C.3       1 RES1    0.0000
      6 C6        11.5609    4.8861    4.5589 C.3       1 RES1    0.0000
      7 C7         8.0218    4.9409    6.7057 C.3       1 RES1    0.0000
      8 C8         9.4180    2.3908    2.7449 C.3       1 RES1    0.0000
      9 C9        12.2274    3.0262    2.8122 C.3       1 RES1    0.0000
     10 C10       12.8892    4.8955    5.1522 C.3       1 RES1    0.0000
     11 N1         8.3867    6.6120    4.9296 N.pl3     1 RES1    0.0000
     12 N2        11.2547    2.5256    5.1828 N.pl3     1 RES1    0.0000
     13 N3        11.7365    5.8684    3.3687 N.pl3     1 RES1    0.0000
     14 O1        10.6471    6.0350    6.5515 O.2       1 RES1    0.0000
     15 O2         8.6251    7.6051    5.5351 O.2       1 RES1    0.0000
     16 O3         7.7248    6.6148    4.0170 O.2       1 RES1    0.0000
     17 O4        10.5994    2.8545    6.2470 O.2       1 RES1    0.0000
     18 O5        11.9434    1.5253    5.0005 O.2       1 RES1    0.0000
     19 O6        10.7348    6.4475    3.1400 O.2       1 RES1    0.0000
     20 O7        12.8498    6.0242    2.7204 O.2       1 RES1    0.0000
     21 H1         8.2734    4.0906    7.0726 H         1 RES1    0.0000
     22 H2         7.0914    4.9251    6.4684 H         1 RES1    0.0000
     23 H3         8.1743    5.6290    7.3576 H         1 RES1    0.0000
     24 H4         8.4688    2.3727    2.5993 H         1 RES1    0.0000
     25 H5         9.7048    1.5405    3.0862 H         1 RES1    0.0000
     26 H6         9.8645    2.5704    1.9156 H         1 RES1    0.0000
     27 H7        12.8829    4.3164    5.9179 H         1 RES1    0.0000
     28 H8        13.0965    5.7891    5.4250 H         1 RES1    0.0000
     29 H9        13.5180    4.5868    4.5112 H         1 RES1    0.0000
     30 H10       12.1852    3.6428    2.0770 H         1 RES1    0.0000
     31 H11       11.9853    2.1485    2.5064 H         1 RES1    0.0000
     32 H12       13.1199    3.0074    3.1632 H         1 RES1    0.0000
     33 H13        7.8710    4.1830    4.1883 H         1 RES1    0.0000
@<TRIPOS>BOND
     1    1    2 1
     2    2    3 1
     3    3    4 2
     4    4    5 1
     5    5    6 1
     6    6    1 1
     7    7    2 1
     8    8    4 1
     9    9    5 1
    10   10    6 1
    11   11    2 1
    12   12    5 1
    13   13    6 1
    14   14    1 2
    15   15   11 2
    16   16   11 2
    17   17   12 2
    18   18   12 2
    19   19   13 2
    20   20   13 2
    21   21    7 1
    22   22    7 1
    23   23    7 1
    24   24    8 1
    25   25    8 1
    26   26    8 1
    27   27   10 1
    28   28   10 1
    29   29   10 1
    30   30    9 1
    31   31    9 1
    32   32    9 1
    33   33    3 1
@<TRIPOS>SUBSTRUCTURE
     1 RES1 1

@<TRIPOS>CRYSIN
  14.4050    7.2120   12.2710  90.0000  94.5600  90.0000  14 1

