# MOL2 file generated by ConQuest
# Please check atom types

@<TRIPOS>MOLECULE
DEMNOY
    33    33     1
SMALL
NO_CHARGES
****
Generated from CSD

@<TRIPOS>ATOM
      1 C1        -0.8923    5.2958    8.2689 C.2       1 RES1    0.0000
      2 C2        -0.5937    6.6875    7.9375 C.2       1 RES1    0.0000
      3 C3        -0.9859    7.6776    8.7278 C.2       1 RES1    0.0000
      4 C4        -1.6529    7.5400   10.0637 C.3       1 RES1    0.0000
      5 C5        -1.9113    6.0354   10.5124 C.3       1 RES1    0.0000
      6 C6        -2.0606    5.1328    9.2721 C.3       1 RES1    0.0000
      7 C7         0.2061    6.9142    6.6921 C.3       1 RES1    0.0000
      8 C8        -0.8645    8.3458   11.1077 C.3       1 RES1    0.0000
      9 C9        -3.0652    5.8630   11.4863 C.3       1 RES1    0.0000
     10 C10       -3.3276    5.3417    8.4844 C.3       1 RES1    0.0000
     11 N1        -3.0097    8.2864    9.9821 N.pl3     1 RES1    0.0000
     12 N2        -0.6030    5.6805   11.2326 N.pl3     1 RES1    0.0000
     13 N3        -2.0188    3.6571    9.7336 N.pl3     1 RES1    0.0000
     14 O1        -0.4216    4.3499    7.7106 O.2       1 RES1    0.0000
     15 O2        -3.5231    8.4316    8.8884 O.2       1 RES1    0.0000
     16 O3        -3.4898    8.7228   11.0134 O.2       1 RES1    0.0000
     17 O4        -0.6219    5.5718   12.4385 O.2       1 RES1    0.0000
     18 O5         0.3975    5.5625   10.5455 O.2       1 RES1    0.0000
     19 O6        -1.3124    3.3446   10.6552 O.2       1 RES1    0.0000
     20 O7        -2.7612    2.8844    9.1829 O.2       1 RES1    0.0000
     21 H1        -0.8269    8.5708    8.4143 H         1 RES1    0.0000
     22 H2         0.4001    6.0702    6.2779 H         1 RES1    0.0000
     23 H3         1.0269    7.3583    6.9152 H         1 RES1    0.0000
     24 H4        -0.2979    7.4602    6.0841 H         1 RES1    0.0000
     25 H5         0.0026    7.9518   11.2275 H         1 RES1    0.0000
     26 H6        -1.3387    8.3382   11.9426 H         1 RES1    0.0000
     27 H7        -0.7649    9.2509   10.8043 H         1 RES1    0.0000
     28 H8        -3.8885    6.0940   11.0503 H         1 RES1    0.0000
     29 H9        -2.9330    6.4370   12.2434 H         1 RES1    0.0000
     30 H10       -3.1028    4.9503   11.7782 H         1 RES1    0.0000
     31 H11       -4.0853    5.2356    9.0644 H         1 RES1    0.0000
     32 H12       -3.3743    4.6955    7.7756 H         1 RES1    0.0000
     33 H13       -3.3315    6.2256    8.1109 H         1 RES1    0.0000
@<TRIPOS>BOND
     1    1    2 1
     2    2    3 2
     3    3    4 1
     4    4    5 1
     5    5    6 1
     6    6    1 1
     7    7    2 1
     8    8    4 1
     9    9    5 1
    10   10    6 1
    11   11    4 1
    12   12    5 1
    13   13    6 1
    14   14    1 2
    15   15   11 2
    16   16   11 2
    17   17   12 2
    18   18   12 2
    19   19   13 2
    20   20   13 2
    21   21    3 1
    22   22    7 1
    23   23    7 1
    24   24    7 1
    25   25    8 1
    26   26    8 1
    27   27    8 1
    28   28    9 1
    29   29    9 1
    30   30    9 1
    31   31   10 1
    32   32   10 1
    33   33   10 1
@<TRIPOS>SUBSTRUCTURE
     1 RES1 1

@<TRIPOS>CRYSIN
  11.9240    8.4910   13.0160  90.0000 101.6700  90.0000 231 1

