# MOL2 file generated by ConQuest
# Please check atom types

@<TRIPOS>MOLECULE
DEMPAM
    62    62     2
SMALL
NO_CHARGES
****
Generated from CSD

@<TRIPOS>ATOM
      1 C1         4.5275    3.9311   -0.6735 C.2       1 RES1    0.0000
      2 C2         5.3001    2.9958    0.1630 C.2       1 RES1    0.0000
      3 C3         4.9938    2.7544    1.4438 C.2       1 RES1    0.0000
      4 C4         3.7936    3.3277    2.1188 C.3       1 RES1    0.0000
      5 C5         2.8346    4.0726    1.1578 C.3       1 RES1    0.0000
      6 C6         3.5202    4.8330   -0.0169 C.3       1 RES1    0.0000
      7 C7         6.4865    2.3058   -0.5105 C.3       1 RES1    0.0000
      8 C8         3.0751    2.2663    2.9737 C.3       1 RES1    0.0000
      9 C9         2.4815    5.3372   -0.9656 C.3       1 RES1    0.0000
     10 C10        4.2967    6.0238    0.5289 C.3       1 RES1    0.0000
     11 N1         4.2879    4.3764    3.1382 N.pl3     1 RES1    0.0000
     12 N2         1.8435    3.0729    0.5720 N.pl3     1 RES1    0.0000
     13 O1         4.7662    4.0411   -1.8482 O.2       1 RES1    0.0000
     14 O2         3.4614    5.0676    3.6994 O.2       1 RES1    0.0000
     15 O3         5.4760    4.4059    3.3965 O.2       1 RES1    0.0000
     16 O4         2.2889    2.2348   -0.1922 O.2       1 RES1    0.0000
     17 O5         0.6751    3.1842    0.9179 O.2       1 RES1    0.0000
     18 H1         5.5765    2.1852    1.9527 H         1 RES1    0.0000
     19 H2         2.3997    4.7458    1.6867 H         1 RES1    0.0000
     20 H3         6.5562    2.6036   -1.4207 H         1 RES1    0.0000
     21 H4         6.3513    1.3558   -0.4951 H         1 RES1    0.0000
     22 H5         7.2934    2.5231   -0.0400 H         1 RES1    0.0000
     23 H6         2.7318    1.5723    2.4063 H         1 RES1    0.0000
     24 H7         2.3506    2.6793    3.4488 H         1 RES1    0.0000
     25 H8         3.6952    1.8888    3.6010 H         1 RES1    0.0000
     26 H9         1.9706    4.5943   -1.2946 H         1 RES1    0.0000
     27 H10        2.9060    5.7851   -1.7006 H         1 RES1    0.0000
     28 H11        1.8980    5.9500   -0.5105 H         1 RES1    0.0000
     29 H12        3.6868    6.6239    0.9641 H         1 RES1    0.0000
     30 H13        4.7327    6.4797   -0.1953 H         1 RES1    0.0000
     31 H14        4.9550    5.7234    1.1609 H         1 RES1    0.0000
     32 C11        8.1853    6.2457    2.8092 C.2       2 RES2    0.0000
     33 C12        8.1863    6.5468    4.2821 C.2       2 RES2    0.0000
     34 C13        9.1361    6.0861    5.0263 C.2       2 RES2    0.0000
     35 C14       10.4011    5.4404    4.5343 C.3       2 RES2    0.0000
     36 C15       10.5436    5.3720    3.0106 C.3       2 RES2    0.0000
     37 C16        9.1966    5.2534    2.2464 C.3       2 RES2    0.0000
     38 C17        7.0194    7.3487    4.7772 C.3       2 RES2    0.0000
     39 C18       11.6261    6.0687    5.2216 C.3       2 RES2    0.0000
     40 C19        9.4025    5.3955    0.7442 C.3       2 RES2    0.0000
     41 C20        8.6131    3.8440    2.5124 C.3       2 RES2    0.0000
     42 N3        10.4607    3.9459    5.0279 N.pl3     2 RES2    0.0000
     43 N4        11.1996    6.6514    2.5877 N.pl3     2 RES2    0.0000
     44 O6         7.3765    6.7935    2.0481 O.2       2 RES2    0.0000
     45 O7        11.3648    3.2519    4.6496 O.2       2 RES2    0.0000
     46 O8         9.6247    3.5946    5.8274 O.2       2 RES2    0.0000
     47 O9        10.6080    7.6799    2.6508 O.2       2 RES2    0.0000
     48 O10       12.3318    6.5461    2.1157 O.2       2 RES2    0.0000
     49 H15        9.0222    6.1579    5.9766 H         2 RES2    0.0000
     50 H16       11.0472    4.5835    2.7969 H         2 RES2    0.0000
     51 H17        6.4611    7.5860    4.0331 H         2 RES2    0.0000
     52 H18        7.3369    8.1459    5.2062 H         2 RES2    0.0000
     53 H19        6.5123    6.8277    5.4046 H         2 RES2    0.0000
     54 H20       11.6816    6.9993    4.9925 H         2 RES2    0.0000
     55 H21       12.4246    5.6208    4.9341 H         2 RES2    0.0000
     56 H22       11.5330    5.9782    6.1718 H         2 RES2    0.0000
     57 H23        8.5527    5.3419    0.3014 H         2 RES2    0.0000
     58 H24        9.9725    4.6901    0.4290 H         2 RES2    0.0000
     59 H25        9.8089    6.2444    0.5566 H         2 RES2    0.0000
     60 H26        9.2133    3.1815    2.1634 H         2 RES2    0.0000
     61 H27        7.7620    3.7675    2.0757 H         2 RES2    0.0000
     62 H28        8.5027    3.7085    3.4565 H         2 RES2    0.0000
@<TRIPOS>BOND
     1    1    2 1
     2    2    3 2
     3    3    4 1
     4    4    5 1
     5    5    6 1
     6    6    1 1
     7    7    2 1
     8    8    4 1
     9    9    6 1
    10   10    6 1
    11   11    4 1
    12   12    5 1
    13   13    1 2
    14   14   11 2
    15   15   11 2
    16   16   12 2
    17   17   12 2
    18   18    3 1
    19   19    5 1
    20   20    7 1
    21   21    7 1
    22   22    7 1
    23   23    8 1
    24   24    8 1
    25   25    8 1
    26   26    9 1
    27   27    9 1
    28   28    9 1
    29   29   10 1
    30   30   10 1
    31   31   10 1
    32   32   33 1
    33   33   34 2
    34   34   35 1
    35   35   36 1
    36   36   37 1
    37   37   32 1
    38   38   33 1
    39   39   35 1
    40   40   37 1
    41   41   37 1
    42   42   35 1
    43   43   36 1
    44   44   32 2
    45   45   42 2
    46   46   42 2
    47   47   43 2
    48   48   43 2
    49   49   34 1
    50   50   36 1
    51   51   38 1
    52   52   38 1
    53   53   38 1
    54   54   39 1
    55   55   39 1
    56   56   39 1
    57   57   40 1
    58   58   40 1
    59   59   40 1
    60   60   41 1
    61   61   41 1
    62   62   41 1
@<TRIPOS>SUBSTRUCTURE
     1 RES1 1
     2 RES2 32

@<TRIPOS>CRYSIN
  11.5490    6.7050   15.3760  90.0000  90.3200  90.0000   7 1

