# MOL2 file generated by ConQuest
# Please check atom types

@<TRIPOS>MOLECULE
DEMPOA
    36    37     1
SMALL
NO_CHARGES
****
Generated from CSD

@<TRIPOS>ATOM
      1 C1         1.5245    4.2069    5.5510 C.3       1 RES1    0.0000
      2 O1         1.8140    5.2283    4.5884 O.3       1 RES1    0.0000
      3 C2         2.8466    3.4625    5.8787 C.3       1 RES1    0.0000
      4 C3         3.8724    4.4006    6.5122 C.2       1 RES1    0.0000
      5 O2         5.0242    4.4371    6.1266 O.2       1 RES1    0.0000
      6 C4         3.3588    5.2341    7.6589 C.3       1 RES1    0.0000
      7 C5         2.0765    5.9875    7.2936 C.3       1 RES1    0.0000
      8 C6         0.9891    5.0636    6.7383 C.3       1 RES1    0.0000
      9 N1         0.5518    4.1934    7.9329 N.pl3     1 RES1    0.0000
     10 O3         0.9240    3.0310    8.0243 O.2       1 RES1    0.0000
     11 O4        -0.1399    4.7378    8.7854 O.2       1 RES1    0.0000
     12 C7        -0.2541    5.8317    6.2773 C.3       1 RES1    0.0000
     13 C8        -1.3418    4.8936    5.7511 C.3       1 RES1    0.0000
     14 C9        -0.8270    4.0062    4.6159 C.3       1 RES1    0.0000
     15 C10        0.4456    3.2554    5.0161 C.3       1 RES1    0.0000
     16 C11        3.4329    2.8155    4.6348 C.2       1 RES1    0.0000
     17 O5         3.5220    3.3548    3.5533 O.2       1 RES1    0.0000
     18 O6         3.8397    1.5761    4.8754 O.3       1 RES1    0.0000
     19 C12        4.4128    0.8624    3.7418 C.3       1 RES1    0.0000
     20 H1         2.2055    4.9052    3.8983 H         1 RES1    0.0000
     21 H2         2.6856    2.7495    6.5296 H         1 RES1    0.0000
     22 H3         4.0370    5.8766    7.9445 H         1 RES1    0.0000
     23 H4         3.1934    4.6115    8.4055 H         1 RES1    0.0000
     24 H5         1.7154    6.4838    8.0837 H         1 RES1    0.0000
     25 H6         2.2606    6.6698    6.5963 H         1 RES1    0.0000
     26 H7        -0.5757    6.3915    6.9978 H         1 RES1    0.0000
     27 H8         0.0533    6.4107    5.5438 H         1 RES1    0.0000
     28 H9        -2.1010    5.4072    5.4147 H         1 RES1    0.0000
     29 H10       -1.6507    4.2819    6.5238 H         1 RES1    0.0000
     30 H11       -0.6436    4.5326    3.8171 H         1 RES1    0.0000
     31 H12       -1.5235    3.3650    4.3231 H         1 RES1    0.0000
     32 H13        0.2514    2.5712    5.7163 H         1 RES1    0.0000
     33 H14        0.8247    2.7828    4.2448 H         1 RES1    0.0000
     34 H15        4.6260   -0.0128    4.0723 H         1 RES1    0.0000
     35 H16        5.2101    1.3048    3.4620 H         1 RES1    0.0000
     36 H17        3.7680    0.8073    3.0299 H         1 RES1    0.0000
@<TRIPOS>BOND
     1    1    2 1
     2    2   20 1
     3    3    1 1
     4    4    3 1
     5    5    4 2
     6    6    4 1
     7    7    6 1
     8    8    1 1
     9    9    8 1
    10   10    9 2
    11   11    9 2
    12   12    8 1
    13   13   12 1
    14   14   13 1
    15   15    1 1
    16   16    3 1
    17   17   16 2
    18   18   16 1
    19   19   18 1
    20   21    3 1
    21   22    6 1
    22   23    6 1
    23   24    7 1
    24   25    7 1
    25   26   12 1
    26   27   12 1
    27   28   13 1
    28   29   13 1
    29   30   14 1
    30   31   14 1
    31   32   15 1
    32   33   15 1
    33   34   19 1
    34   35   19 1
    35   36   19 1
    36    7    8 1
    37   14   15 1
@<TRIPOS>SUBSTRUCTURE
     1 RES1 1

@<TRIPOS>CRYSIN
  13.3180    6.4120   14.9130  90.0000 103.5600  90.0000  14 1

