# MOL2 file generated by ConQuest
# Please check atom types

@<TRIPOS>MOLECULE
DEMPIU
    32    32     1
SMALL
NO_CHARGES
****
Generated from CSD

@<TRIPOS>ATOM
      1 C1        10.8061    3.9781    1.9168 C.2       1 RES1    0.0000
      2 C2        10.0776    3.3273    3.1789 C.3       1 RES1    0.0000
      3 C3         8.6460    3.7911    3.4395 C.2       1 RES1    0.0000
      4 C4         8.0442    4.6901    2.7546 C.2       1 RES1    0.0000
      5 C5         8.7674    5.3539    1.5195 C.3       1 RES1    0.0000
      6 C6        10.3112    5.3478    1.5399 C.3       1 RES1    0.0000
      7 C7        10.8657    3.5687    4.3764 C.3       1 RES1    0.0000
      8 C8         6.6143    5.0996    3.1499 C.3       1 RES1    0.0000
      9 C9         8.2429    6.7245    1.2449 C.3       1 RES1    0.0000
     10 C10       10.7088    6.3788    2.5490 C.3       1 RES1    0.0000
     11 N1        10.0832    1.8180    2.8828 N.pl3     1 RES1    0.0000
     12 N2         8.4957    4.4359    0.3198 N.pl3     1 RES1    0.0000
     13 O1        11.7717    3.4739    1.3095 O.2       1 RES1    0.0000
     14 O2         9.1245    1.3525    2.4068 O.2       1 RES1    0.0000
     15 O3        11.0619    1.1792    3.1057 O.2       1 RES1    0.0000
     16 O4         8.9767    3.3144    0.3112 O.2       1 RES1    0.0000
     17 O5         7.8558    4.8720   -0.5331 O.2       1 RES1    0.0000
     18 O6        10.9090    5.6978    0.2466 O.3       1 RES1    0.0000
     19 H1         8.1662    3.3816    4.1643 H         1 RES1    0.0000
     20 H2        11.7179    5.1306    0.0054 H         1 RES1    0.0000
     21 H3        10.8692    4.5083    4.5735 H         1 RES1    0.0000
     22 H4        11.7660    3.2678    4.2332 H         1 RES1    0.0000
     23 H5        10.4818    3.0885    5.1151 H         1 RES1    0.0000
     24 H6         6.0232    4.9522    2.4079 H         1 RES1    0.0000
     25 H7         6.6016    6.0288    3.3900 H         1 RES1    0.0000
     26 H8         6.3253    4.5720    3.8983 H         1 RES1    0.0000
     27 H9         8.4241    7.2934    1.9965 H         1 RES1    0.0000
     28 H10        7.2946    6.6805    1.0973 H         1 RES1    0.0000
     29 H11        8.6724    7.0813    0.4631 H         1 RES1    0.0000
     30 H12       10.3165    6.1633    3.3975 H         1 RES1    0.0000
     31 H13       10.3985    7.2417    2.2636 H         1 RES1    0.0000
     32 H14       11.6644    6.3935    2.6319 H         1 RES1    0.0000
@<TRIPOS>BOND
     1    1    2 1
     2    2    3 1
     3    3    4 2
     4    4    5 1
     5    5    6 1
     6    6    1 1
     7    7    2 1
     8    8    4 1
     9    9    5 1
    10   10    6 1
    11   11    2 1
    12   12    5 1
    13   13    1 2
    14   14   11 2
    15   15   11 2
    16   16   12 2
    17   17   12 2
    18   18    6 1
    19   19    3 1
    20   20   18 1
    21   21    7 1
    22   22    7 1
    23   23    7 1
    24   24    8 1
    25   25    8 1
    26   26    8 1
    27   27    9 1
    28   28    9 1
    29   29    9 1
    30   30   10 1
    31   31   10 1
    32   32   10 1
@<TRIPOS>SUBSTRUCTURE
     1 RES1 1

@<TRIPOS>CRYSIN
  12.7150    8.6200   10.7840  90.0000  93.0500  90.0000  14 1

