# MOL2 file generated by ConQuest
# Please check atom types

@<TRIPOS>MOLECULE
DEMROC
    33    33     1
SMALL
NO_CHARGES
****
Generated from CSD

@<TRIPOS>ATOM
      1 C1         3.6901   12.6977    5.8832 C.2       1 RES1    0.0000
      2 O1         3.8611   13.0687    7.1383 O.3       1 RES1    0.0000
      3 C2         4.1447   11.4601    5.4308 C.2       1 RES1    0.0000
      4 C3         3.9161   10.9936    4.0085 C.3       1 RES1    0.0000
      5 C4         2.6405   10.1385    3.9098 C.3       1 RES1    0.0000
      6 N1         2.5131    9.5504    2.5201 N.pl3     1 RES1    0.0000
      7 O2         2.0801    8.4059    2.4225 O.2       1 RES1    0.0000
      8 O3         2.8067   10.2539    1.5546 O.2       1 RES1    0.0000
      9 C5         1.3270   10.8766    4.2049 C.3       1 RES1    0.0000
     10 C6         1.0701   12.1182    3.3338 C.3       1 RES1    0.0000
     11 C7         0.5877   13.3466    4.1116 C.3       1 RES1    0.0000
     12 C8         1.4357   13.7284    5.3321 C.3       1 RES1    0.0000
     13 C9         2.9714   13.7415    5.0739 C.3       1 RES1    0.0000
     14 C10        4.8201   10.6057    6.3703 C.2       1 RES1    0.0000
     15 O4         4.9669   10.9413    7.5864 O.2       1 RES1    0.0000
     16 C11        5.3830    9.2687    5.9743 C.3       1 RES1    0.0000
     17 H1         4.3703   12.2198    7.5191 H         1 RES1    0.0000
     18 H2         3.8722   11.7649    3.4086 H         1 RES1    0.0000
     19 H3         4.6608   10.4487    3.6733 H         1 RES1    0.0000
     20 H4         2.7368    9.3534    4.4685 H         1 RES1    0.0000
     21 H5         1.3573   11.1268    5.1617 H         1 RES1    0.0000
     22 H6         0.5931   10.2409    4.1387 H         1 RES1    0.0000
     23 H7         1.9013   12.4122    2.8586 H         1 RES1    0.0000
     24 H8         0.4020   11.8896    2.6362 H         1 RES1    0.0000
     25 H9        -0.3503   13.2188    4.3958 H         1 RES1    0.0000
     26 H10        0.5706   14.1317    3.4921 H         1 RES1    0.0000
     27 H11        1.1426   14.6574    5.6597 H         1 RES1    0.0000
     28 H12        1.2213   13.0941    6.0915 H         1 RES1    0.0000
     29 H13        3.1786   13.6452    4.1007 H         1 RES1    0.0000
     30 H14        3.3622   14.6205    5.3624 H         1 RES1    0.0000
     31 H15        6.0592    9.0109    6.5666 H         1 RES1    0.0000
     32 H16        5.8029    9.2503    5.0999 H         1 RES1    0.0000
     33 H17        4.7965    8.6499    5.8832 H         1 RES1    0.0000
@<TRIPOS>BOND
     1    1    2 1
     2    2   17 1
     3    3    1 2
     4    4    3 1
     5    5    4 1
     6    6    5 1
     7    7    6 2
     8    8    6 2
     9    9    5 1
    10   10    9 1
    11   11   10 1
    12   12   11 1
    13   13    1 1
    14   14    3 1
    15   15   14 2
    16   16   14 1
    17   18    4 1
    18   19    4 1
    19   20    5 1
    20   21    9 1
    21   22    9 1
    22   23   10 1
    23   24   10 1
    24   25   11 1
    25   26   11 1
    26   27   12 1
    27   28   12 1
    28   29   13 1
    29   30   13 1
    30   31   16 1
    31   32   16 1
    32   33   16 1
    33   12   13 1
@<TRIPOS>SUBSTRUCTURE
     1 RES1 1

@<TRIPOS>CRYSIN
  13.1870    7.6970   10.8920  90.0000  95.1200  90.0000  14 1

