# MOL2 file generated by ConQuest
# Please check atom types

@<TRIPOS>MOLECULE
DEMRIW
    31    31     1
SMALL
NO_CHARGES
****
Generated from CSD

@<TRIPOS>ATOM
      1 C1         2.7003    5.3166    1.2737 C.3       1 RES1    0.0000
      2 C2         2.5816    4.0410    2.1093 C.2       1 RES1    0.0000
      3 O1         2.2944    4.1169    3.2863 O.2       1 RES1    0.0000
      4 C3         2.7837    2.7081    1.4323 C.3       1 RES1    0.0000
      5 C4         3.9451    2.6233    0.4420 C.3       1 RES1    0.0000
      6 C5         5.2931    2.7104    1.1432 C.3       1 RES1    0.0000
      7 N1         6.3657    2.4291    0.1093 N.pl3     1 RES1    0.0000
      8 O2         6.3479    2.9589   -0.9401 O.2       1 RES1    0.0000
      9 O3         7.2047    1.6767    0.3675 O.2       1 RES1    0.0000
     10 C6         5.6244    4.0276    1.8482 C.3       1 RES1    0.0000
     11 C7         5.2921    5.3307    1.1074 C.3       1 RES1    0.0000
     12 C8         4.0230    6.0503    1.5716 C.3       1 RES1    0.0000
     13 C9         1.5070    6.1776    1.6374 C.2       1 RES1    0.0000
     14 O4         1.5407    7.2195    2.2292 O.2       1 RES1    0.0000
     15 O5         0.3666    5.5852    1.2408 O.3       1 RES1    0.0000
     16 C10       -0.8591    6.2781    1.6093 C.3       1 RES1    0.0000
     17 H1         2.6450    5.1216    0.3211 H         1 RES1    0.0000
     18 H2         2.8645    2.0071    2.0842 H         1 RES1    0.0000
     19 H3         1.9269    2.5184    0.9294 H         1 RES1    0.0000
     20 H4         3.8528    3.3437   -0.2524 H         1 RES1    0.0000
     21 H5         3.8681    1.7853   -0.0097 H         1 RES1    0.0000
     22 H6         5.4311    1.9878    1.7563 H         1 RES1    0.0000
     23 H7         5.1195    3.9971    2.7234 H         1 RES1    0.0000
     24 H8         6.5640    3.9286    2.0223 H         1 RES1    0.0000
     25 H9         5.2636    5.2302    0.1586 H         1 RES1    0.0000
     26 H10        6.0649    5.9454    1.2399 H         1 RES1    0.0000
     27 H11        3.9658    6.8928    1.1151 H         1 RES1    0.0000
     28 H12        4.0806    6.1650    2.5832 H         1 RES1    0.0000
     29 H13       -0.8407    7.0639    1.1151 H         1 RES1    0.0000
     30 H14       -0.8194    6.5877    2.5116 H         1 RES1    0.0000
     31 H15       -1.6132    5.6611    1.4256 H         1 RES1    0.0000
@<TRIPOS>BOND
     1    1    2 1
     2    2    3 2
     3    4    2 1
     4    5    4 1
     5    6    5 1
     6    7    6 1
     7    8    7 2
     8    9    7 2
     9   10    6 1
    10   11   10 1
    11   12    1 1
    12   13    1 1
    13   14   13 2
    14   15   13 1
    15   16   15 1
    16   17    1 1
    17   18    4 1
    18   19    4 1
    19   20    5 1
    20   21    5 1
    21   22    6 1
    22   23   10 1
    23   24   10 1
    24   25   11 1
    25   26   11 1
    26   27   12 1
    27   28   12 1
    28   29   16 1
    29   30   16 1
    30   31   16 1
    31   11   12 1
@<TRIPOS>SUBSTRUCTURE
     1 RES1 1

@<TRIPOS>CRYSIN
  15.5050    7.4420   10.0320  90.0000 105.4100  90.0000  14 1

