# MOL2 file generated by ConQuest
# Please check atom types

@<TRIPOS>MOLECULE
DEMRES
    30    30     1
SMALL
NO_CHARGES
****
Generated from CSD

@<TRIPOS>ATOM
      1 C1         2.8460    4.2108    2.0481 C.2       1 RES1    0.0000
      2 O1         2.9617    5.5278    2.0163 O.3       1 RES1    0.0000
      3 C2         1.6210    3.5864    1.8691 C.2       1 RES1    0.0000
      4 C3         1.5381    2.0796    1.7914 C.3       1 RES1    0.0000
      5 C4         1.6767    1.6200    0.3404 C.3       1 RES1    0.0000
      6 N1         1.6122    0.1022    0.2568 N.pl3     1 RES1    0.0000
      7 O2         1.3045   -0.3831   -0.8315 O.2       1 RES1    0.0000
      8 O3         1.8931   -0.5655    1.2437 O.2       1 RES1    0.0000
      9 C5         2.9770    2.0409   -0.3663 C.3       1 RES1    0.0000
     10 C6         4.2843    1.7499    0.3910 C.3       1 RES1    0.0000
     11 C7         4.9031    2.9343    1.1354 C.3       1 RES1    0.0000
     12 C8         4.1326    3.4915    2.3449 C.3       1 RES1    0.0000
     13 C9         0.4376    4.3987    1.7584 C.2       1 RES1    0.0000
     14 O4         0.5083    5.6642    1.7101 O.2       1 RES1    0.0000
     15 C10       -0.9219    3.7706    1.7337 C.3       1 RES1    0.0000
     16 H1         1.9092    5.9027    1.7914 H         1 RES1    0.0000
     17 H2         2.2862    1.6477    2.3520 H         1 RES1    0.0000
     18 H3         0.6856    1.7665    2.1589 H         1 RES1    0.0000
     19 H4         0.8941    1.9203   -0.1990 H         1 RES1    0.0000
     20 H5         2.8850    3.0163   -0.5665 H         1 RES1    0.0000
     21 H6         2.9720    1.5841   -1.2555 H         1 RES1    0.0000
     22 H7         4.1472    0.9698    1.0329 H         1 RES1    0.0000
     23 H8         4.9400    1.4478   -0.2780 H         1 RES1    0.0000
     24 H9         5.0742    3.6481    0.4758 H         1 RES1    0.0000
     25 H10        5.8157    2.6608    1.5134 H         1 RES1    0.0000
     26 H11        3.9883    2.7538    2.9586 H         1 RES1    0.0000
     27 H12        4.7242    4.1381    2.8231 H         1 RES1    0.0000
     28 H13       -0.9928    3.1056    0.9858 H         1 RES1    0.0000
     29 H14       -1.0747    3.2521    2.5699 H         1 RES1    0.0000
     30 H15       -1.6072    4.4650    1.6713 H         1 RES1    0.0000
@<TRIPOS>BOND
     1    1    2 1
     2    2   16 1
     3    3    1 2
     4    4    3 1
     5    5    4 1
     6    6    5 1
     7    7    6 2
     8    8    6 2
     9    9    5 1
    10   10    9 1
    11   11   10 1
    12   12    1 1
    13   13    3 1
    14   14   13 2
    15   15   13 1
    16   17    4 1
    17   18    4 1
    18   19    5 1
    19   20    9 1
    20   21    9 1
    21   22   10 1
    22   23   10 1
    23   24   11 1
    24   25   11 1
    25   26   12 1
    26   27   12 1
    27   28   15 1
    28   29   15 1
    29   30   15 1
    30   11   12 1
@<TRIPOS>SUBSTRUCTURE
     1 RES1 1

@<TRIPOS>CRYSIN
   9.2780    9.2100   11.8900  90.0000  97.8800  90.0000  14 1

