# MOL2 file generated by ConQuest
# Please check atom types

@<TRIPOS>MOLECULE
DEMSOD
    24    24     1
SMALL
NO_CHARGES
****
Generated from CSD

@<TRIPOS>ATOM
      1 C1         2.8546    2.8196    4.4072 C.ar      1 RES1    0.0000
      2 C2         1.9113    1.8580    4.7278 C.ar      1 RES1    0.0000
      3 C3         0.9643    1.5375    3.7795 C.ar      1 RES1    0.0000
      4 C4         0.8754    2.1365    2.5409 C.ar      1 RES1    0.0000
      5 C5         1.8165    3.1070    2.2842 C.ar      1 RES1    0.0000
      6 C6         2.8093    3.4507    3.1686 C.ar      1 RES1    0.0000
      7 N1        -0.0399    0.5140    4.1219 N.pl3     1 RES1    0.0000
      8 O1        -0.0372    0.0729    5.2648 O.2       1 RES1    0.0000
      9 O2        -0.8237    0.1702    3.2593 O.2       1 RES1    0.0000
     10 N2         1.7502    3.8509    1.0154 N.pl3     1 RES1    0.0000
     11 O3         2.5314    4.7605    0.8358 O.2       1 RES1    0.0000
     12 O4         0.9093    3.5248    0.2098 O.2       1 RES1    0.0000
     13 O5         3.8824    3.2142    5.2145 O.3       1 RES1    0.0000
     14 C7         3.9126    2.7312    6.5605 C.3       1 RES1    0.0000
     15 O6         2.8497    3.1711    7.2989 O.3       1 RES1    0.0000
     16 C8         2.9117    4.5671    7.5960 C.3       1 RES1    0.0000
     17 H1         1.9167    1.4269    5.5854 H         1 RES1    0.0000
     18 H2         0.2026    1.8934    1.9015 H         1 RES1    0.0000
     19 H3         3.4611    4.1161    2.9353 H         1 RES1    0.0000
     20 H4         4.7233    3.0318    6.9784 H         1 RES1    0.0000
     21 H5         3.8991    1.7707    6.5437 H         1 RES1    0.0000
     22 H6         2.1112    4.8622    8.0374 H         1 RES1    0.0000
     23 H7         3.0437    5.0789    6.7954 H         1 RES1    0.0000
     24 H8         3.6626    4.6887    8.1817 H         1 RES1    0.0000
@<TRIPOS>BOND
     1    1    2 ar
     2    2    3 ar
     3    3    4 ar
     4    4    5 ar
     5    5    6 ar
     6    6    1 ar
     7    7    3 1
     8    8    7 2
     9    9    7 2
    10   10    5 1
    11   11   10 2
    12   12   10 2
    13   13    1 1
    14   14   13 1
    15   15   14 1
    16   16   15 1
    17   17    2 1
    18   18    4 1
    19   19    6 1
    20   20   14 1
    21   21   14 1
    22   22   16 1
    23   23   16 1
    24   24   16 1
@<TRIPOS>SUBSTRUCTURE
     1 RES1 1

@<TRIPOS>CRYSIN
   5.3870   11.0530   16.7830  90.0000  90.0000  90.0000  19 1

