# MOL2 file generated by ConQuest
# Please check atom types

@<TRIPOS>MOLECULE
DEMTUL
    45    46     1
SMALL
NO_CHARGES
****
Generated from CSD

@<TRIPOS>ATOM
      1 C1         4.7805    2.3111    3.3268 C.ar      1 RES1    0.0000
      2 C2         5.2405    2.0701    2.0328 C.ar      1 RES1    0.0000
      3 C3         5.1234    0.7843    1.4669 C.ar      1 RES1    0.0000
      4 H1         4.7425    0.0928    1.9581 H         1 RES1    0.0000
      5 C4         5.5780    0.5489    0.1687 C.ar      1 RES1    0.0000
      6 C5         6.1420    1.5879   -0.5723 C.ar      1 RES1    0.0000
      7 H2         6.4453    1.4317   -1.4371 H         1 RES1    0.0000
      8 C6         6.2522    2.8623   -0.0149 C.ar      1 RES1    0.0000
      9 H3         6.6346    3.5516   -0.5082 H         1 RES1    0.0000
     10 C7         5.7898    3.1102    1.2833 C.ar      1 RES1    0.0000
     11 C8         5.8782    4.3914    1.8278 C.ar      1 RES1    0.0000
     12 H4         6.2444    5.0852    1.3282 H         1 RES1    0.0000
     13 C9         5.4182    4.6325    3.1218 C.ar      1 RES1    0.0000
     14 H5         5.4779    5.4870    3.4848 H         1 RES1    0.0000
     15 C10        4.8689    3.5923    3.8713 C.ar      1 RES1    0.0000
     16 H6         4.5625    3.7530    4.7361 H         1 RES1    0.0000
     17 C11        4.0698    1.3072    4.1403 C.2       1 RES1    0.0000
     18 C12        2.5594    1.2122    4.1382 C.2       1 RES1    0.0000
     19 C13        0.6222    1.9773    3.0940 C.3       1 RES1    0.0000
     20 H7         0.3305    1.1250    2.7609 H         1 RES1    0.0000
     21 H8         0.3584    2.6677    2.4812 H         1 RES1    0.0000
     22 H9         0.2227    2.1402    3.9524 H         1 RES1    0.0000
     23 C14        6.5020   -0.5093    5.7162 C.3       1 RES1    0.0000
     24 H10        7.4609   -0.4618    5.7098 H         1 RES1    0.0000
     25 H11        6.2227   -1.3729    5.4023 H         1 RES1    0.0000
     26 H12        6.1816   -0.3769    6.6130 H         1 RES1    0.0000
     27 O1         2.0559    1.9750    3.2264 O.3       1 RES1    0.0000
     28 O2         1.9240    0.5229    4.8087 O.2       1 RES1    0.0000
     29 O3         5.9682    0.5037    4.8663 O.3       1 RES1    0.0000
     30 N1         4.5958    0.3973    4.8663 N.2       1 RES1    0.0000
     31 C15        5.4546   -0.7289   -0.4591 C.1       1 RES1    0.0000
     32 C16        5.4034   -1.7271   -1.0527 C.1       1 RES1    0.0000
     33 C17        5.3491   -2.9947   -1.7894 C.3       1 RES1    0.0000
     34 C18        4.1684   -3.1091   -2.6051 C.3       1 RES1    0.0000
     35 H13        3.3949   -3.1792   -2.0413 H         1 RES1    0.0000
     36 H14        4.2351   -3.8923   -3.1560 H         1 RES1    0.0000
     37 H15        4.0892   -2.3315   -3.1624 H         1 RES1    0.0000
     38 C19        5.4616   -4.1469   -0.8840 C.3       1 RES1    0.0000
     39 H16        4.8100   -4.0688   -0.1836 H         1 RES1    0.0000
     40 H17        6.3422   -4.1684   -0.5018 H         1 RES1    0.0000
     41 H18        5.3065   -4.9562   -1.3773 H         1 RES1    0.0000
     42 C20        6.5571   -3.0378   -2.7268 C.3       1 RES1    0.0000
     43 H19        7.3647   -2.9710   -2.2143 H         1 RES1    0.0000
     44 H20        6.5090   -2.3032   -3.3439 H         1 RES1    0.0000
     45 H21        6.5547   -3.8651   -3.2136 H         1 RES1    0.0000
@<TRIPOS>BOND
     1    1    2 ar
     2    2    3 ar
     3    3    4 1
     4    5    3 ar
     5    6    5 ar
     6    7    6 1
     7    8    6 ar
     8    9    8 1
     9   10    2 ar
    10   11   10 ar
    11   12   11 1
    12   13   11 ar
    13   14   13 1
    14   15    1 ar
    15   16   15 1
    16   17    1 1
    17   18   17 1
    18   19   20 1
    19   21   19 1
    20   22   19 1
    21   23   24 1
    22   25   23 1
    23   26   23 1
    24   27   18 1
    25   28   18 2
    26   29   23 1
    27   30   17 2
    28   31    5 1
    29   32   31 3
    30   33   32 1
    31   34   33 1
    32   35   34 1
    33   36   34 1
    34   37   34 1
    35   38   33 1
    36   39   38 1
    37   40   38 1
    38   41   38 1
    39   42   33 1
    40   43   42 1
    41   44   42 1
    42   45   42 1
    43    8   10 ar
    44   13   15 ar
    45   19   27 1
    46   29   30 1
@<TRIPOS>SUBSTRUCTURE
     1 RES1 1

@<TRIPOS>CRYSIN
   7.7580   11.3180   21.3529  90.0000  90.0000  90.0000  19 1

