# MOL2 file generated by ConQuest
# Please check atom types

@<TRIPOS>MOLECULE
DENSAN
    53    53     2
SMALL
NO_CHARGES
****
Generated from CSD

@<TRIPOS>ATOM
      1 H1        -5.8017   -1.7005    1.1537 H         1 RES1    0.0000
      2 H2        -7.4957   -1.6866   -0.2171 H         1 RES1    0.0000
      3 H3       -10.2549   -2.2937    2.8399 H         1 RES1    0.0000
      4 H4        -8.4678   -2.3394    4.3513 H         1 RES1    0.0000
      5 H5        -3.9711   -2.4594    4.0618 H         1 RES1    0.0000
      6 H6        -4.3308   -2.5735    2.4767 H         1 RES1    0.0000
      7 H7        -5.3190   -1.6995    5.7384 H         1 RES1    0.0000
      8 H8        -6.9333   -1.6201    5.6005 H         1 RES1    0.0000
      9 H9        -3.0302   -0.6072    2.8248 H         1 RES1    0.0000
     10 H10       -4.0642    0.0010    4.0072 H         1 RES1    0.0000
     11 H11       -4.5129   -0.1141    2.4767 H         1 RES1    0.0000
     12 H12       -6.2792   -3.6231    6.7037 H         1 RES1    0.0000
     13 H13       -5.3321   -4.1470    5.4162 H         1 RES1    0.0000
     14 H14       -6.9511   -4.0359    5.3862 H         1 RES1    0.0000
     15 O1       -10.0267   -1.8343   -0.8505 O.2       1 RES1    0.0000
     16 N1        -5.8684   -2.0676    3.8288 N.3       1 RES1    0.0000
     17 N2       -10.2648   -1.9960    0.3686 N.2       1 RES1    0.0000
     18 C1        -6.9035   -2.0350    2.9505 C.ar      1 RES1    0.0000
     19 C2        -6.6831   -1.8500    1.5604 C.ar      1 RES1    0.0000
     20 C3        -7.7461   -1.8202    0.6868 C.ar      1 RES1    0.0000
     21 C4        -9.0481   -1.9796    1.1342 C.ar      1 RES1    0.0000
     22 C5        -9.2884   -2.1680    2.4935 C.ar      1 RES1    0.0000
     23 C6        -8.2483   -2.1965    3.3924 C.ar      1 RES1    0.0000
     24 C7        -4.4725   -2.0124    3.3607 C.3       1 RES1    0.0000
     25 C8        -6.0630   -2.1657    5.2722 C.3       1 RES1    0.0000
     26 C9        -3.9793   -0.5898    3.1566 C.3       1 RES1    0.0000
     27 C10       -6.1227   -3.6094    5.7540 C.3       1 RES1    0.0000
     28 H15        4.7881    0.7808    1.7695 H         2 RES2    0.0000
     29 H16        3.0333    0.8443    0.3004 H         2 RES2    0.0000
     30 H17        3.3726    4.8722   -0.1147 H         2 RES2    0.0000
     31 H18        5.1227    4.8692    1.4336 H         2 RES2    0.0000
     32 H19        7.7956    1.7193    3.4297 H         2 RES2    0.0000
     33 H20        7.3011    3.8444    3.8379 H         2 RES2    0.0000
     34 H21        6.2189    4.7343    3.2385 H         2 RES2    0.0000
     35 H22        6.0665    1.8870    5.1090 H         2 RES2    0.0000
     36 H23        6.5855    0.4762    4.9916 H         2 RES2    0.0000
     37 H24        5.1515    0.8096    4.4114 H         2 RES2    0.0000
     38 H25        8.6636    3.7372    1.8486 H         2 RES2    0.0000
     39 H26        8.4930    5.2254    2.4562 H         2 RES2    0.0000
     40 H27        7.6710    4.6877    1.1783 H         2 RES2    0.0000
     41 O2         1.4562    2.0569   -1.3017 O.2       2 RES2    0.0000
     42 N3         6.2520    2.7685    2.6232 N.3       2 RES2    0.0000
     43 N4         1.9633    3.1106   -0.9702 N.2       2 RES2    0.0000
     44 C11        5.2088    2.7997    1.7741 C.ar      2 RES2    0.0000
     45 C12        4.7619    4.0207    1.1891 C.ar      2 RES2    0.0000
     46 C13        3.6966    4.0425    0.3158 C.ar      2 RES2    0.0000
     47 C14        3.0382    2.8648   -0.0169 C.ar      2 RES2    0.0000
     48 C15        3.4591    1.6555    0.5303 C.ar      2 RES2    0.0000
     49 C16        4.5047    1.6131    1.4180 C.ar      2 RES2    0.0000
     50 C17        6.9296    4.0080    3.0493 C.3       2 RES2    0.0000
     51 C18        6.7967    1.5235    3.1912 C.3       2 RES2    0.0000
     52 C19        8.0182    4.4273    2.0872 C.3       2 RES2    0.0000
     53 C20        6.0868    1.1412    4.4800 C.3       2 RES2    0.0000
@<TRIPOS>BOND
     1    1   19 1
     2    2   20 1
     3    3   22 1
     4    4   23 1
     5    5   24 1
     6    6   24 1
     7    7   25 1
     8    8   25 1
     9    9   26 1
    10   10   26 1
    11   11   26 1
    12   12   27 1
    13   13   27 1
    14   14   27 1
    15   15   17 2
    16   16   18 1
    17   17   21 1
    18   18   19 ar
    19   19   20 ar
    20   20   21 ar
    21   21   22 ar
    22   22   23 ar
    23   23   18 ar
    24   24   16 1
    25   25   16 1
    26   26   24 1
    27   27   25 1
    28   28   49 1
    29   29   48 1
    30   30   46 1
    31   31   45 1
    32   32   51 1
    33   33   50 1
    34   34   50 1
    35   35   53 1
    36   36   53 1
    37   37   53 1
    38   38   52 1
    39   39   52 1
    40   40   52 1
    41   41   43 2
    42   42   44 1
    43   43   47 1
    44   44   45 ar
    45   45   46 ar
    46   46   47 ar
    47   47   48 ar
    48   48   49 ar
    49   49   44 ar
    50   50   42 1
    51   51   42 1
    52   52   50 1
    53   53   51 1
@<TRIPOS>SUBSTRUCTURE
     1 RES1 1
     2 RES2 28

@<TRIPOS>CRYSIN
  14.3390    9.9210   13.6700  90.0000  87.1600  90.0000 231 1

