# MOL2 file generated by ConQuest
# Please check atom types

@<TRIPOS>MOLECULE
DENSAN01
    58    54     3
SMALL
NO_CHARGES
****
Generated from CSD

@<TRIPOS>ATOM
      1 O1         7.4865    1.8402    4.3243 O.2       1 RES1    0.0000
      2 N1         6.2816    2.0047    4.0427 N.2       1 RES1    0.0000
      3 N2         2.5896    2.0527    8.2300 N.3       1 RES1    0.0000
      4 C1         5.4522    1.9888    5.1885 C.ar      1 RES1    0.0000
      5 C2         5.8230    1.8200    6.5296 C.ar      1 RES1    0.0000
      6 H1         6.7378    1.6868    6.7468 H         1 RES1    0.0000
      7 C3         4.8953    1.8431    7.5308 C.ar      1 RES1    0.0000
      8 H2         5.1764    1.7353    8.4321 H         1 RES1    0.0000
      9 C4         3.5109    2.0269    7.2445 C.ar      1 RES1    0.0000
     10 C5         3.1514    2.1903    5.8772 C.ar      1 RES1    0.0000
     11 H3         2.2394    2.3197    5.6437 H         1 RES1    0.0000
     12 C6         4.1025    2.1640    4.8953 C.ar      1 RES1    0.0000
     13 H4         3.8348    2.2682    3.9899 H         1 RES1    0.0000
     14 C7         2.9717    1.9946    9.6484 C.3       1 RES1    0.0000
     15 H5         2.2707    2.4376   10.1901 H         1 RES1    0.0000
     16 H6         3.8160    2.4970    9.7763 H         1 RES1    0.0000
     17 C8         3.1597    0.5804   10.1479 C.3       1 RES1    0.0000
     18 H7         2.3238    0.0812   10.0374 H         1 RES1    0.0000
     19 H8         3.4070    0.5982   11.0962 H         1 RES1    0.0000
     20 H9         3.8712    0.1436    9.6336 H         1 RES1    0.0000
     21 C9         1.1508    2.1549    7.9726 C.3       1 RES1    0.0000
     22 H10        0.6580    1.6957    8.6989 H         1 RES1    0.0000
     23 H11        0.9405    1.6917    7.1235 H         1 RES1    0.0000
     24 C10        0.6775    3.5915    7.8842 C.3       1 RES1    0.0000
     25 H12        0.9233    4.0669    8.7046 H         1 RES1    0.0000
     26 H13       -0.2966    3.6093    7.7756 H         1 RES1    0.0000
     27 H14        1.0997    4.0283    7.1150 H         1 RES1    0.0000
     28 O2         6.4266    1.9909    3.2749 Du        3 SUP3    0.0000
     29 N3         6.6751    1.8661    4.5093 Du        3 SUP3    0.0000
     30 O3         4.8624    2.0364   12.7578 O.2       2 RES2    0.0000
     31 N4         5.2378    3.1131   12.2621 N.2       2 RES2    0.0000
     32 N5         9.0591    2.7743    8.1801 N.3       2 RES2    0.0000
     33 C11        6.2394    2.8486   11.2515 C.ar      2 RES2    0.0000
     34 C12        6.8209    1.6412   10.8495 C.ar      2 RES2    0.0000
     35 H15        6.5619    0.8320   11.2760 H         2 RES2    0.0000
     36 C13        7.7581    1.6060    9.8512 C.ar      2 RES2    0.0000
     37 H16        8.1501    0.7765    9.6036 H         2 RES2    0.0000
     38 C14        8.1512    2.7981    9.1804 C.ar      2 RES2    0.0000
     39 C15        7.5494    4.0109    9.6018 C.ar      2 RES2    0.0000
     40 H17        7.7901    4.8256    9.1770 H         2 RES2    0.0000
     41 C16        6.6276    4.0233   10.6122 C.ar      2 RES2    0.0000
     42 H18        6.2453    4.8494   10.8836 H         2 RES2    0.0000
     43 C17        9.6594    1.5382    7.6692 C.3       2 RES2    0.0000
     44 H19        9.8792    1.6561    6.7111 H         2 RES2    0.0000
     45 H20        9.0005    0.8033    7.7414 H         2 RES2    0.0000
     46 C18       10.9161    1.1539    8.4236 C.3       2 RES2    0.0000
     47 H21       11.5101    1.9304    8.4863 H         2 RES2    0.0000
     48 H22       11.3736    0.4299    7.9483 H         2 RES2    0.0000
     49 H23       10.6769    0.8518    9.3254 H         2 RES2    0.0000
     50 C19        9.5266    3.9986    7.5255 C.3       2 RES2    0.0000
     51 H24       10.4376    3.8490    7.1678 H         2 RES2    0.0000
     52 H25        9.5782    4.7266    8.1938 H         2 RES2    0.0000
     53 C20        8.6072    4.4235    6.3926 C.3       2 RES2    0.0000
     54 H26        8.5241    3.6915    5.7465 H         2 RES2    0.0000
     55 H27        8.9821    5.2119    5.9463 H         2 RES2    0.0000
     56 H28        7.7233    4.6424    6.7539 H         2 RES2    0.0000
     57 O4         4.8267    3.5667   12.7473 Du        3 SUP3    0.0000
     58 N6         5.3851    2.5128   12.2735 Du        3 SUP3    0.0000
@<TRIPOS>BOND
     1    1    2 2
     2    2    4 1
     3    3    9 1
     4    4    5 ar
     5    5    6 1
     6    7    5 ar
     7    8    7 1
     8    9    7 ar
     9   10    9 ar
    10   11   10 1
    11   12    4 ar
    12   13   12 1
    13   14    3 1
    14   15   14 1
    15   16   14 1
    16   17   14 1
    17   18   17 1
    18   19   17 1
    19   20   17 1
    20   21    3 1
    21   22   21 1
    22   23   21 1
    23   24   21 1
    24   25   24 1
    25   26   24 1
    26   27   24 1
    27   30   31 2
    28   31   33 1
    29   32   38 1
    30   33   34 ar
    31   34   35 1
    32   36   34 ar
    33   37   36 1
    34   38   36 ar
    35   39   38 ar
    36   40   39 1
    37   41   33 ar
    38   42   41 1
    39   43   32 1
    40   44   43 1
    41   45   43 1
    42   46   43 1
    43   47   46 1
    44   48   46 1
    45   49   46 1
    46   50   32 1
    47   51   50 1
    48   52   50 1
    49   53   50 1
    50   54   53 1
    51   55   53 1
    52   56   53 1
    53   10   12 ar
    54   39   41 ar
@<TRIPOS>SUBSTRUCTURE
     1 RES1 1
     2 RES2 30
     3 SUP3 28

@<TRIPOS>CRYSIN
  13.6918    9.9048   14.2888  90.0000  92.9500  90.0000 231 1

