# MOL2 file generated by ConQuest
# Please check atom types

@<TRIPOS>MOLECULE
DENVAT
    57    59     2
SMALL
NO_CHARGES
****
Generated from CSD

@<TRIPOS>ATOM
      1 N1         6.4896    2.4784    4.4428 N.am      1 RES1    0.0000
      2 O1         5.0789    1.2319    3.1146 O.2       1 RES1    0.0000
      3 O2         7.3542    2.8249    3.4498 O.3       1 RES1    0.0000
      4 O3         7.6300    3.4688    6.2153 O.2       1 RES1    0.0000
      5 C1         4.8209    1.3673    5.6167 C.3       1 RES1    0.0000
      6 C2         5.4810    0.0279    5.9717 C.3       1 RES1    0.0000
      7 C3         5.4659   -0.2721    7.4588 C.3       1 RES1    0.0000
      8 C4         6.1987    0.7885    8.3102 C.3       1 RES1    0.0000
      9 C5         5.5166    2.1519    8.0237 C.3       1 RES1    0.0000
     10 C6         5.3410    2.4917    6.5018 C.3       1 RES1    0.0000
     11 C7         6.6227    2.8661    5.8046 C.2       1 RES1    0.0000
     12 C8         5.3808    1.6846    4.2154 C.2       1 RES1    0.0000
     13 C9         3.2757    1.2332    5.5262 C.3       1 RES1    0.0000
     14 C10        4.5231    3.7489    6.4055 C.3       1 RES1    0.0000
     15 N2         5.2504   -0.2549    0.6473 N.am      2 RES2    0.0000
     16 O4         6.5527   -1.3594    2.1425 O.2       2 RES2    0.0000
     17 O5         5.9585    0.9319    0.6763 O.3       2 RES2    0.0000
     18 O6         3.6503    0.4434   -0.9141 O.2       2 RES2    0.0000
     19 C11        4.5396   -2.3802    1.1600 C.3       2 RES2    0.0000
     20 C12        3.6613   -2.4997    2.4453 C.3       2 RES2    0.0000
     21 C13        2.6417   -1.4098    2.5358 C.3       2 RES2    0.0000
     22 C14        1.6550   -1.3859    1.3874 C.3       2 RES2    0.0000
     23 C15        2.3151   -2.0815    0.0603 C.3       2 RES2    0.0000
     24 C16        3.7972   -1.8811   -0.1438 C.3       2 RES2    0.0000
     25 C17        4.1100   -0.3505   -0.1462 C.2       2 RES2    0.0000
     26 C18        5.6045   -1.3315    1.4013 C.2       2 RES2    0.0000
     27 C19        5.2518   -3.7382    0.9303 C.3       2 RES2    0.0000
     28 C20        4.3022   -2.5594   -1.4175 C.3       2 RES2    0.0000
     29 H1         6.4361    0.0266    5.7072 H         1 RES1    0.0000
     30 H2         5.0226   -0.3319    5.0924 H         1 RES1    0.0000
     31 H3         5.9695   -1.2611    7.6908 H         1 RES1    0.0000
     32 H4         4.3914   -0.3053    7.6560 H         1 RES1    0.0000
     33 H5         7.3418    0.8231    8.0968 H         1 RES1    0.0000
     34 H6         5.9558    0.4646    9.1988 H         1 RES1    0.0000
     35 H7         5.9832    3.0798    8.4796 H         1 RES1    0.0000
     36 H8         8.4122    2.8807    2.9812 H         1 RES1    0.0000
     37 H9         4.2541   -1.9647    3.2364 H         2 RES2    0.0000
     38 H10        3.0602   -3.2789    2.5752 H         2 RES2    0.0000
     39 H11        3.2112   -0.5310    2.6100 H         2 RES2    0.0000
     40 H12        2.0722   -1.5930    3.4916 H         2 RES2    0.0000
     41 H13        0.6175   -1.9647    1.7400 H         2 RES2    0.0000
     42 H14        2.0310   -3.2656   -0.1276 H         2 RES2    0.0000
     43 H15        4.6109    2.3099    8.5028 H         1 RES1    0.0000
     44 H16        2.9642    2.1240    5.3128 H         1 RES1    0.0000
     45 H17        2.8132    0.8231    6.4496 H         1 RES1    0.0000
     46 H18        3.0328    0.6239    4.8140 H         1 RES1    0.0000
     47 H19        4.5972    4.0356    5.3476 H         1 RES1    0.0000
     48 H20        5.0089    4.5135    6.8904 H         1 RES1    0.0000
     49 H21        3.7464    3.6639    6.8440 H         1 RES1    0.0000
     50 H22        1.6879   -1.5001   -0.8700 H         2 RES2    0.0000
     51 H23        5.4206   -3.7170    2.0532 H         2 RES2    0.0000
     52 H24        5.6950   -3.5312   -0.0348 H         2 RES2    0.0000
     53 H25        4.9403   -4.7790    0.4176 H         2 RES2    0.0000
     54 H26        5.4480   -2.5090   -1.0440 H         2 RES2    0.0000
     55 H27        3.7052   -2.6550   -2.1228 H         2 RES2    0.0000
     56 H28        4.2816   -3.6241   -1.5544 H         2 RES2    0.0000
     57 H29        6.6419    1.5001    0.0696 H         2 RES2    0.0000
@<TRIPOS>BOND
     1    1    3 1
     2    2   12 2
     3    3   36 1
     4    4   11 2
     5    5    6 1
     6    6    7 1
     7    7    8 1
     8    8    9 1
     9    9   10 1
    10   10    5 1
    11   11    1 1
    12   12    1 1
    13   13    5 1
    14   14   10 1
    15   15   17 1
    16   16   26 2
    17   17   57 1
    18   18   25 2
    19   19   20 1
    20   20   21 1
    21   21   22 1
    22   22   23 1
    23   23   24 1
    24   24   19 1
    25   25   15 1
    26   26   15 1
    27   27   19 1
    28   28   24 1
    29   29    6 1
    30   30    6 1
    31   31    7 1
    32   32    7 1
    33   33    8 1
    34   34    8 1
    35   35    9 1
    36   37   20 1
    37   38   20 1
    38   39   21 1
    39   40   21 1
    40   41   22 1
    41   42   23 1
    42   43    9 1
    43   44   13 1
    44   45   13 1
    45   46   13 1
    46   47   14 1
    47   48   14 1
    48   49   14 1
    49   50   23 1
    50   51   27 1
    51   52   27 1
    52   53   27 1
    53   54   28 1
    54   55   28 1
    55   56   28 1
    56    5   12 1
    57   10   11 1
    58   19   26 1
    59   24   25 1
@<TRIPOS>SUBSTRUCTURE
     1 RES1 1
     2 RES2 15

@<TRIPOS>CRYSIN
  13.7230   13.2750   11.6000  90.0000  90.0000  90.0000  29 4

