# MOL2 file generated by ConQuest
# Please check atom types

@<TRIPOS>MOLECULE
DEPVOM
    43    46     1
SMALL
NO_CHARGES
****
Generated from CSD

@<TRIPOS>ATOM
      1 O1         2.1421    5.7041    6.2895 O.2       1 RES1    0.0000
      2 N1         3.8692    1.8795    6.0724 N.pl3     1 RES1    0.0000
      3 N2         3.5802    1.2190    4.9124 N.2       1 RES1    0.0000
      4 N3         1.8532    5.5790    5.0284 N.pl3     1 RES1    0.0000
      5 C1         2.8380    2.0718    4.2089 C.2       1 RES1    0.0000
      6 C2         2.6435    3.2951    4.9159 C.2       1 RES1    0.0000
      7 C3         3.3167    3.1157    6.1112 C.2       1 RES1    0.0000
      8 H1         3.4128    3.6859    6.8924 H         1 RES1    0.0000
      9 C4         2.3520    1.7015    2.8683 C.ar      1 RES1    0.0000
     10 C5         3.1952    1.0054    1.9945 C.ar      1 RES1    0.0000
     11 H2         4.1069    0.7809    2.2728 H         1 RES1    0.0000
     12 C6         2.7458    0.6501    0.7325 C.ar      1 RES1    0.0000
     13 H3         3.3279    0.1549    0.1065 H         1 RES1    0.0000
     14 C7         1.4581    0.9670    0.3240 C.ar      1 RES1    0.0000
     15 H4         1.1509    0.7181   -0.5978 H         1 RES1    0.0000
     16 C8         0.6121    1.6411    1.1933 C.ar      1 RES1    0.0000
     17 H5        -0.3203    1.8208    0.9071 H         1 RES1    0.0000
     18 C9         1.0536    2.0124    2.4584 C.ar      1 RES1    0.0000
     19 H6         0.4563    2.4685    3.0803 H         1 RES1    0.0000
     20 C10        2.0315    4.4682    4.3620 C.2       1 RES1    0.0000
     21 H7         1.7991    4.5297    3.4101 H         1 RES1    0.0000
     22 C11        1.3998    6.7770    4.3441 C.ar      1 RES1    0.0000
     23 C12        0.4640    6.7157    3.3240 C.ar      1 RES1    0.0000
     24 H8         0.0810    5.8511    3.0545 H         1 RES1    0.0000
     25 C13        0.0818    7.8963    2.6915 C.ar      1 RES1    0.0000
     26 H9        -0.5871    7.8409    1.9584 H         1 RES1    0.0000
     27 C14        0.6303    9.1082    3.0789 C.ar      1 RES1    0.0000
     28 H10        0.3714    9.9367    2.6078 H         1 RES1    0.0000
     29 C15        1.5573    9.1489    4.1040 C.ar      1 RES1    0.0000
     30 H11        1.9562    9.9952    4.3928 H         1 RES1    0.0000
     31 C16        1.9424    7.9839    4.7513 C.ar      1 RES1    0.0000
     32 H12        2.5963    7.9914    5.5129 H         1 RES1    0.0000
     33 C17        4.7085    1.2581    7.0429 C.ar      1 RES1    0.0000
     34 C18        4.8401   -0.1269    7.0391 C.ar      1 RES1    0.0000
     35 H13        4.3522   -0.6488    6.3753 H         1 RES1    0.0000
     36 C19        5.6682   -0.7343    7.9726 C.ar      1 RES1    0.0000
     37 H14        5.7652   -1.7319    7.9626 H         1 RES1    0.0000
     38 C20        6.3408    0.0286    8.9121 C.ar      1 RES1    0.0000
     39 H15        6.9270   -0.4008    9.5724 H         1 RES1    0.0000
     40 C21        6.1835    1.4059    8.9213 C.ar      1 RES1    0.0000
     41 H16        6.6314    1.9821    9.6170 H         1 RES1    0.0000
     42 C22        5.3829    2.0320    7.9766 C.ar      1 RES1    0.0000
     43 H17        5.2997    3.0155    7.9506 H         1 RES1    0.0000
@<TRIPOS>BOND
     1    1    4 1
     2    2    3 1
     3    3    5 2
     4    4   20 2
     5    5    6 1
     6    6    7 2
     7    7    2 1
     8    8    7 1
     9    9    5 1
    10   10    9 ar
    11   11   10 1
    12   12   10 ar
    13   13   12 1
    14   14   12 ar
    15   15   14 1
    16   16   14 ar
    17   17   16 1
    18   18    9 ar
    19   19   18 1
    20   20    6 1
    21   21   20 1
    22   22    4 1
    23   23   22 ar
    24   24   23 1
    25   25   23 ar
    26   26   25 1
    27   27   25 ar
    28   28   27 1
    29   29   27 ar
    30   30   29 1
    31   31   22 ar
    32   32   31 1
    33   33    2 1
    34   34   33 ar
    35   35   34 1
    36   36   34 ar
    37   37   36 1
    38   38   36 ar
    39   39   38 1
    40   40   38 ar
    41   41   40 1
    42   42   33 ar
    43   43   42 1
    44   16   18 ar
    45   29   31 ar
    46   40   42 ar
@<TRIPOS>SUBSTRUCTURE
     1 RES1 1

@<TRIPOS>CRYSIN
   9.1084   10.8314   17.2226  90.0000  94.0600  90.0000  14 1

