# MOL2 file generated by ConQuest
# Please check atom types

@<TRIPOS>MOLECULE
DEQPUN
    34    36     1
SMALL
NO_CHARGES
****
Generated from CSD

@<TRIPOS>ATOM
      1 N1         2.3589   -3.0336    7.7320 N.2       1 RES1    0.0000
      2 C1         3.4244   -0.8924    6.1767 C.ar      1 RES1    0.0000
      3 H1         3.6343   -1.7337    5.8402 H         1 RES1    0.0000
      4 N2        -0.4051   -2.2847    8.8491 N.2       1 RES1    0.0000
      5 C2         2.4386   -0.7472    7.1427 C.ar      1 RES1    0.0000
      6 C3         4.0866    0.2256    5.7241 C.ar      1 RES1    0.0000
      7 C4         1.6990   -1.9584    7.6010 C.2       1 RES1    0.0000
      8 C5         0.1996   -3.0898    9.8355 C.ar      1 RES1    0.0000
      9 N3         5.0603    0.0672    4.6328 N.pl3     1 RES1    0.0000
     10 C6         1.1387   -4.0827    9.5361 C.ar      1 RES1    0.0000
     11 C7         2.1727    0.5218    7.6441 C.ar      1 RES1    0.0000
     12 H2         1.5099    0.6324    8.2875 H         1 RES1    0.0000
     13 O1         5.3428   -1.0622    4.2632 O.2       1 RES1    0.0000
     14 C8         1.5923   -4.2254    8.1173 C.3       1 RES1    0.0000
     15 H3         2.1465   -5.0164    8.0266 H         1 RES1    0.0000
     16 H4         0.8229   -4.3247    7.5349 H         1 RES1    0.0000
     17 C9        -0.2785   -2.9739   11.1365 C.ar      1 RES1    0.0000
     18 H5        -0.9229   -2.3341   11.3358 H         1 RES1    0.0000
     19 C10        0.2224   -1.8281    7.8319 C.2       1 RES1    0.0000
     20 C11        1.5888   -4.9120   10.5488 C.ar      1 RES1    0.0000
     21 H6         2.2151   -5.5719   10.3567 H         1 RES1    0.0000
     22 C12        3.8415    1.4889    6.2209 C.ar      1 RES1    0.0000
     23 H7         4.3085    2.2287    5.9054 H         1 RES1    0.0000
     24 C13        2.8818    1.6187    7.1982 C.ar      1 RES1    0.0000
     25 H8         2.7088    2.4561    7.5640 H         1 RES1    0.0000
     26 O2         5.5376    1.0700    4.1464 O.2       1 RES1    0.0000
     27 C14        1.1205   -4.7737   11.8381 C.ar      1 RES1    0.0000
     28 H9         1.4301   -5.3389   12.5088 H         1 RES1    0.0000
     29 C15        0.1954   -3.7980   12.1307 C.ar      1 RES1    0.0000
     30 H10       -0.1106   -3.6968   13.0032 H         1 RES1    0.0000
     31 C16       -0.5720   -1.0813    6.7972 C.3       1 RES1    0.0000
     32 H11       -1.5078   -1.2514    6.9286 H         1 RES1    0.0000
     33 H12       -0.3128   -1.3753    5.9213 H         1 RES1    0.0000
     34 H13       -0.4032   -0.1394    6.8818 H         1 RES1    0.0000
@<TRIPOS>BOND
     1    1    7 2
     2    2    3 1
     3    4    8 1
     4    5    2 ar
     5    6    2 ar
     6    7    5 1
     7    8   10 ar
     8    9    6 1
     9   10   14 1
    10   11    5 ar
    11   12   11 1
    12   13    9 2
    13   14    1 1
    14   15   14 1
    15   16   14 1
    16   17    8 ar
    17   18   17 1
    18   19    4 2
    19   20   10 ar
    20   21   20 1
    21   22    6 ar
    22   23   22 1
    23   24   11 ar
    24   25   24 1
    25   26    9 2
    26   27   20 ar
    27   28   27 1
    28   29   17 ar
    29   30   29 1
    30   31   19 1
    31   32   31 1
    32   33   31 1
    33   34   31 1
    34    7   19 1
    35   22   24 ar
    36   27   29 ar
@<TRIPOS>SUBSTRUCTURE
     1 RES1 1

@<TRIPOS>CRYSIN
   8.0790    9.7385   10.0265 118.2850  93.0114  90.1807   2 1

