# MOL2 file generated by ConQuest
# Please check atom types

@<TRIPOS>MOLECULE
DEQROJ
    59    63     1
SMALL
NO_CHARGES
****
Generated from CSD

@<TRIPOS>ATOM
      1 C1         3.8183    0.7986   13.7555 C.ar      1 RES1    0.0000
      2 H1         3.2088    1.4650   13.9745 H         1 RES1    0.0000
      3 C2         4.3607   -0.0282   14.7487 C.ar      1 RES1    0.0000
      4 H2         4.1031    0.0910   15.6339 H         1 RES1    0.0000
      5 C3         5.2604   -1.0067   14.4349 C.ar      1 RES1    0.0000
      6 H3         5.6274   -1.5398   15.1021 H         1 RES1    0.0000
      7 C4         5.6122   -1.1887   13.1401 C.ar      1 RES1    0.0000
      8 H4         6.2055   -1.8703   12.9202 H         1 RES1    0.0000
      9 C5         5.1099   -0.3858   12.1403 C.ar      1 RES1    0.0000
     10 H5         5.3794   -0.5125   11.2608 H         1 RES1    0.0000
     11 C6         4.2070    0.6057   12.4498 C.ar      1 RES1    0.0000
     12 C7         3.7988    1.4445   10.1525 C.2       1 RES1    0.0000
     13 C8         2.9891    2.5877    8.1992 C.3       1 RES1    0.0000
     14 H6         3.2153    1.7229    7.7972 H         1 RES1    0.0000
     15 C9         3.9461    3.6550    7.6860 C.3       1 RES1    0.0000
     16 H7         4.8652    3.3191    7.7465 H         1 RES1    0.0000
     17 C10        3.9179    3.0200    5.2666 C.3       1 RES1    0.0000
     18 H8         3.4438    2.2008    5.4819 H         1 RES1    0.0000
     19 H9         4.8663    2.8206    5.2320 H         1 RES1    0.0000
     20 C11        3.4513    3.5467    3.9121 C.3       1 RES1    0.0000
     21 H10        2.4889    3.6648    3.9315 H         1 RES1    0.0000
     22 H11        3.6581    2.8922    3.2268 H         1 RES1    0.0000
     23 C12        4.1171    4.8838    3.5492 C.3       1 RES1    0.0000
     24 C13        3.3528    5.7442    2.5596 C.3       1 RES1    0.0000
     25 H12        3.7837    5.7290    1.6895 H         1 RES1    0.0000
     26 H13        2.4423    5.4246    2.4600 H         1 RES1    0.0000
     27 C14        4.0392    5.7876    4.7351 C.2       1 RES1    0.0000
     28 C15        4.3932    5.2718    6.0842 C.3       1 RES1    0.0000
     29 H14        5.3556    5.0886    6.1152 H         1 RES1    0.0000
     30 C16        4.0013    6.0736    7.3069 C.3       1 RES1    0.0000
     31 H15        3.1612    6.5569    7.1639 H         1 RES1    0.0000
     32 C17        5.3567    6.5938    9.0924 C.3       1 RES1    0.0000
     33 C18        3.8541    5.0063    8.4020 C.3       1 RES1    0.0000
     34 H16        3.0096    5.1016    8.8891 H         1 RES1    0.0000
     35 C19        1.5286    2.8867    7.9654 C.3       1 RES1    0.0000
     36 H17        0.9960    2.1705    8.3178 H         1 RES1    0.0000
     37 H18        1.3673    2.9734    7.0229 H         1 RES1    0.0000
     38 H19        1.2959    3.7070    8.4080 H         1 RES1    0.0000
     39 C20        5.5754    4.6953    3.1155 C.3       1 RES1    0.0000
     40 H20        5.9662    5.5513    2.9279 H         1 RES1    0.0000
     41 H21        5.6057    4.1491    2.3266 H         1 RES1    0.0000
     42 H22        6.0658    4.2673    3.8206 H         1 RES1    0.0000
     43 C21        6.8334    6.7097    9.2631 C.3       1 RES1    0.0000
     44 H23        7.0770    6.4258   10.1482 H         1 RES1    0.0000
     45 H24        7.0997    7.6232    9.1372 H         1 RES1    0.0000
     46 H25        7.2751    6.1549    8.6166 H         1 RES1    0.0000
     47 C22        4.6000    7.4769   10.0373 C.3       1 RES1    0.0000
     48 H26        3.6581    7.3913    9.8720 H         1 RES1    0.0000
     49 H27        4.8674    8.3893    9.9058 H         1 RES1    0.0000
     50 H28        4.7905    7.2147   10.9413 H         1 RES1    0.0000
     51 N1         3.6614    1.4921   11.5011 N.am      1 RES1    0.0000
     52 N2         3.6321    6.9719    4.5148 N.2       1 RES1    0.0000
     53 N3         3.6592    4.0234    6.2947 N.3       1 RES1    0.0000
     54 O1         4.3683    0.6101    9.4972 O.2       1 RES1    0.0000
     55 O2         3.1655    2.5140    9.6389 O.3       1 RES1    0.0000
     56 O3         3.3647    7.0803    3.1087 O.3       1 RES1    0.0000
     57 O4         5.0243    6.9394    7.7602 O.3       1 RES1    0.0000
     58 O5         4.9767    5.2490    9.2445 O.3       1 RES1    0.0000
     59 H29        3.1720    2.1781   11.8058 H         1 RES1    0.0000
@<TRIPOS>BOND
     1    1    2 1
     2    3    1 ar
     3    4    3 1
     4    5    3 ar
     5    6    5 1
     6    7    5 ar
     7    8    7 1
     8    9    7 ar
     9   10    9 1
    10   11    1 ar
    11   12   51 1
    12   13   14 1
    13   15   13 1
    14   16   15 1
    15   17   18 1
    16   19   17 1
    17   20   17 1
    18   21   20 1
    19   22   20 1
    20   23   20 1
    21   24   23 1
    22   25   24 1
    23   26   24 1
    24   27   23 1
    25   28   27 1
    26   29   28 1
    27   30   28 1
    28   31   30 1
    29   32   43 1
    30   33   15 1
    31   34   33 1
    32   35   13 1
    33   36   35 1
    34   37   35 1
    35   38   35 1
    36   39   23 1
    37   40   39 1
    38   41   39 1
    39   42   39 1
    40   43   44 1
    41   45   43 1
    42   46   43 1
    43   47   32 1
    44   48   47 1
    45   49   47 1
    46   50   47 1
    47   51   11 1
    48   52   27 2
    49   53   15 1
    50   54   12 2
    51   55   12 1
    52   56   24 1
    53   57   30 1
    54   58   32 1
    55   59   51 1
    56    9   11 ar
    57   13   55 1
    58   17   53 1
    59   28   53 1
    60   30   33 1
    61   32   57 1
    62   33   58 1
    63   52   56 1
@<TRIPOS>SUBSTRUCTURE
     1 RES1 1

@<TRIPOS>CRYSIN
  10.8260   10.8361   18.7930  90.0000  90.0000  90.0000  19 1

