# MOL2 file generated by ConQuest
# Please check atom types

@<TRIPOS>MOLECULE
DERBAG
   152   160     4
SMALL
NO_CHARGES
****
Generated from CSD

@<TRIPOS>ATOM
      1 O1        10.6455   10.4842   13.0558 O.3       1 RES1    0.0000
      2 O2        10.4366    9.3436    8.6335 O.3       1 RES1    0.0000
      3 H1        10.4669    9.7268    7.8867 H         1 RES1    0.0000
      4 N1        10.1430   10.2854    9.6310 N.2       1 RES1    0.0000
      5 C1         9.8347   10.6653   11.9468 C.2       1 RES1    0.0000
      6 C2        10.1626    9.7730   10.8044 C.2       1 RES1    0.0000
      7 C3        10.5520    8.3516   11.1040 C.3       1 RES1    0.0000
      8 H2        11.0551    7.9781   10.3376 H         1 RES1    0.0000
      9 H3         9.7364    7.8052   11.2318 H         1 RES1    0.0000
     10 C4        11.4175    8.2822   12.3670 C.3       1 RES1    0.0000
     11 H4        11.4943    7.3414   12.6654 H         1 RES1    0.0000
     12 H5        12.3273    8.6163   12.1647 H         1 RES1    0.0000
     13 C5        10.8110    9.1078   13.4599 C.3       1 RES1    0.0000
     14 H6         9.9291    8.7300   13.7044 H         1 RES1    0.0000
     15 H7        11.3922    9.0691   14.2603 H         1 RES1    0.0000
     16 C6         8.9043   11.6386   11.9742 C.2       1 RES1    0.0000
     17 C7         7.9532   11.8771   10.8491 C.ar      1 RES1    0.0000
     18 C8         7.8036   13.1657   10.3334 C.ar      1 RES1    0.0000
     19 H8         8.2824   13.8860   10.7263 H         1 RES1    0.0000
     20 C9         6.9612   13.4102    9.2495 C.ar      1 RES1    0.0000
     21 H9         6.8824   14.2890    8.8972 H         1 RES1    0.0000
     22 C10        6.2398   12.3718    8.6872 C.ar      1 RES1    0.0000
     23 H10        5.6777   12.5318    7.9384 H         1 RES1    0.0000
     24 C11        6.3415   11.0959    9.2224 C.ar      1 RES1    0.0000
     25 H11        5.8317   10.3865    8.8491 H         1 RES1    0.0000
     26 C12        7.1823   10.8475   10.2992 C.ar      1 RES1    0.0000
     27 H12        7.2342    9.9722   10.6649 H         1 RES1    0.0000
     28 C13        8.7941   12.5585   13.1376 C.ar      1 RES1    0.0000
     29 C14        9.9148   13.1845   13.6864 C.ar      1 RES1    0.0000
     30 H13       10.7785   12.9821   13.3466 H         1 RES1    0.0000
     31 C15        9.7825   14.1012   14.7251 C.ar      1 RES1    0.0000
     32 H14       10.5529   14.5330   15.0754 H         1 RES1    0.0000
     33 C16        8.5338   14.3874   15.2504 C.ar      1 RES1    0.0000
     34 H15        8.4462   15.0097   15.9630 H         1 RES1    0.0000
     35 C17        7.4138   13.7610   14.7307 C.ar      1 RES1    0.0000
     36 H16        6.5562   13.9440   15.0963 H         1 RES1    0.0000
     37 C18        7.5408   12.8641   13.6741 C.ar      1 RES1    0.0000
     38 H17        6.7641   12.4536   13.3124 H         1 RES1    0.0000
     39 O3        13.2140    2.0172   13.1263 O.3       2 RES2    0.0000
     40 O4        13.5367    1.0139    8.6542 O.3       2 RES2    0.0000
     41 H18       13.6724    1.3850    7.9129 H         2 RES2    0.0000
     42 N2        13.2597    1.9905    9.6220 N.2       2 RES2    0.0000
     43 C19       12.6858    2.3377   11.8964 C.2       2 RES2    0.0000
     44 C20       13.0606    1.4528   10.7693 C.2       2 RES2    0.0000
     45 C21       13.2108   -0.0221   11.0137 C.3       2 RES2    0.0000
     46 H19       14.0934   -0.3246   10.6826 H         2 RES2    0.0000
     47 H20       12.5105   -0.5134   10.5154 H         2 RES2    0.0000
     48 C22       13.0907   -0.3318   12.4994 C.3       2 RES2    0.0000
     49 H21       12.1386   -0.3304   12.7705 H         2 RES2    0.0000
     50 H22       13.4689   -1.2263   12.6912 H         2 RES2    0.0000
     51 C23       13.8501    0.7279   13.2667 C.3       2 RES2    0.0000
     52 H23       13.8860    0.4800   14.2245 H         2 RES2    0.0000
     53 H24       14.7788    0.7792   12.9279 H         2 RES2    0.0000
     54 C24       11.8697    3.4111   11.8134 C.2       2 RES2    0.0000
     55 C25       11.1121    3.7303   10.5706 C.ar      2 RES2    0.0000
     56 C26       11.1507    5.0202   10.0430 C.ar      2 RES2    0.0000
     57 H25       11.6647    5.6889   10.4802 H         2 RES2    0.0000
     58 C27       10.4481    5.3442    8.8852 C.ar      2 RES2    0.0000
     59 H26       10.4864    6.2274    8.5374 H         2 RES2    0.0000
     60 C28        9.6928    4.3774    8.2408 C.ar      2 RES2    0.0000
     61 H27        9.2196    4.5902    7.4449 H         2 RES2    0.0000
     62 C29        9.6340    3.0954    8.7689 C.ar      2 RES2    0.0000
     63 H28        9.1199    2.4290    8.3285 H         2 RES2    0.0000
     64 C30       10.3186    2.7764    9.9339 C.ar      2 RES2    0.0000
     65 H29       10.2462    1.9025   10.2996 H         2 RES2    0.0000
     66 C31       11.6203    4.3078   12.9747 C.ar      2 RES2    0.0000
     67 C32       12.6464    4.8008   13.7707 C.ar      2 RES2    0.0000
     68 H30       13.5451    4.5541   13.5865 H         2 RES2    0.0000
     69 C33       12.3690    5.6540   14.8370 C.ar      2 RES2    0.0000
     70 H31       13.0790    5.9840   15.3750 H         2 RES2    0.0000
     71 C34       11.0657    6.0231   15.1162 C.ar      2 RES2    0.0000
     72 H32       10.8805    6.5973   15.8500 H         2 RES2    0.0000
     73 C35       10.0364    5.5564   14.3283 C.ar      2 RES2    0.0000
     74 H33        9.1406    5.8114   14.5151 H         2 RES2    0.0000
     75 C36       10.3116    4.7137   13.2615 C.ar      2 RES2    0.0000
     76 H34        9.5981    4.4059   12.7149 H         2 RES2    0.0000
     77 O5         5.6981   11.9360    5.0350 O.3       3 RES3    0.0000
     78 O6         6.1590   10.9484    0.5806 O.3       3 RES3    0.0000
     79 H35        6.2593   11.3241   -0.1639 H         3 RES3    0.0000
     80 N3         5.8150   11.9064    1.5451 N.2       3 RES3    0.0000
     81 C37        5.1729   12.2352    3.7995 C.2       3 RES3    0.0000
     82 C38        5.5861   11.3557    2.6819 C.2       3 RES3    0.0000
     83 C39        5.7560    9.8843    2.9325 C.3       3 RES3    0.0000
     84 H36        6.6494    9.5953    2.6191 H         3 RES3    0.0000
     85 H37        5.0730    9.3800    2.4234 H         3 RES3    0.0000
     86 C40        5.6134    9.5803    4.4157 C.3       3 RES3    0.0000
     87 H38        4.6563    9.5689    4.6687 H         3 RES3    0.0000
     88 H39        6.0004    8.6919    4.6182 H         3 RES3    0.0000
     89 C41        6.3405   10.6501    5.1936 C.3       3 RES3    0.0000
     90 H40        6.3563   10.4062    6.1531 H         3 RES3    0.0000
     91 H41        7.2767   10.7085    4.8771 H         3 RES3    0.0000
     92 C42        4.3459   13.2984    3.6948 C.2       3 RES3    0.0000
     93 C43        3.5688   13.5686    2.4505 C.ar      3 RES3    0.0000
     94 C44        3.5788   14.8440    1.8794 C.ar      3 RES3    0.0000
     95 H42        4.0878   15.5368    2.2837 H         3 RES3    0.0000
     96 C45        2.8489   15.1088    0.7219 C.ar      3 RES3    0.0000
     97 H43        2.8667   15.9788    0.3406 H         3 RES3    0.0000
     98 C46        2.0971   14.1089    0.1245 C.ar      3 RES3    0.0000
     99 H44        1.6098   14.2857   -0.6717 H         3 RES3    0.0000
    100 C47        2.0633   12.8491    0.7004 C.ar      3 RES3    0.0000
    101 H45        1.5471   12.1610    0.2974 H         3 RES3    0.0000
    102 C48        2.7775   12.5831    1.8615 C.ar      3 RES3    0.0000
    103 H46        2.7264   11.7213    2.2581 H         3 RES3    0.0000
    104 C49        4.1027   14.2310    4.8267 C.ar      3 RES3    0.0000
    105 C50        5.1508   14.7359    5.5959 C.ar      3 RES3    0.0000
    106 H47        6.0412   14.4512    5.4262 H         3 RES3    0.0000
    107 C51        4.8986   15.6574    6.6137 C.ar      3 RES3    0.0000
    108 H48        5.6195   16.0031    7.1270 H         3 RES3    0.0000
    109 C52        3.6089   16.0691    6.8785 C.ar      3 RES3    0.0000
    110 H49        3.4420   16.6920    7.5763 H         3 RES3    0.0000
    111 C53        2.5585   15.5740    6.1272 C.ar      3 RES3    0.0000
    112 H50        1.6689   15.8505    6.3129 H         3 RES3    0.0000
    113 C54        2.8064   14.6726    5.1012 C.ar      3 RES3    0.0000
    114 H51        2.0823   14.3508    4.5770 H         3 RES3    0.0000
    115 O7         9.6740    3.8261    4.6769 O.3       4 RES4    0.0000
    116 O8         9.1850    2.5906    0.2837 O.3       4 RES4    0.0000
    117 H52        9.2223    2.9613   -0.4692 H         4 RES4    0.0000
    118 N4         8.9943    3.5638    1.2748 N.2       4 RES4    0.0000
    119 C55        8.8199    3.9877    3.5950 C.2       4 RES4    0.0000
    120 C56        9.0905    3.0765    2.4557 C.2       4 RES4    0.0000
    121 C57        9.4938    1.6584    2.7597 C.3       4 RES4    0.0000
    122 H53        9.9597    1.2714    1.9766 H         4 RES4    0.0000
    123 H54        8.6856    1.1149    2.9365 H         4 RES4    0.0000
    124 C58       10.4198    1.6132    3.9815 C.3       4 RES4    0.0000
    125 H55       10.5180    0.6775    4.2894 H         4 RES4    0.0000
    126 H56       11.3162    1.9511    3.7316 H         4 RES4    0.0000
    127 C59        9.8568    2.4522    5.0913 C.3       4 RES4    0.0000
    128 H57        8.9860    2.0772    5.3761 H         4 RES4    0.0000
    129 H58       10.4705    2.4231    5.8676 H         4 RES4    0.0000
    130 C60        7.8853    4.9588    3.6506 C.2       4 RES4    0.0000
    131 C61        6.9104    5.2085    2.5493 C.ar      4 RES4    0.0000
    132 C62        6.7756    6.5004    2.0372 C.ar      4 RES4    0.0000
    133 H59        7.2709    7.2125    2.4248 H         4 RES4    0.0000
    134 C63        5.9251    6.7586    0.9665 C.ar      4 RES4    0.0000
    135 H60        5.8589    7.6380    0.6134 H         4 RES4    0.0000
    136 C64        5.1754    5.7326    0.4160 C.ar      4 RES4    0.0000
    137 H61        4.6079    5.9010   -0.3269 H         4 RES4    0.0000
    138 C65        5.2580    4.4550    0.9569 C.ar      4 RES4    0.0000
    139 H62        4.7252    3.7556    0.5973 H         4 RES4    0.0000
    140 C66        6.1126    4.1932    2.0183 C.ar      4 RES4    0.0000
    141 H63        6.1550    3.3181    2.3857 H         4 RES4    0.0000
    142 C67        7.7930    5.8661    4.8264 C.ar      4 RES4    0.0000
    143 C68        8.8990    6.5779    5.2902 C.ar      4 RES4    0.0000
    144 H64        9.7430    6.4636    4.8695 H         4 RES4    0.0000
    145 C69        8.7759    7.4556    6.3656 C.ar      4 RES4    0.0000
    146 H65        9.5323    7.9473    6.6630 H         4 RES4    0.0000
    147 C70        7.5587    7.6146    7.0019 C.ar      4 RES4    0.0000
    148 H66        7.4803    8.2019    7.7445 H         4 RES4    0.0000
    149 C71        6.4584    6.9143    6.5510 C.ar      4 RES4    0.0000
    150 H67        5.6207    7.0178    6.9870 H         4 RES4    0.0000
    151 C72        6.5701    6.0589    5.4630 C.ar      4 RES4    0.0000
    152 H68        5.8009    5.5985    5.1485 H         4 RES4    0.0000
@<TRIPOS>BOND
     1    1    5 1
     2    2    3 1
     3    4    2 1
     4    5    6 1
     5    6    4 2
     6    7    6 1
     7    8    7 1
     8    9    7 1
     9   10    7 1
    10   11   10 1
    11   12   10 1
    12   13    1 1
    13   14   13 1
    14   15   13 1
    15   16    5 2
    16   17   16 1
    17   18   17 ar
    18   19   18 1
    19   20   18 ar
    20   21   20 1
    21   22   20 ar
    22   23   22 1
    23   24   22 ar
    24   25   24 1
    25   26   17 ar
    26   27   26 1
    27   28   16 1
    28   29   28 ar
    29   30   29 1
    30   31   29 ar
    31   32   31 1
    32   33   31 ar
    33   34   33 1
    34   35   33 ar
    35   36   35 1
    36   37   28 ar
    37   38   37 1
    38   39   43 1
    39   40   41 1
    40   42   40 1
    41   43   44 1
    42   44   42 2
    43   45   44 1
    44   46   45 1
    45   47   45 1
    46   48   45 1
    47   49   48 1
    48   50   48 1
    49   51   39 1
    50   52   51 1
    51   53   51 1
    52   54   43 2
    53   55   54 1
    54   56   55 ar
    55   57   56 1
    56   58   56 ar
    57   59   58 1
    58   60   58 ar
    59   61   60 1
    60   62   60 ar
    61   63   62 1
    62   64   55 ar
    63   65   64 1
    64   66   54 1
    65   67   66 ar
    66   68   67 1
    67   69   67 ar
    68   70   69 1
    69   71   69 ar
    70   72   71 1
    71   73   71 ar
    72   74   73 1
    73   75   66 ar
    74   76   75 1
    75   77   81 1
    76   78   79 1
    77   80   78 1
    78   81   82 1
    79   82   80 2
    80   83   82 1
    81   84   83 1
    82   85   83 1
    83   86   83 1
    84   87   86 1
    85   88   86 1
    86   89   77 1
    87   90   89 1
    88   91   89 1
    89   92   81 2
    90   93   92 1
    91   94   93 ar
    92   95   94 1
    93   96   94 ar
    94   97   96 1
    95   98   96 ar
    96   99   98 1
    97  100   98 ar
    98  101  100 1
    99  102   93 ar
   100  103  102 1
   101  104   92 1
   102  105  104 ar
   103  106  105 1
   104  107  105 ar
   105  108  107 1
   106  109  107 ar
   107  110  109 1
   108  111  109 ar
   109  112  111 1
   110  113  104 ar
   111  114  113 1
   112  115  119 1
   113  116  117 1
   114  118  116 1
   115  119  120 1
   116  120  118 2
   117  121  120 1
   118  122  121 1
   119  123  121 1
   120  124  121 1
   121  125  124 1
   122  126  124 1
   123  127  115 1
   124  128  127 1
   125  129  127 1
   126  130  119 2
   127  131  130 1
   128  132  131 ar
   129  133  132 1
   130  134  132 ar
   131  135  134 1
   132  136  134 ar
   133  137  136 1
   134  138  136 ar
   135  139  138 1
   136  140  131 ar
   137  141  140 1
   138  142  130 1
   139  143  142 ar
   140  144  143 1
   141  145  143 ar
   142  146  145 1
   143  147  145 ar
   144  148  147 1
   145  149  147 ar
   146  150  149 1
   147  151  142 ar
   148  152  151 1
   149   10   13 1
   150   24   26 ar
   151   35   37 ar
   152   48   51 1
   153   62   64 ar
   154   73   75 ar
   155   86   89 1
   156  100  102 ar
   157  111  113 ar
   158  124  127 1
   159  138  140 ar
   160  149  151 ar
@<TRIPOS>SUBSTRUCTURE
     1 RES1 1
     2 RES2 39
     3 RES3 77
     4 RES4 115

@<TRIPOS>CRYSIN
  10.7260   17.1030   17.9943  69.7620  72.8640  75.9430   2 1

