# MOL2 file generated by ConQuest
# Please check atom types

@<TRIPOS>MOLECULE
DERGAJ
    54    56     1
SMALL
NO_CHARGES
****
Generated from CSD

@<TRIPOS>ATOM
      1 C1         5.6811    4.0388    9.9682 C.3       1 RES1    0.0000
      2 C2         4.8771    3.5032    8.7770 C.3       1 RES1    0.0000
      3 C3         4.6685    1.9726    8.8578 C.3       1 RES1    0.0000
      4 C4         3.8805    1.6687   10.1374 C.3       1 RES1    0.0000
      5 C5         4.6263    2.1557   11.3626 C.3       1 RES1    0.0000
      6 C6         5.0177    3.6281   11.3087 C.3       1 RES1    0.0000
      7 C7         3.8713    4.6465   11.4700 C.3       1 RES1    0.0000
      8 C8         4.4216    5.9397   10.8616 C.3       1 RES1    0.0000
      9 C9         5.6673    5.5768   10.0646 C.3       1 RES1    0.0000
     10 C10        5.5075    3.8479    7.4409 C.2       1 RES1    0.0000
     11 O1         6.6191    4.2746    7.2584 O.2       1 RES1    0.0000
     12 O2         4.6432    3.5947    6.4480 O.3       1 RES1    0.0000
     13 C11        5.1211    3.8002    5.0923 C.3       1 RES1    0.0000
     14 C12        3.9434    3.6756    4.1850 C.3       1 RES1    0.0000
     15 C13        5.9813    1.1826    8.7681 C.3       1 RES1    0.0000
     16 O3         3.7420    1.9945   12.5345 O.3       1 RES1    0.0000
     17 C14        3.8683    0.8771   13.2406 C.2       1 RES1    0.0000
     18 O4         4.6262   -0.0293   13.0045 O.2       1 RES1    0.0000
     19 C15        2.9571    0.8686   14.4328 C.ar      1 RES1    0.0000
     20 C16        3.2360   -0.0567   15.4386 C.ar      1 RES1    0.0000
     21 C17        2.4575   -0.0373   16.5852 C.ar      1 RES1    0.0000
     22 C18        1.3823    0.8170   16.7512 C.ar      1 RES1    0.0000
     23 C19        1.1091    1.6812   15.7051 C.ar      1 RES1    0.0000
     24 C20        1.8857    1.7521   14.5617 C.ar      1 RES1    0.0000
     25 N1         2.7629   -0.9836   17.6731 N.pl3     1 RES1    0.0000
     26 O5         2.2640   -0.7609   18.7705 O.2       1 RES1    0.0000
     27 O6         3.5086   -1.9221   17.4326 O.2       1 RES1    0.0000
     28 N2        -0.0850    2.5325   15.8186 N.pl3     1 RES1    0.0000
     29 O7        -0.2431    3.4178   14.9823 O.2       1 RES1    0.0000
     30 O8        -0.8631    2.2994   16.7347 O.2       1 RES1    0.0000
     31 H1         6.6001    3.6716    9.8240 H         1 RES1    0.0000
     32 H2         3.9887    3.9593    8.8353 H         1 RES1    0.0000
     33 H3         4.1447    1.6683    8.0620 H         1 RES1    0.0000
     34 H4         3.7420    0.6810   10.2106 H         1 RES1    0.0000
     35 H5         2.9930    2.1273   10.0902 H         1 RES1    0.0000
     36 H6         5.4665    1.6162   11.4149 H         1 RES1    0.0000
     37 H7         5.6377    3.6716   12.0931 H         1 RES1    0.0000
     38 H8         3.6474    4.7767   12.4353 H         1 RES1    0.0000
     39 H9         3.0564    4.3426   10.9776 H         1 RES1    0.0000
     40 H10        4.6561    6.5852   11.5892 H         1 RES1    0.0000
     41 H11        3.7380    6.3508   10.2582 H         1 RES1    0.0000
     42 H12        6.4874    5.9018   10.5339 H         1 RES1    0.0000
     43 H13        5.6246    5.9812    9.1522 H         1 RES1    0.0000
     44 H14        5.5249    4.7110    5.0071 H         1 RES1    0.0000
     45 H15        5.8058    3.1084    4.8613 H         1 RES1    0.0000
     46 H16        4.2353    3.8117    3.2388 H         1 RES1    0.0000
     47 H17        3.2618    4.3674    4.4271 H         1 RES1    0.0000
     48 H18        3.5427    2.7648    4.2814 H         1 RES1    0.0000
     49 H19        5.7857    0.2034    8.8258 H         1 RES1    0.0000
     50 H20        6.5820    1.4475    9.5230 H         1 RES1    0.0000
     51 H21        6.4320    1.3818    7.8972 H         1 RES1    0.0000
     52 H22        3.9796   -0.7182   15.3350 H         1 RES1    0.0000
     53 H23        0.8306    0.8112   17.5850 H         1 RES1    0.0000
     54 H24        1.6833    2.4200   13.8455 H         1 RES1    0.0000
@<TRIPOS>BOND
     1    1    2 1
     2    2    3 1
     3    3    4 1
     4    4    5 1
     5    5    6 1
     6    6    1 1
     7    7    6 1
     8    8    7 1
     9    9    1 1
    10   10    2 1
    11   11   10 2
    12   12   10 1
    13   13   12 1
    14   14   13 1
    15   15    3 1
    16   16    5 1
    17   17   16 1
    18   18   17 2
    19   19   17 1
    20   20   19 ar
    21   21   20 ar
    22   22   21 ar
    23   23   22 ar
    24   24   19 ar
    25   25   21 1
    26   26   25 2
    27   27   25 2
    28   28   23 1
    29   29   28 2
    30   30   28 2
    31   31    1 1
    32   32    2 1
    33   33    3 1
    34   34    4 1
    35   35    4 1
    36   36    5 1
    37   37    6 1
    38   38    7 1
    39   39    7 1
    40   40    8 1
    41   41    8 1
    42   42    9 1
    43   43    9 1
    44   44   13 1
    45   45   13 1
    46   46   14 1
    47   47   14 1
    48   48   14 1
    49   49   15 1
    50   50   15 1
    51   51   15 1
    52   52   20 1
    53   53   22 1
    54   54   24 1
    55    8    9 1
    56   23   24 ar
@<TRIPOS>SUBSTRUCTURE
     1 RES1 1

@<TRIPOS>CRYSIN
  10.0673   12.4039   31.6904  90.0000  90.0000  90.0000  61 1

