# MOL2 file generated by ConQuest
# Please check atom types

@<TRIPOS>MOLECULE
DERHEQ
    60    61     1
SMALL
NO_CHARGES
****
Generated from CSD

@<TRIPOS>ATOM
      1 O1         8.4309    8.1317    1.1911 O.2       1 RES1    0.0000
      2 O2         7.7809    3.5356   -0.2421 O.2       1 RES1    0.0000
      3 N1        10.9469    6.6332    2.2999 N.am      1 RES1    0.0000
      4 O3        11.4687    5.3880    4.1384 O.2       1 RES1    0.0000
      5 N2         7.6283    5.6406   -1.0583 N.am      1 RES1    0.0000
      6 N3         7.6147    6.3500    2.3183 N.am      1 RES1    0.0000
      7 C1         9.7838    7.2280    3.0012 C.3       1 RES1    0.0000
      8 H1         9.5542    6.6099    3.7524 H         1 RES1    0.0000
      9 N4        16.1504    1.8968    5.5973 N.pl3     1 RES1    0.0000
     10 C2         6.3595    6.2932    1.5622 C.3       1 RES1    0.0000
     11 H2         6.3342    7.0465    0.9191 H         1 RES1    0.0000
     12 H3         5.6001    6.4029    2.1877 H         1 RES1    0.0000
     13 C3        10.0794    8.6179    3.6400 C.3       1 RES1    0.0000
     14 C4         6.1935    4.9795    0.8001 C.3       1 RES1    0.0000
     15 H4         6.1589    4.2405    1.4569 H         1 RES1    0.0000
     16 H5         5.3224    4.9990    0.3298 H         1 RES1    0.0000
     17 C5        11.6725    5.6909    2.9654 C.2       1 RES1    0.0000
     18 C6         7.2785    4.6662   -0.2167 C.2       1 RES1    0.0000
     19 C7         8.5493    7.2815    2.0753 C.2       1 RES1    0.0000
     20 O4        17.1499    2.4099    6.0713 O.2       1 RES1    0.0000
     21 O5        15.7817    0.7590    5.8696 O.2       1 RES1    0.0000
     22 C8        10.4101    5.8420   -0.0081 C.3       1 RES1    0.0000
     23 H6         9.6173    5.5069    0.4825 H         1 RES1    0.0000
     24 H7        11.0235    5.0767   -0.1443 H         1 RES1    0.0000
     25 C9        13.6913    4.1894    3.0422 C.ar      1 RES1    0.0000
     26 C10       10.5840    9.6641    2.6450 C.3       1 RES1    0.0000
     27 H8         9.9416    9.7523    1.9104 H         1 RES1    0.0000
     28 H9        11.4524    9.3835    2.2871 H         1 RES1    0.0000
     29 H10       10.6824   10.5269    3.0994 H         1 RES1    0.0000
     30 C11       15.3237    2.6849    4.6716 C.ar      1 RES1    0.0000
     31 C12       13.6413    2.8011    3.0048 C.ar      1 RES1    0.0000
     32 H11       13.0457    2.3709    2.4023 H         1 RES1    0.0000
     33 C13        8.7963    5.5599   -1.9413 C.3       1 RES1    0.0000
     34 H12        8.5579    5.9096   -2.8370 H         1 RES1    0.0000
     35 H13        9.0681    4.6141   -2.0444 H         1 RES1    0.0000
     36 C14       11.1133    6.8890    0.8525 C.3       1 RES1    0.0000
     37 H14       12.0791    6.8945    0.6334 H         1 RES1    0.0000
     38 H15       10.7491    7.7840    0.6371 H         1 RES1    0.0000
     39 C15        9.9590    6.3619   -1.3766 C.3       1 RES1    0.0000
     40 H16        9.6889    7.3102   -1.2911 H         1 RES1    0.0000
     41 H17       10.7201    6.3188   -2.0079 H         1 RES1    0.0000
     42 C16        8.7824    9.1138    4.2949 C.3       1 RES1    0.0000
     43 H18        8.9644    9.9350    4.7981 H         1 RES1    0.0000
     44 H19        8.4403    8.4261    4.9039 H         1 RES1    0.0000
     45 H20        8.1145    9.2962    3.6016 H         1 RES1    0.0000
     46 C17       15.4255    4.0557    4.7081 C.ar      1 RES1    0.0000
     47 H21       16.0527    4.4815    5.2806 H         1 RES1    0.0000
     48 C18       11.1468    8.4478    4.7353 C.3       1 RES1    0.0000
     49 H22       11.9854    8.1431    4.3296 H         1 RES1    0.0000
     50 H23       10.8402    7.7856    5.3902 H         1 RES1    0.0000
     51 H24       11.2945    9.3059    5.1831 H         1 RES1    0.0000
     52 C19       14.5955    4.7987    3.8948 C.ar      1 RES1    0.0000
     53 H25       14.6450    5.7462    3.9201 H         1 RES1    0.0000
     54 C20       14.4467    2.0344    3.8302 C.ar      1 RES1    0.0000
     55 H26       14.3955    1.0852    3.8171 H         1 RES1    0.0000
     56 C21       12.7990    5.0265    2.1699 C.3       1 RES1    0.0000
     57 H27       12.4054    4.4556    1.4644 H         1 RES1    0.0000
     58 H28       13.3409    5.7268    1.7268 H         1 RES1    0.0000
     59 H29        7.2590    6.4320   -0.9557 H         1 RES1    0.0000
     60 H30        7.7033    5.7786    2.9795 H         1 RES1    0.0000
@<TRIPOS>BOND
     1    1   19 2
     2    2   18 2
     3    3    7 1
     4    4   17 2
     5    5   18 1
     6    6   10 1
     7    7    8 1
     8    9   20 2
     9   10   11 1
    10   12   10 1
    11   13    7 1
    12   14   10 1
    13   15   14 1
    14   16   14 1
    15   17    3 1
    16   18   14 1
    17   19    6 1
    18   21    9 2
    19   22   23 1
    20   24   22 1
    21   25   31 ar
    22   26   13 1
    23   27   26 1
    24   28   26 1
    25   29   26 1
    26   30    9 1
    27   31   32 1
    28   33    5 1
    29   34   33 1
    30   35   33 1
    31   36    3 1
    32   37   36 1
    33   38   36 1
    34   39   22 1
    35   40   39 1
    36   41   39 1
    37   42   13 1
    38   43   42 1
    39   44   42 1
    40   45   42 1
    41   46   30 ar
    42   47   46 1
    43   48   13 1
    44   49   48 1
    45   50   48 1
    46   51   48 1
    47   52   25 ar
    48   53   52 1
    49   54   30 ar
    50   55   54 1
    51   56   17 1
    52   57   56 1
    53   58   56 1
    54   59    5 1
    55   60    6 1
    56    7   19 1
    57   22   36 1
    58   25   56 1
    59   31   54 ar
    60   33   39 1
    61   46   52 ar
@<TRIPOS>SUBSTRUCTURE
     1 RES1 1

@<TRIPOS>CRYSIN
  14.3770   16.1729    9.3750  90.0000  91.9870  90.0000  14 1

