# MOL2 file generated by ConQuest
# Please check atom types

@<TRIPOS>MOLECULE
DESBEJ
    42    42     2
SMALL
NO_CHARGES
****
Generated from CSD

@<TRIPOS>ATOM
      1 C1         5.3693   11.3413   -0.4969 C.ar      1 RES1    0.0000
      2 C2         6.0684   12.5317   -0.7483 C.ar      1 RES1    0.0000
      3 C3         7.3737   12.4736   -1.2284 C.ar      1 RES1    0.0000
      4 C4         7.9742   11.2640   -1.4697 C.ar      1 RES1    0.0000
      5 C5         7.2974   10.0881   -1.2596 C.ar      1 RES1    0.0000
      6 C6         6.0002   10.1374   -0.7753 C.ar      1 RES1    0.0000
      7 C7         3.9940   11.2466    0.0827 C.2       1 RES1    0.0000
      8 N1         3.4020   12.3532    0.4741 N.am      1 RES1    0.0000
      9 O1         3.4639   10.1381    0.2691 O.2       1 RES1    0.0000
     10 O2         2.1190   12.3071    1.0099 O.3       1 RES1    0.0000
     11 O3         5.4089   13.6970   -0.5137 O.3       1 RES1    0.0000
     12 C8         6.0781   14.9370   -0.7568 C.3       1 RES1    0.0000
     13 H1         7.8001   13.2157   -1.3499 H         1 RES1    0.0000
     14 H2         8.9060   11.2556   -1.8054 H         1 RES1    0.0000
     15 H3         7.7192    9.2822   -1.4511 H         1 RES1    0.0000
     16 H4         5.4831    9.3006   -0.6074 H         1 RES1    0.0000
     17 H5         3.6281   13.1721    0.2278 H         1 RES1    0.0000
     18 H6         1.9983   11.5189    1.5355 H         1 RES1    0.0000
     19 H7         6.3241   14.9762   -1.6620 H         1 RES1    0.0000
     20 H8         6.8055   15.0131   -0.1181 H         1 RES1    0.0000
     21 H9         5.4173   15.5798   -0.5737 H         1 RES1    0.0000
     22 C9         9.2470   16.6883    0.3957 C.ar      2 RES2    0.0000
     23 C10        9.8233   15.4113    0.5332 C.ar      2 RES2    0.0000
     24 C11       10.2031   14.6945   -0.5998 C.ar      2 RES2    0.0000
     25 C12        9.9881   15.2295   -1.8603 C.ar      2 RES2    0.0000
     26 C13        9.3848   16.4567   -2.0164 C.ar      2 RES2    0.0000
     27 C14        9.0370   17.1834   -0.8909 C.ar      2 RES2    0.0000
     28 C15        8.8970   17.6068    1.5237 C.2       2 RES2    0.0000
     29 N2         9.1151   17.1601    2.7605 N.am      2 RES2    0.0000
     30 O4         8.4015   18.7367    1.3154 O.2       2 RES2    0.0000
     31 O5         9.0148   18.0459    3.8450 O.3       2 RES2    0.0000
     32 O6         9.9649   14.9153    1.7934 O.3       2 RES2    0.0000
     33 C16       10.6096   13.6524    1.9843 C.3       2 RES2    0.0000
     34 H10       10.6322   13.8042   -0.4387 H         2 RES2    0.0000
     35 H11       10.2523   14.6761   -2.6154 H         2 RES2    0.0000
     36 H12        9.2105   16.8340   -2.9275 H         2 RES2    0.0000
     37 H13        8.6003   18.1334   -1.0124 H         2 RES2    0.0000
     38 H14        9.6270   16.2622    2.9360 H         2 RES2    0.0000
     39 H15        8.0705   18.2927    3.8893 H         2 RES2    0.0000
     40 H16       11.5241   13.6399    1.6283 H         2 RES2    0.0000
     41 H17       10.5973   13.5007    2.8938 H         2 RES2    0.0000
     42 H18       10.1223   12.9457    1.4764 H         2 RES2    0.0000
@<TRIPOS>BOND
     1    1    2 ar
     2    2    3 ar
     3    3    4 ar
     4    4    5 ar
     5    5    6 ar
     6    6    1 ar
     7    7    1 1
     8    8    7 1
     9    9    7 2
    10   10    8 1
    11   11    2 1
    12   12   11 1
    13   13    3 1
    14   14    4 1
    15   15    5 1
    16   16    6 1
    17   17    8 1
    18   18   10 1
    19   19   12 1
    20   20   12 1
    21   21   12 1
    22   22   23 ar
    23   23   24 ar
    24   24   25 ar
    25   25   26 ar
    26   26   27 ar
    27   27   22 ar
    28   28   22 1
    29   29   28 1
    30   30   28 2
    31   31   29 1
    32   32   23 1
    33   33   32 1
    34   34   24 1
    35   35   25 1
    36   36   26 1
    37   37   27 1
    38   38   29 1
    39   39   31 1
    40   40   33 1
    41   41   33 1
    42   42   33 1
@<TRIPOS>SUBSTRUCTURE
     1 RES1 1
     2 RES2 22

@<TRIPOS>CRYSIN
  11.1348   16.7669    8.8110  90.0000 106.7610  90.0000  14 1

