# MOL2 file generated by ConQuest
# Please check atom types

@<TRIPOS>MOLECULE
DESCOW
    57    59     1
SMALL
NO_CHARGES
****
Generated from CSD

@<TRIPOS>ATOM
      1 O1         4.9023   -0.4880    8.8359 O.3       1 RES1    0.0000
      2 O2         1.9335    1.0282   13.7345 O.2       1 RES1    0.0000
      3 O3         3.0561    0.6933    8.4086 O.2       1 RES1    0.0000
      4 O4         0.3912    0.0151   12.6107 O.2       1 RES1    0.0000
      5 N1         3.9942    2.7140    9.9167 N.3       1 RES1    0.0000
      6 N2         1.4263    0.6536   12.6852 N.pl3     1 RES1    0.0000
      7 C1         4.4006    1.3619   10.2867 C.3       1 RES1    0.0000
      8 C2         6.7968    2.1879    9.7593 C.ar      1 RES1    0.0000
      9 C3         5.9103    1.3354   10.6353 C.3       1 RES1    0.0000
     10 C4         3.9193   -0.6696   11.8582 C.ar      1 RES1    0.0000
     11 C5         3.9305    5.1118   10.2974 C.ar      1 RES1    0.0000
     12 C6         3.2931   -1.7135   11.1786 C.ar      1 RES1    0.0000
     13 H1         2.6798   -1.5192   10.5069 H         1 RES1    0.0000
     14 C7         4.8240   -0.9930   12.8673 C.ar      1 RES1    0.0000
     15 H2         5.2499   -0.3141   13.3388 H         1 RES1    0.0000
     16 C8         4.0468    0.5055    9.0666 C.2       1 RES1    0.0000
     17 C9         5.0944   -2.3164   13.1749 C.ar      1 RES1    0.0000
     18 H3         5.7039   -2.5184   13.8473 H         1 RES1    0.0000
     19 C10        7.4477    3.2922   10.2926 C.ar      1 RES1    0.0000
     20 H4         7.3123    3.5087   11.1869 H         1 RES1    0.0000
     21 C11        4.4653    6.6713    8.5436 C.ar      1 RES1    0.0000
     22 H5         4.9068    6.8684    7.7493 H         1 RES1    0.0000
     23 C12        3.1530    6.0922   10.8982 C.ar      1 RES1    0.0000
     24 H6         2.7119    5.9011   11.6943 H         1 RES1    0.0000
     25 C13        4.5703   -1.3641    7.7307 C.3       1 RES1    0.0000
     26 H7         3.6796   -1.7025    7.8469 H         1 RES1    0.0000
     27 H8         5.1903   -2.0968    7.7058 H         1 RES1    0.0000
     28 H9         4.6215   -0.8737    6.9070 H         1 RES1    0.0000
     29 C14        4.0590    3.7481   10.9320 C.3       1 RES1    0.0000
     30 C15        2.1182    1.0168   11.3992 C.3       1 RES1    0.0000
     31 C16        3.0236    7.3466   10.3350 C.ar      1 RES1    0.0000
     32 H10        2.4956    7.9915   10.7477 H         1 RES1    0.0000
     33 C17        4.4676   -3.3347   12.4932 C.ar      1 RES1    0.0000
     34 H11        4.6472   -4.2216   12.7078 H         1 RES1    0.0000
     35 C18        3.6191    0.7834   11.5346 C.3       1 RES1    0.0000
     36 C19        4.5924    5.4166    9.1105 C.ar      1 RES1    0.0000
     37 H12        5.1217    4.7734    8.6972 H         1 RES1    0.0000
     38 C20        7.0256    1.8921    8.4177 C.ar      1 RES1    0.0000
     39 H13        6.6042    1.1592    8.0303 H         1 RES1    0.0000
     40 C21        8.2929    4.0815    9.5281 C.ar      1 RES1    0.0000
     41 H14        8.7103    4.8208    9.9080 H         1 RES1    0.0000
     42 C22        3.6790    7.6387    9.1586 C.ar      1 RES1    0.0000
     43 H15        3.5957    8.4824    8.7765 H         1 RES1    0.0000
     44 C23        8.5136    3.7697    8.2089 C.ar      1 RES1    0.0000
     45 H16        9.0884    4.2877    7.6926 H         1 RES1    0.0000
     46 C24        3.5678   -3.0313   11.4868 C.ar      1 RES1    0.0000
     47 H17        3.1482   -3.7154   11.0171 H         1 RES1    0.0000
     48 C25        7.8707    2.6739    7.6564 C.ar      1 RES1    0.0000
     49 H18        8.0094    2.4627    6.7614 H         1 RES1    0.0000
     50 H19        3.3723    3.6781   11.6397 H         1 RES1    0.0000
     51 H20        3.9228    1.3607   12.2901 H         1 RES1    0.0000
     52 H21        1.6628    0.4790   10.6913 H         1 RES1    0.0000
     53 H22        4.9642    3.7128   11.3855 H         1 RES1    0.0000
     54 H23        1.9105    1.9735   11.3131 H         1 RES1    0.0000
     55 H24        3.1828    2.6951    9.5339 H         1 RES1    0.0000
     56 H25        6.1926    0.3921   10.6326 H         1 RES1    0.0000
     57 H26        6.0139    1.6731   11.5536 H         1 RES1    0.0000
@<TRIPOS>BOND
     1    1   16 1
     2    2    6 2
     3    3   16 2
     4    4    6 2
     5    5    7 1
     6    6   30 1
     7    7    9 1
     8    8    9 1
     9    9   56 1
    10   10   12 ar
    11   11   23 ar
    12   12   13 1
    13   14   10 ar
    14   15   14 1
    15   16    7 1
    16   17   14 ar
    17   18   17 1
    18   19    8 ar
    19   20   19 1
    20   21   22 1
    21   23   24 1
    22   25    1 1
    23   26   25 1
    24   27   25 1
    25   28   25 1
    26   29    5 1
    27   30   35 1
    28   31   23 ar
    29   32   31 1
    30   33   17 ar
    31   34   33 1
    32   35    7 1
    33   36   11 ar
    34   37   36 1
    35   38    8 ar
    36   39   38 1
    37   40   19 ar
    38   41   40 1
    39   42   21 ar
    40   43   42 1
    41   44   40 ar
    42   45   44 1
    43   46   12 ar
    44   47   46 1
    45   48   38 ar
    46   49   48 1
    47   50   29 1
    48   51   35 1
    49   52   30 1
    50   53   29 1
    51   54   30 1
    52   55    5 1
    53   57    9 1
    54   10   35 1
    55   11   29 1
    56   21   36 ar
    57   31   42 ar
    58   33   46 ar
    59   44   48 ar
@<TRIPOS>SUBSTRUCTURE
     1 RES1 1

@<TRIPOS>CRYSIN
   7.8100   10.6380   13.8790  79.9890  85.6530  70.9740   2 1

