# MOL2 file generated by ConQuest
# Please check atom types

@<TRIPOS>MOLECULE
DESJOA
    47    50     1
SMALL
NO_CHARGES
****
Generated from CSD

@<TRIPOS>ATOM
      1 C1        -3.7018   11.2954    7.1095 C.ar      1 RES1    0.0000
      2 C2        -4.5898   12.2915    6.7145 C.ar      1 RES1    0.0000
      3 C3        -4.1398   13.4475    6.1228 C.ar      1 RES1    0.0000
      4 C4        -2.7917   13.6522    5.9356 C.ar      1 RES1    0.0000
      5 C5        -1.8970   12.6905    6.3526 C.ar      1 RES1    0.0000
      6 C6        -2.3406   11.5015    6.9207 C.ar      1 RES1    0.0000
      7 C7        -1.3329   10.4499    7.3471 C.3       1 RES1    0.0000
      8 C8        -1.8417    9.6176    8.5116 C.ar      1 RES1    0.0000
      9 C9        -0.9311    9.0878    9.4274 C.ar      1 RES1    0.0000
     10 C10       -1.3502    8.3150   10.4833 C.ar      1 RES1    0.0000
     11 C11       -2.7013    8.0931   10.6721 C.ar      1 RES1    0.0000
     12 C12       -3.6103    8.6519    9.7988 C.ar      1 RES1    0.0000
     13 C13       -3.1978    9.4076    8.7114 C.ar      1 RES1    0.0000
     14 C14       -4.2021    9.9888    7.7295 C.3       1 RES1    0.0000
     15 C15       -4.6852    8.9782    6.6893 C.ar      1 RES1    0.0000
     16 C16       -4.6557    7.6095    6.9663 C.ar      1 RES1    0.0000
     17 C17       -5.1092    6.6901    6.0442 C.ar      1 RES1    0.0000
     18 C18       -5.6054    7.1075    4.8341 C.ar      1 RES1    0.0000
     19 C19       -5.6324    8.4603    4.5351 C.ar      1 RES1    0.0000
     20 C20       -5.1832    9.3785    5.4604 C.ar      1 RES1    0.0000
     21 C21       -0.7747    9.6216    6.1496 C.3       1 RES1    0.0000
     22 N1        -1.7350    9.3402    4.9993 N.pl3     1 RES1    0.0000
     23 O1        -2.1123   10.3363    4.4186 O.2       1 RES1    0.0000
     24 O2        -2.0325    8.2067    4.7318 O.2       1 RES1    0.0000
     25 N2         0.3928   10.3495    5.4383 N.pl3     1 RES1    0.0000
     26 O3         0.9932   11.2016    6.0536 O.2       1 RES1    0.0000
     27 O4         0.6392    9.9611    4.3148 O.2       1 RES1    0.0000
     28 N3        -0.1786    8.3150    6.6154 N.pl3     1 RES1    0.0000
     29 O5         1.0275    8.2278    6.6217 O.2       1 RES1    0.0000
     30 O6        -0.9769    7.4721    6.9930 O.2       1 RES1    0.0000
     31 N4        -5.4125   10.4156    8.6359 N.pl3     1 RES1    0.0000
     32 O7        -5.1728   11.2743    9.4903 O.2       1 RES1    0.0000
     33 O8        -6.4877    9.8898    8.4832 O.2       1 RES1    0.0000
     34 H1        -5.5219   12.1409    6.8451 H         1 RES1    0.0000
     35 H2        -4.7344   14.0961    5.8538 H         1 RES1    0.0000
     36 H3        -2.4748   14.4528    5.5390 H         1 RES1    0.0000
     37 H4        -0.9999   12.8675    6.2472 H         1 RES1    0.0000
     38 H5        -0.5244   10.9123    7.6319 H         1 RES1    0.0000
     39 H6        -0.0649    9.2741    9.2842 H         1 RES1    0.0000
     40 H7        -0.7002    8.0059   11.0781 H         1 RES1    0.0000
     41 H8        -3.0175    7.5435   11.4085 H         1 RES1    0.0000
     42 H9        -4.5447    8.4947    9.9923 H         1 RES1    0.0000
     43 H10       -4.3092    7.3321    7.7735 H         1 RES1    0.0000
     44 H11       -5.0792    5.7864    6.2629 H         1 RES1    0.0000
     45 H12       -5.9447    6.4602    4.2172 H         1 RES1    0.0000
     46 H13       -5.9520    8.7325    3.6979 H         1 RES1    0.0000
     47 H14       -5.1820   10.3178    5.2086 H         1 RES1    0.0000
@<TRIPOS>BOND
     1    1    2 ar
     2    2    3 ar
     3    3    4 ar
     4    4    5 ar
     5    5    6 ar
     6    6    1 ar
     7    7    6 1
     8    8    7 1
     9    9    8 ar
    10   10    9 ar
    11   11   10 ar
    12   12   11 ar
    13   13    8 ar
    14   14    1 1
    15   15   14 1
    16   16   15 ar
    17   17   16 ar
    18   18   17 ar
    19   19   18 ar
    20   20   15 ar
    21   21    7 1
    22   22   21 1
    23   23   22 2
    24   24   22 2
    25   25   21 1
    26   26   25 2
    27   27   25 2
    28   28   21 1
    29   29   28 2
    30   30   28 2
    31   31   14 1
    32   32   31 2
    33   33   31 2
    34   34    2 1
    35   35    3 1
    36   36    4 1
    37   37    5 1
    38   38    7 1
    39   39    9 1
    40   40   10 1
    41   41   11 1
    42   42   12 1
    43   43   16 1
    44   44   17 1
    45   45   18 1
    46   46   19 1
    47   47   20 1
    48   12   13 ar
    49   13   14 1
    50   19   20 ar
@<TRIPOS>SUBSTRUCTURE
     1 RES1 1

@<TRIPOS>CRYSIN
   9.1190   13.2110   16.0370  90.0000 101.1200  90.0000 231 1

