# MOL2 file generated by ConQuest
# Please check atom types

@<TRIPOS>MOLECULE
DESPAT
    69    70     1
SMALL
NO_CHARGES
****
Generated from CSD

@<TRIPOS>ATOM
      1 O1         9.8412   -0.1357    3.3671 O.2       1 RES1    0.0000
      2 O2         7.3195   -0.4903    5.3869 O.2       1 RES1    0.0000
      3 O3        10.2381    0.3084    8.7515 O.3       1 RES1    0.0000
      4 N1         9.9293   -0.3716    7.5735 N.2       1 RES1    0.0000
      5 C1         8.8175   -2.2296    3.9240 C.3       1 RES1    0.0000
      6 C2         9.0040   -0.9776    3.0977 C.2       1 RES1    0.0000
      7 C3         8.1204   -0.8033    1.8837 C.3       1 RES1    0.0000
      8 C4         8.7185    0.0725    0.7776 C.3       1 RES1    0.0000
      9 C5        10.0142   -0.4564    0.1848 C.3       1 RES1    0.0000
     10 C6         9.8982   -1.7701   -0.5620 C.3       1 RES1    0.0000
     11 C7        11.2389   -2.3745   -0.9573 C.3       1 RES1    0.0000
     12 C8        12.0579   -2.8972    0.2053 C.3       1 RES1    0.0000
     13 C9        11.4893   -4.1770    0.8392 C.3       1 RES1    0.0000
     14 C10       11.7651   -4.3358    2.3226 C.3       1 RES1    0.0000
     15 C11       11.0927   -3.2904    3.2260 C.3       1 RES1    0.0000
     16 C12        9.5751   -3.3953    3.2491 C.3       1 RES1    0.0000
     17 C13        9.1819   -1.9952    5.3920 C.3       1 RES1    0.0000
     18 C14        8.3324   -0.8789    5.9515 C.2       1 RES1    0.0000
     19 C15        8.6931   -0.2251    7.2527 C.2       1 RES1    0.0000
     20 C16        7.6347    0.5304    8.0046 C.3       1 RES1    0.0000
     21 C17        6.6397   -0.4086    8.6642 C.3       1 RES1    0.0000
     22 C18        7.2507   -1.3044    9.7267 C.3       1 RES1    0.0000
     23 C19        6.3492   -2.4485   10.1758 C.3       1 RES1    0.0000
     24 C20        6.1212   -3.4939    9.1056 C.3       1 RES1    0.0000
     25 C21        7.3491   -4.3235    8.7925 C.3       1 RES1    0.0000
     26 C22        7.4032   -4.9063    7.3964 C.3       1 RES1    0.0000
     27 C23        7.6160   -3.8609    6.2980 C.3       1 RES1    0.0000
     28 C24        9.0142   -3.2534    6.2749 C.3       1 RES1    0.0000
     29 H1         7.8636   -2.4532    3.8958 H         1 RES1    0.0000
     30 H2         7.2786   -0.4132    2.1661 H         1 RES1    0.0000
     31 H3         7.9280   -1.6791    1.5116 H         1 RES1    0.0000
     32 H4         8.0654    0.1634    0.0667 H         1 RES1    0.0000
     33 H5         8.8820    0.9575    1.1395 H         1 RES1    0.0000
     34 H6        10.3657    0.2112   -0.4260 H         1 RES1    0.0000
     35 H7        10.6584   -0.5659    0.9008 H         1 RES1    0.0000
     36 H8         9.3717   -1.6298   -1.3628 H         1 RES1    0.0000
     37 H9         9.4225   -2.4054   -0.0026 H         1 RES1    0.0000
     38 H10       11.0789   -3.1023   -1.5758 H         1 RES1    0.0000
     39 H11       11.7572   -1.6992   -1.4218 H         1 RES1    0.0000
     40 H12       12.1120   -2.2095    0.8854 H         1 RES1    0.0000
     41 H13       12.9597   -3.0776   -0.1052 H         1 RES1    0.0000
     42 H14       10.5289   -4.1878    0.7006 H         1 RES1    0.0000
     43 H15       11.8598   -4.9418    0.3721 H         1 RES1    0.0000
     44 H16       12.7241   -4.2942    2.4638 H         1 RES1    0.0000
     45 H17       11.4674   -5.2178    2.5972 H         1 RES1    0.0000
     46 H18       11.4267   -3.3953    4.1319 H         1 RES1    0.0000
     47 H19       11.3419   -2.4038    2.9206 H         1 RES1    0.0000
     48 H20        9.3348   -4.2171    3.7033 H         1 RES1    0.0000
     49 H21        9.2635   -3.4693    2.3329 H         1 RES1    0.0000
     50 H22       10.1204   -1.7161    5.4331 H         1 RES1    0.0000
     51 H23        7.1646    1.1179    7.3938 H         1 RES1    0.0000
     52 H24        8.0565    1.0793    8.6847 H         1 RES1    0.0000
     53 H25        6.2348   -0.9652    7.9815 H         1 RES1    0.0000
     54 H26        5.9334    0.1203    9.0697 H         1 RES1    0.0000
     55 H27        7.4741   -0.7632   10.4992 H         1 RES1    0.0000
     56 H28        8.0769   -1.6776    9.3802 H         1 RES1    0.0000
     57 H29        6.7456   -2.8756   10.9509 H         1 RES1    0.0000
     58 H30        5.4919   -2.0846   10.4453 H         1 RES1    0.0000
     59 H31        5.8275   -3.0514    8.2921 H         1 RES1    0.0000
     60 H32        5.4079   -4.0860    9.3931 H         1 RES1    0.0000
     61 H33        8.1347   -3.7699    8.9234 H         1 RES1    0.0000
     62 H34        7.3974   -5.0528    9.4316 H         1 RES1    0.0000
     63 H35        6.5725   -5.3766    7.2245 H         1 RES1    0.0000
     64 H36        8.1235   -5.5539    7.3553 H         1 RES1    0.0000
     65 H37        7.4437   -4.2757    5.4382 H         1 RES1    0.0000
     66 H38        6.9686   -3.1486    6.4160 H         1 RES1    0.0000
     67 H39        9.6362   -3.9303    5.9669 H         1 RES1    0.0000
     68 H40        9.2618   -3.0237    7.1860 H         1 RES1    0.0000
     69 H41       11.0860    0.2066    8.8285 H         1 RES1    0.0000
@<TRIPOS>BOND
     1    1    6 2
     2    2   18 2
     3    3    4 1
     4    4   19 2
     5    5    6 1
     6    6    7 1
     7    7    8 1
     8    8    9 1
     9    9   10 1
    10   10   11 1
    11   11   12 1
    12   12   13 1
    13   13   14 1
    14   14   15 1
    15   15   16 1
    16   16    5 1
    17   17    5 1
    18   18   17 1
    19   19   18 1
    20   20   19 1
    21   21   20 1
    22   22   21 1
    23   23   22 1
    24   24   23 1
    25   25   24 1
    26   26   25 1
    27   27   26 1
    28   28   17 1
    29   29    5 1
    30   30    7 1
    31   31    7 1
    32   32    8 1
    33   33    8 1
    34   34    9 1
    35   35    9 1
    36   36   10 1
    37   37   10 1
    38   38   11 1
    39   39   11 1
    40   40   12 1
    41   41   12 1
    42   42   13 1
    43   43   13 1
    44   44   14 1
    45   45   14 1
    46   46   15 1
    47   47   15 1
    48   48   16 1
    49   49   16 1
    50   50   17 1
    51   51   20 1
    52   52   20 1
    53   53   21 1
    54   54   21 1
    55   55   22 1
    56   56   22 1
    57   57   23 1
    58   58   23 1
    59   59   24 1
    60   60   24 1
    61   61   25 1
    62   62   25 1
    63   63   26 1
    64   64   26 1
    65   65   27 1
    66   66   27 1
    67   67   28 1
    68   68   28 1
    69   69    3 1
    70   27   28 1
@<TRIPOS>SUBSTRUCTURE
     1 RES1 1

@<TRIPOS>CRYSIN
  11.9420   15.4190   25.7740  90.0000  95.2920  90.0000  15 1

