# MOL2 file generated by ConQuest
# Please check atom types

@<TRIPOS>MOLECULE
DESTUQ
    54    56     1
SMALL
NO_CHARGES
****
Generated from CSD

@<TRIPOS>ATOM
      1 O1         0.8595    2.8243   11.1517 O.3       1 RES1    0.0000
      2 N1         0.3890    1.5298   10.7121 N.3       1 RES1    0.0000
      3 C1         1.5503    0.6602   10.9601 C.3       1 RES1    0.0000
      4 C2         2.2834    1.2681   12.1795 C.3       1 RES1    0.0000
      5 C3         1.5804    2.6302   12.3765 C.3       1 RES1    0.0000
      6 C4         2.4608    0.7111    9.7376 C.3       1 RES1    0.0000
      7 O2         3.6494   -0.0030   10.0459 O.3       1 RES1    0.0000
      8 C5         4.3107   -0.2555    8.7996 C.3       1 RES1    0.0000
      9 O3         3.2928   -0.1748    7.7988 O.3       1 RES1    0.0000
     10 C6         2.0042    0.0526    8.4286 C.3       1 RES1    0.0000
     11 C7         5.3485    0.8104    8.5269 C.3       1 RES1    0.0000
     12 C8         4.9018   -1.6363    8.8550 C.3       1 RES1    0.0000
     13 C9         1.2955   -1.2745    8.6224 C.3       1 RES1    0.0000
     14 C10        1.2289    0.9808    7.5178 C.3       1 RES1    0.0000
     15 C11        2.2380    0.4467   13.4396 C.2       1 RES1    0.0000
     16 O4         1.4202   -0.3768   13.7228 O.2       1 RES1    0.0000
     17 O5         3.2540    0.7872   14.2312 O.3       1 RES1    0.0000
     18 C12        3.3300    0.1248   15.5077 C.3       1 RES1    0.0000
     19 C13        2.5246    3.8032   12.5578 C.3       1 RES1    0.0000
     20 C14       -0.7950    1.1647   11.5238 C.3       1 RES1    0.0000
     21 C15       -1.4879   -0.0120   10.8940 C.ar      1 RES1    0.0000
     22 C16       -1.4776   -1.2303   11.5210 C.ar      1 RES1    0.0000
     23 C17       -2.1002   -2.3165   10.9064 C.ar      1 RES1    0.0000
     24 C18       -2.7280   -2.1554    9.6717 C.ar      1 RES1    0.0000
     25 C19       -2.7285   -0.9423    9.0571 C.ar      1 RES1    0.0000
     26 C20       -2.1193    0.1351    9.6620 C.ar      1 RES1    0.0000
     27 H1         1.2500   -0.2492   11.1127 H         1 RES1    0.0000
     28 H2         3.2154    1.4164   11.9681 H         1 RES1    0.0000
     29 H3         0.9537    2.5368   13.1351 H         1 RES1    0.0000
     30 H4         2.6629    1.6479    9.5485 H         1 RES1    0.0000
     31 H5         4.9649    1.7239    8.5975 H         1 RES1    0.0000
     32 H6         5.6774    0.7262    7.6286 H         1 RES1    0.0000
     33 H7         6.1228    0.7262    9.1664 H         1 RES1    0.0000
     34 H8         5.6494   -1.7015    9.5734 H         1 RES1    0.0000
     35 H9         4.1826   -1.8513    7.9663 H         1 RES1    0.0000
     36 H10        0.3823   -1.1423    8.9630 H         1 RES1    0.0000
     37 H11        1.2508   -1.7417    7.7725 H         1 RES1    0.0000
     38 H12        1.7738   -1.8290    9.2620 H         1 RES1    0.0000
     39 H13        1.0545    0.5289    6.6499 H         1 RES1    0.0000
     40 H14        0.3472    1.2015    7.9525 H         1 RES1    0.0000
     41 H15        1.7003    1.8155    7.3628 H         1 RES1    0.0000
     42 H16        3.3842   -0.8658   15.4135 H         1 RES1    0.0000
     43 H17        4.1578    0.4030   15.9326 H         1 RES1    0.0000
     44 H18        2.5883    0.3328   16.0904 H         1 RES1    0.0000
     45 H19        2.9459    3.7882   13.4493 H         1 RES1    0.0000
     46 H20        2.0078    4.6530   12.4706 H         1 RES1    0.0000
     47 H21        3.2379    3.7572   11.8560 H         1 RES1    0.0000
     48 H22       -1.4488    1.9555   11.5197 H         1 RES1    0.0000
     49 H23       -0.5626    0.9408   12.4997 H         1 RES1    0.0000
     50 H24       -0.9577   -1.3543   12.3737 H         1 RES1    0.0000
     51 H25       -2.0819   -3.1802   11.3591 H         1 RES1    0.0000
     52 H26       -3.1279   -2.9083    9.2287 H         1 RES1    0.0000
     53 H27       -3.2131   -0.8274    8.1933 H         1 RES1    0.0000
     54 H28       -2.0887    1.0466    9.1969 H         1 RES1    0.0000
@<TRIPOS>BOND
     1    1    2 1
     2    2    3 1
     3    3    4 1
     4    4    5 1
     5    5    1 1
     6    6    3 1
     7    7    6 1
     8    8    7 1
     9    9    8 1
    10   10    6 1
    11   11    8 1
    12   12    8 1
    13   13   10 1
    14   14   10 1
    15   15    4 1
    16   16   15 2
    17   17   15 1
    18   18   17 1
    19   19    5 1
    20   20    2 1
    21   21   20 1
    22   22   21 ar
    23   23   22 ar
    24   24   23 ar
    25   25   24 ar
    26   26   21 ar
    27   27    3 1
    28   28    4 1
    29   29    5 1
    30   30    6 1
    31   31   11 1
    32   32   11 1
    33   33   11 1
    34   34   12 1
    35   35   12 1
    36   36   13 1
    37   37   13 1
    38   38   13 1
    39   39   14 1
    40   40   14 1
    41   41   14 1
    42   42   18 1
    43   43   18 1
    44   44   18 1
    45   45   19 1
    46   46   19 1
    47   47   19 1
    48   48   20 1
    49   49   20 1
    50   50   22 1
    51   51   23 1
    52   52   24 1
    53   53   25 1
    54   54   26 1
    55    9   10 1
    56   25   26 ar
@<TRIPOS>SUBSTRUCTURE
     1 RES1 1

@<TRIPOS>CRYSIN
  11.5490    6.5630   14.1460 101.4400  90.3800 103.8900   2 1

