# MOL2 file generated by ConQuest
# Please check atom types

@<TRIPOS>MOLECULE
DESVAY
    27    30     1
SMALL
NO_CHARGES
****
Generated from CSD

@<TRIPOS>ATOM
      1 C1         1.2585    5.6813    2.5725 C.3       1 RES1    0.0000
      2 C2         0.8259    6.0183    1.1596 C.2       1 RES1    0.0000
      3 O1        -0.3100    6.3383    0.8969 O.2       1 RES1    0.0000
      4 O2         1.7200    6.0287    0.1670 O.3       1 RES1    0.0000
      5 C3         3.0246    5.3868    0.3002 C.3       1 RES1    0.0000
      6 C4         2.9013    4.2211    1.2572 C.3       1 RES1    0.0000
      7 C5         2.4899    4.7422    2.6082 C.3       1 RES1    0.0000
      8 O3         3.5410    5.4775    3.2574 O.3       1 RES1    0.0000
      9 N1         3.2543    6.8754    2.9628 N.3       1 RES1    0.0000
     10 C6         1.8297    6.9613    3.2574 C.3       1 RES1    0.0000
     11 C7         0.0751    5.1141    3.3287 C.3       1 RES1    0.0000
     12 C8         3.4206    5.0291   -1.1108 C.3       1 RES1    0.0000
     13 C9         3.5609    6.2165   -2.0209 C.3       1 RES1    0.0000
     14 C10        4.1735    3.3914    1.3641 C.3       1 RES1    0.0000
     15 C11        4.0906    7.6352    3.8879 C.3       1 RES1    0.0000
     16 C12        5.4983    7.7390    3.3850 C.ar      1 RES1    0.0000
     17 C13        6.5035    6.9603    3.8916 C.ar      1 RES1    0.0000
     18 C14        7.7780    7.0349    3.4263 C.ar      1 RES1    0.0000
     19 C15        8.0868    7.8891    2.4374 C.ar      1 RES1    0.0000
     20 C16        7.1283    8.6943    1.8858 C.ar      1 RES1    0.0000
     21 C17        5.8029    8.6235    2.3830 C.ar      1 RES1    0.0000
     22 C18        1.2382    8.2752    2.8014 C.ar      1 RES1    0.0000
     23 C19        1.7354    8.9378    1.6981 C.ar      1 RES1    0.0000
     24 C20        1.1612   10.1044    1.2497 C.ar      1 RES1    0.0000
     25 C21        0.0668   10.6274    1.9008 C.ar      1 RES1    0.0000
     26 C22       -0.4269    9.9865    2.9966 C.ar      1 RES1    0.0000
     27 C23        0.1502    8.8141    3.4582 C.ar      1 RES1    0.0000
@<TRIPOS>BOND
     1    1    2 1
     2    2    3 2
     3    4    2 1
     4    5    4 1
     5    6    5 1
     6    7    1 1
     7    8    7 1
     8    9    8 1
     9   10    1 1
    10   11    1 1
    11   12    5 1
    12   13   12 1
    13   14    6 1
    14   15    9 1
    15   16   15 1
    16   17   16 ar
    17   18   17 ar
    18   19   18 ar
    19   20   19 ar
    20   21   16 ar
    21   22   10 1
    22   23   22 ar
    23   24   23 ar
    24   25   24 ar
    25   26   25 ar
    26   27   22 ar
    27    6    7 1
    28    9   10 1
    29   20   21 ar
    30   26   27 ar
@<TRIPOS>SUBSTRUCTURE
     1 RES1 1

@<TRIPOS>CRYSIN
  11.5010    9.4390   19.5870  90.0000 106.6700  90.0000  14 1

