# MOL2 file generated by ConQuest
# Please check atom types

@<TRIPOS>MOLECULE
DETDOV
    27    29     1
SMALL
NO_CHARGES
****
Generated from CSD

@<TRIPOS>ATOM
      1 O1         6.6675    0.2641    5.2900 O.3       1 RES1    0.0000
      2 C1         6.9918   -0.9948    4.8934 C.2       1 RES1    0.0000
      3 C2         5.9762   -1.8603    4.8670 C.2       1 RES1    0.0000
      4 C3         4.5256    1.2362    5.9960 C.ar      1 RES1    0.0000
      5 C4         3.2075    0.9175    6.2079 C.ar      1 RES1    0.0000
      6 C5         1.1992   -0.5983    6.2834 C.3       1 RES1    0.0000
      7 C6         0.8215   -2.0476    6.4043 C.3       1 RES1    0.0000
      8 C7         1.4397   -2.8603    5.3443 C.3       1 RES1    0.0000
      9 C8         2.9728   -2.8063    5.3619 C.3       1 RES1    0.0000
     10 C9         3.4896   -1.4115    5.5803 C.ar      1 RES1    0.0000
     11 C10        2.6697   -0.3744    6.0187 C.ar      1 RES1    0.0000
     12 C11        4.8435   -1.1022    5.3553 C.ar      1 RES1    0.0000
     13 C12        5.3194    0.1827    5.5752 C.ar      1 RES1    0.0000
     14 N1         8.3585   -1.1892    4.5445 N.pl3     1 RES1    0.0000
     15 O2         8.6755   -2.3131    4.1552 O.2       1 RES1    0.0000
     16 O3         9.1323   -0.2432    4.6544 O.2       1 RES1    0.0000
     17 H1         5.9922   -2.8951    4.6258 H         1 RES1    0.0000
     18 H2         4.9056    2.2348    6.1433 H         1 RES1    0.0000
     19 H3         2.5599    1.6876    6.5392 H         1 RES1    0.0000
     20 H4         0.6390   -0.2001    5.4469 H         1 RES1    0.0000
     21 H5         0.9227   -0.0595    7.1990 H         1 RES1    0.0000
     22 H6         1.1974   -2.3850    7.3676 H         1 RES1    0.0000
     23 H7        -0.2488   -2.1509    6.4292 H         1 RES1    0.0000
     24 H8         1.0659   -2.5410    4.3839 H         1 RES1    0.0000
     25 H9         1.1564   -3.9082    5.4909 H         1 RES1    0.0000
     26 H10        3.3659   -3.4398    6.1287 H         1 RES1    0.0000
     27 H11        3.3495   -3.1427    4.3766 H         1 RES1    0.0000
@<TRIPOS>BOND
     1    1    2 1
     2    2    3 2
     3    3   12 1
     4    4    5 ar
     5    5   11 ar
     6    6    7 1
     7    7    8 1
     8    8    9 1
     9    9   10 1
    10   10   11 ar
    11   11    6 1
    12   12   10 ar
    13   13    1 1
    14   14    2 1
    15   15   14 2
    16   16   14 2
    17   17    3 1
    18   18    4 1
    19   19    5 1
    20   20    6 1
    21   21    6 1
    22   22    7 1
    23   23    7 1
    24   24    8 1
    25   25    8 1
    26   26    9 1
    27   27    9 1
    28    4   13 ar
    29   12   13 ar
@<TRIPOS>SUBSTRUCTURE
     1 RES1 1

@<TRIPOS>CRYSIN
  10.9680    7.2910    7.3950  92.5700  94.8900 119.5600   2 1

