# MOL2 file generated by ConQuest
# Please check atom types

@<TRIPOS>MOLECULE
DETGOX
    28    29     1
SMALL
NO_CHARGES
****
Generated from CSD

@<TRIPOS>ATOM
      1 C1         5.5196    2.2412    1.2084 C.ar      1 RES1    0.0000
      2 C2         6.5249    1.3161    1.4330 C.ar      1 RES1    0.0000
      3 C3         7.5552    1.6518    2.2711 C.ar      1 RES1    0.0000
      4 C4         7.5870    2.8973    2.8897 C.ar      1 RES1    0.0000
      5 C5         6.5479    3.7912    2.6917 C.ar      1 RES1    0.0000
      6 C6         5.5090    3.4690    1.8321 C.ar      1 RES1    0.0000
      7 C7         3.2400    2.4691    0.2452 C.2       1 RES1    0.0000
      8 C8         2.5767    1.9048   -0.8514 C.2       1 RES1    0.0000
      9 C9         8.7204    4.2692    4.5566 C.3       1 RES1    0.0000
     10 C10        7.8929    3.9449    5.7670 C.3       1 RES1    0.0000
     11 C11       10.1721    4.5005    4.8684 C.3       1 RES1    0.0000
     12 N1         4.4598    1.9328    0.2821 N.pl3     1 RES1    0.0000
     13 N2         4.7169    1.0555   -0.6637 N.2       1 RES1    0.0000
     14 O1         3.5372    1.0055   -1.3858 O.3       1 RES1    0.0000
     15 O2         1.4975    2.0167   -1.3900 O.2       1 RES1    0.0000
     16 O3         8.7008    3.1407    3.6364 O.3       1 RES1    0.0000
     17 H1         6.4761    0.3984    1.0227 H         1 RES1    0.0000
     18 H2         8.3333    1.0300    2.4629 H         1 RES1    0.0000
     19 H3         6.5440    4.6761    3.1533 H         1 RES1    0.0000
     20 H4         4.7641    4.1434    1.6464 H         1 RES1    0.0000
     21 H5         2.9126    3.0560    1.0032 H         1 RES1    0.0000
     22 H6         8.3231    5.1001    4.0211 H         1 RES1    0.0000
     23 H7         6.9295    3.7484    5.5239 H         1 RES1    0.0000
     24 H8         7.8254    4.7198    6.4307 H         1 RES1    0.0000
     25 H9         8.2401    3.1621    6.1917 H         1 RES1    0.0000
     26 H10       10.2195    5.2149    5.5567 H         1 RES1    0.0000
     27 H11       10.7703    4.7309    4.0139 H         1 RES1    0.0000
     28 H12       10.7210    3.6555    5.1095 H         1 RES1    0.0000
@<TRIPOS>BOND
     1    1    2 ar
     2    2    3 ar
     3    3    4 ar
     4    4    5 ar
     5    5    6 ar
     6    6    1 ar
     7    7    8 1
     8    8   14 1
     9    9   10 1
    10   10   23 1
    11   11    9 1
    12   12    1 1
    13   13   12 un
    14   14   13 1
    15   15    8 2
    16   16    4 1
    17   17    2 1
    18   18    3 1
    19   19    5 1
    20   20    6 1
    21   21    7 1
    22   22    9 1
    23   24   10 1
    24   25   10 1
    25   26   11 1
    26   27   11 1
    27   28   11 1
    28    7   12 un
    29    9   16 1
@<TRIPOS>SUBSTRUCTURE
     1 RES1 1

@<TRIPOS>CRYSIN
   6.9160    8.0890   10.8200 108.4900  82.8900 108.4200   2 1

