# MOL2 file generated by ConQuest
# Please check atom types

@<TRIPOS>MOLECULE
DETPUO
    72    78     2
SMALL
NO_CHARGES
****
Generated from CSD

@<TRIPOS>ATOM
      1 C1         2.0591    5.8224    1.6965 C.3       1 RES1    0.0000
      2 O1         1.0056    5.3902    2.5462 O.3       1 RES1    0.0000
      3 N1         0.9212    6.3343    3.7086 N.3       1 RES1    0.0000
      4 C2         1.8796    7.4330    3.4138 C.3       1 RES1    0.0000
      5 H1         1.4362    8.2070    2.9623 H         1 RES1    0.0000
      6 C3         2.6962    7.8697    4.6380 C.3       1 RES1    0.0000
      7 H2         2.1439    7.8268    5.4577 H         1 RES1    0.0000
      8 H3         3.0249    8.7969    4.5249 H         1 RES1    0.0000
      9 C4         3.8751    6.8854    4.7281 C.3       1 RES1    0.0000
     10 H4         4.6891    7.3442    5.0558 H         1 RES1    0.0000
     11 H5         3.6607    6.1395    5.3425 H         1 RES1    0.0000
     12 C5         4.0816    6.3750    3.3217 C.3       1 RES1    0.0000
     13 H6         4.4875    5.4702    3.1952 H         1 RES1    0.0000
     14 C6         4.1769    7.3763    2.1891 C.3       1 RES1    0.0000
     15 H7         4.2950    8.3306    2.4265 H         1 RES1    0.0000
     16 H8         4.6378    7.0922    1.3597 H         1 RES1    0.0000
     17 C7         2.8679    6.7395    2.5084 C.3       1 RES1    0.0000
     18 C8         1.7762    6.0451    0.2430 C.3       1 RES1    0.0000
     19 H9         2.2687    6.7693   -0.2191 H         1 RES1    0.0000
     20 H10        0.8509    5.8973   -0.0764 H         1 RES1    0.0000
     21 C9         2.5696    4.8328    0.7168 C.3       1 RES1    0.0000
     22 H11        2.1272    3.9483    0.6799 H         1 RES1    0.0000
     23 H12        3.5438    4.8199    0.5384 H         1 RES1    0.0000
     24 C10       -0.5181    6.7167    3.7868 C.3       1 RES1    0.0000
     25 C11       -0.6522    7.6935    4.9511 C.3       1 RES1    0.0000
     26 H13       -0.2791    7.2889    5.7619 H         1 RES1    0.0000
     27 H14       -1.5989    7.9013    5.0958 H         1 RES1    0.0000
     28 H15       -0.1646    8.5181    4.7440 H         1 RES1    0.0000
     29 C12       -1.0716    7.3519    2.5082 C.3       1 RES1    0.0000
     30 H16       -0.5931    8.1871    2.3251 H         1 RES1    0.0000
     31 H17       -2.0264    7.5416    2.6243 H         1 RES1    0.0000
     32 H18       -0.9501    6.7341    1.7579 H         1 RES1    0.0000
     33 C13       -1.2990    5.4456    4.1131 C.3       1 RES1    0.0000
     34 H19       -0.8903    5.0003    4.8842 H         1 RES1    0.0000
     35 H20       -1.2802    4.8435    3.3405 H         1 RES1    0.0000
     36 H21       -2.2277    5.6781    4.3246 H         1 RES1    0.0000
     37 C14        2.3890   11.0148    1.6075 C.3       2 RES2    0.0000
     38 O2         3.4933   10.6190    2.4019 O.3       2 RES2    0.0000
     39 N2         3.5582   11.5147    3.6043 N.3       2 RES2    0.0000
     40 C15        2.5667   12.5962    3.3645 C.3       2 RES2    0.0000
     41 H22        2.9782   13.3964    2.9298 H         2 RES2    0.0000
     42 C16        1.7635   12.9652    4.6184 C.3       2 RES2    0.0000
     43 H23        1.4008   13.8831    4.5412 H         2 RES2    0.0000
     44 H24        2.3368   12.9178    5.4239 H         2 RES2    0.0000
     45 C17        0.6234   11.9405    4.7065 C.3       2 RES2    0.0000
     46 H25        0.8808   11.1787    5.2849 H         2 RES2    0.0000
     47 H26       -0.1949   12.3588    5.0758 H         2 RES2    0.0000
     48 C18        0.3916   11.4788    3.2914 C.3       2 RES2    0.0000
     49 H27        0.0057   10.5680    3.1439 H         2 RES2    0.0000
     50 C19        0.2428   12.5140    2.1930 C.3       2 RES2    0.0000
     51 H28       -0.2310   12.2444    1.3660 H         2 RES2    0.0000
     52 H29        0.1059   13.4561    2.4628 H         2 RES2    0.0000
     53 C20        1.5795   11.8996    2.4617 C.3       2 RES2    0.0000
     54 C21        2.6015   11.2285    0.1417 C.3       2 RES2    0.0000
     55 H30        3.5141   11.0987   -0.2179 H         2 RES2    0.0000
     56 H31        2.0722   11.9361   -0.3042 H         2 RES2    0.0000
     57 C22        1.8584   10.0035    0.6626 C.3       2 RES2    0.0000
     58 H32        0.8779    9.9660    0.5284 H         2 RES2    0.0000
     59 H33        2.3198    9.1285    0.6148 H         2 RES2    0.0000
     60 C23        4.9882   11.9420    3.6745 C.3       2 RES2    0.0000
     61 C24        5.8182   10.6726    3.8882 C.3       2 RES2    0.0000
     62 H34        5.4308   10.1480    4.6201 H         2 RES2    0.0000
     63 H35        6.7388   10.9191    4.1155 H         2 RES2    0.0000
     64 H36        5.8158   10.1391    3.0663 H         2 RES2    0.0000
     65 C25        5.4880   12.6759    2.4267 C.3       2 RES2    0.0000
     66 H37        5.0142   13.5296    2.3376 H         2 RES2    0.0000
     67 H38        5.3202   12.1250    1.6339 H         2 RES2    0.0000
     68 H39        6.4497   12.8437    2.5104 H         2 RES2    0.0000
     69 C26        5.1158   12.8413    4.9014 C.3       2 RES2    0.0000
     70 H40        4.5651   13.6422    4.7778 H         2 RES2    0.0000
     71 H41        6.0533   13.1036    5.0182 H         2 RES2    0.0000
     72 H42        4.8118   12.3554    5.6956 H         2 RES2    0.0000
@<TRIPOS>BOND
     1    1    2 1
     2    2    3 1
     3    3    4 1
     4    4    5 1
     5    6    4 1
     6    7    6 1
     7    8    6 1
     8    9    6 1
     9   10    9 1
    10   11    9 1
    11   12    9 1
    12   13   12 1
    13   14   12 1
    14   15   14 1
    15   16   14 1
    16   17    1 1
    17   18    1 1
    18   19   18 1
    19   20   18 1
    20   21    1 1
    21   22   21 1
    22   23   21 1
    23   24    3 1
    24   25   24 1
    25   26   25 1
    26   27   25 1
    27   28   25 1
    28   29   24 1
    29   30   29 1
    30   31   29 1
    31   32   29 1
    32   33   24 1
    33   34   33 1
    34   35   33 1
    35   36   33 1
    36   37   38 1
    37   38   39 1
    38   39   40 1
    39   40   41 1
    40   42   40 1
    41   43   42 1
    42   44   42 1
    43   45   42 1
    44   46   45 1
    45   47   45 1
    46   48   45 1
    47   49   48 1
    48   50   48 1
    49   51   50 1
    50   52   50 1
    51   53   37 1
    52   54   37 1
    53   55   54 1
    54   56   54 1
    55   57   37 1
    56   58   57 1
    57   59   57 1
    58   60   39 1
    59   61   60 1
    60   62   61 1
    61   63   61 1
    62   64   61 1
    63   65   60 1
    64   66   65 1
    65   67   65 1
    66   68   65 1
    67   69   60 1
    68   70   69 1
    69   71   69 1
    70   72   69 1
    71    4   17 1
    72   12   17 1
    73   14   17 1
    74   18   21 1
    75   40   53 1
    76   48   53 1
    77   50   53 1
    78   54   57 1
@<TRIPOS>SUBSTRUCTURE
     1 RES1 1
     2 RES2 37

@<TRIPOS>CRYSIN
   9.0976   10.3784   13.1544 104.4450 100.1710  90.4190   2 1

