# MOL2 file generated by ConQuest
# Please check atom types

@<TRIPOS>MOLECULE
DETQUP
   128   134     2
SMALL
NO_CHARGES
****
Generated from CSD

@<TRIPOS>ATOM
      1 O1         3.8155    1.4761   -2.6913 O.3       1 RES1    0.0000
      2 O2         6.5712    1.5017   -8.2875 O.3       1 RES1    0.0000
      3 O3         3.2559    3.5754   -3.2937 O.2       1 RES1    0.0000
      4 O4         1.9227   -4.7354  -22.0967 O.2       2 RES2    0.0000
      5 O5         1.4138   -2.6421  -22.7412 O.3       2 RES2    0.0000
      6 O6        -1.4953   -2.6540  -17.1688 O.3       2 RES2    0.0000
      7 O7         0.3881    1.3115    4.1565 O.3       1 RES1    0.0000
      8 O8         5.2367   -2.4572  -29.4809 O.3       2 RES2    0.0000
      9 N1         9.0540    2.3916  -33.9165 N.1       2 RES2    0.0000
     10 N2        -3.2397   -3.5605    8.6326 N.1       1 RES1    0.0000
     11 N3         0.9926    1.8548    3.0247 N.2       1 RES1    0.0000
     12 N4         4.5589   -2.9880  -28.3136 N.2       2 RES2    0.0000
     13 C1         1.6858    1.1093    0.8425 C.ar      1 RES1    0.0000
     14 C2         4.6384    2.2484   -4.7299 C.ar      1 RES1    0.0000
     15 C3         0.0402    0.0179    3.8773 C.2       1 RES1    0.0000
     16 C4         2.3744    2.3021    0.6141 C.ar      1 RES1    0.0000
     17 C5         2.3669    0.2684   -1.3144 C.ar      1 RES1    0.0000
     18 C6         3.0452    1.4791   -1.5327 C.ar      1 RES1    0.0000
     19 C7         3.8634    2.5645   -3.4967 C.2       1 RES1    0.0000
     20 C8         5.8917    0.7276   -6.1002 C.ar      1 RES1    0.0000
     21 C9        -0.6800   -0.6739    4.9431 C.ar      1 RES1    0.0000
     22 C10        3.0511    2.4751   -0.5938 C.ar      1 RES1    0.0000
     23 C11        1.6708    0.1491   -0.1421 C.ar      1 RES1    0.0000
     24 C12        1.0525    0.9006    2.1315 C.2       1 RES1    0.0000
     25 C13        4.6925    3.1967   -5.7145 C.ar      1 RES1    0.0000
     26 C14        5.3486    2.8866   -6.9223 C.ar      1 RES1    0.0000
     27 C15       -1.8457   -2.6838    5.5978 C.ar      1 RES1    0.0000
     28 C16       -2.0426   -2.1411    6.8614 C.ar      1 RES1    0.0000
     29 C17       -1.5429   -0.8588    7.1304 C.ar      1 RES1    0.0000
     30 C18       -1.1412   -1.9741    4.6589 C.ar      1 RES1    0.0000
     31 C19       -0.8488   -0.1551    6.1865 C.ar      1 RES1    0.0000
     32 C20        7.6355    0.2505   -9.9877 C.3       1 RES1    0.0000
     33 C21        7.0199    0.1670   -8.6428 C.3       1 RES1    0.0000
     34 C22        7.8867   -1.1451  -10.5459 C.3       1 RES1    0.0000
     35 C23       -0.1943   -4.0555  -18.5696 C.ar      2 RES2    0.0000
     36 C24       -1.8225   -1.3180  -16.8390 C.3       2 RES2    0.0000
     37 C25       -3.5521    1.3121  -12.8601 C.3       2 RES2    0.0000
     38 C26       -3.4645   -0.0179  -13.5909 C.3       2 RES2    0.0000
     39 C27        1.4227   -3.6798  -21.8125 C.2       2 RES2    0.0000
     40 C28        6.5385   -1.0198  -31.5718 C.ar      2 RES2    0.0000
     41 C29        8.5258   -1.1630  -11.9162 C.3       1 RES1    0.0000
     42 C30        9.3459   -2.5168  -13.9157 C.3       1 RES1    0.0000
     43 C31        4.5023   -1.9800  -27.5473 C.2       2 RES2    0.0000
     44 C32        2.3840   -3.6201  -24.7814 C.ar      2 RES2    0.0000
     45 C33       -0.7383   -2.7971  -18.3869 C.ar      2 RES2    0.0000
     46 C34        0.5187   -4.3537  -19.6252 C.ar      2 RES2    0.0000
     47 C35        7.7530    0.9781  -32.1554 C.ar      2 RES2    0.0000
     48 C36       -0.7268   -1.8966  -19.3917 C.ar      2 RES2    0.0000
     49 C37       -2.5052   -1.4015  -15.4230 C.3       2 RES2    0.0000
     50 C38        6.2643   -0.3936  -30.2624 C.ar      2 RES2    0.0000
     51 C39        6.8096    0.8051  -29.9985 C.ar      2 RES2    0.0000
     52 C40        0.6160   -3.3637  -20.6960 C.ar      2 RES2    0.0000
     53 C41        7.4603    1.5149  -30.9628 C.ar      2 RES2    0.0000
     54 C42       -2.7869   -0.0537  -14.9105 C.3       2 RES2    0.0000
     55 C43        8.4454    1.7475  -33.1298 C.1       2 RES2    0.0000
     56 C44        5.6022   -1.1988  -29.2373 C.2       2 RES2    0.0000
     57 C45        8.6410   -2.4691  -12.5455 C.3       1 RES1    0.0000
     58 C46       -4.1908    2.6063  -10.8707 C.3       2 RES2    0.0000
     59 C47        3.0144   -1.4075  -24.1013 C.ar      2 RES2    0.0000
     60 C48        2.3675   -2.5586  -23.8374 C.ar      2 RES2    0.0000
     61 C49        7.2701   -0.2565  -32.5107 C.ar      2 RES2    0.0000
     62 C50        3.7102   -1.2167  -25.2991 C.ar      2 RES2    0.0000
     63 C51       -4.2141    1.3002  -11.5254 C.3       2 RES2    0.0000
     64 C52        0.0070   -2.1709  -20.5285 C.ar      2 RES2    0.0000
     65 C53        9.3837   -3.7871  -14.6364 C.3       1 RES1    0.0000
     66 C54        5.1105   -0.8767  -28.0142 C.2       2 RES2    0.0000
     67 C55        3.7512   -2.2067  -26.2379 C.ar      2 RES2    0.0000
     68 C56        3.2252   -3.3935  -25.9284 C.ar      2 RES2    0.0000
     69 C57        0.4416   -0.2922    2.6492 C.2       1 RES1    0.0000
     70 C58        5.2329    1.0079   -4.9177 C.ar      1 RES1    0.0000
     71 C59        5.9760    1.6818   -7.0797 C.ar      1 RES1    0.0000
     72 C60       -2.7747   -2.9164    7.8714 C.1       1 RES1    0.0000
     73 H1         2.3617    3.0112    1.2637 H         1 RES1    0.0000
     74 H2         2.3777   -0.3835   -1.9590 H         1 RES1    0.0000
     75 H3         6.2604   -0.1670   -6.2321 H         1 RES1    0.0000
     76 H4         3.5751    3.2587   -0.7410 H         1 RES1    0.0000
     77 H5         1.2161   -0.6620    0.0152 H         1 RES1    0.0000
     78 H6         4.2268    4.0400   -5.5978 H         1 RES1    0.0000
     79 H7         5.4445    3.5742   -7.6075 H         1 RES1    0.0000
     80 H8        -2.1987   -3.5188    5.4151 H         1 RES1    0.0000
     81 H9        -1.6415   -0.4932    7.9932 H         1 RES1    0.0000
     82 H10       -0.9891   -2.3397    3.7657 H         1 RES1    0.0000
     83 H11       -0.4615    0.7234    6.3742 H         1 RES1    0.0000
     84 H12       -0.3553   -4.6978  -17.7880 H         2 RES2    0.0000
     85 H13        6.1690   -1.9055  -31.7849 H         2 RES2    0.0000
     86 H14        1.9486   -4.5201  -24.5682 H         2 RES2    0.0000
     87 H15        0.9501   -5.1988  -19.7926 H         2 RES2    0.0000
     88 H16       -1.2641   -1.0753  -19.3207 H         2 RES2    0.0000
     89 H17        6.5129    1.2852  -29.2170 H         2 RES2    0.0000
     90 H18        7.8428    2.4721  -30.6837 H         2 RES2    0.0000
     91 H19        2.8955   -0.5469  -23.3858 H         2 RES2    0.0000
     92 H20        7.5111   -0.6739  -33.4546 H         2 RES2    0.0000
     93 H21        4.3814   -0.4234  -25.4767 H         2 RES2    0.0000
     94 H22       -0.0177   -1.4594  -21.2644 H         2 RES2    0.0000
     95 H23        5.4192   -0.0483  -27.6285 H         2 RES2    0.0000
     96 H24        3.2836   -4.1366  -26.6338 H         2 RES2    0.0000
     97 H25        0.3686   -1.1600    2.2076 H         1 RES1    0.0000
     98 H26        5.1740    0.3984   -4.2021 H         1 RES1    0.0000
     99 H27        7.0352    0.7312  -10.5662 H         1 RES1    0.0000
    100 H28        8.4424    0.7896   -9.9166 H         1 RES1    0.0000
    101 H29        7.6439   -0.1730   -7.9830 H         1 RES1    0.0000
    102 H30        6.2640   -0.4354   -8.6377 H         1 RES1    0.0000
    103 H31        8.5685   -1.5512   -9.9369 H         1 RES1    0.0000
    104 H32        7.1404   -1.6335  -10.5358 H         1 RES1    0.0000
    105 H33       -1.0803   -0.7043  -16.8034 H         2 RES2    0.0000
    106 H34       -2.4701   -0.9256  -17.4581 H         2 RES2    0.0000
    107 H35       -2.6435    1.6431  -12.7688 H         2 RES2    0.0000
    108 H36       -3.9938    1.9842  -13.4539 H         2 RES2    0.0000
    109 H37       -3.1440   -0.6721  -12.9769 H         2 RES2    0.0000
    110 H38       -4.4631   -0.3095  -13.7077 H         2 RES2    0.0000
    111 H39        7.9892   -0.5314  -12.4694 H         1 RES1    0.0000
    112 H40        9.4120   -0.7228  -11.8807 H         1 RES1    0.0000
    113 H41        8.9331   -1.8769  -14.5248 H         1 RES1    0.0000
    114 H42       10.2585   -2.2699  -13.8193 H         1 RES1    0.0000
    115 H43       -3.2940   -1.9144  -15.4636 H         2 RES2    0.0000
    116 H44       -1.8859   -1.8423  -14.8140 H         2 RES2    0.0000
    117 H45       -3.3218    0.4741  -15.5601 H         2 RES2    0.0000
    118 H46       -1.9733    0.4920  -14.7937 H         2 RES2    0.0000
    119 H47        9.0671   -3.0977  -11.9517 H         1 RES1    0.0000
    120 H48        7.7153   -2.8472  -12.6724 H         1 RES1    0.0000
    121 H49       -5.1544    0.9578  -11.6878 H         2 RES2    0.0000
    122 H50       -3.8087    0.5928  -11.0078 H         2 RES2    0.0000
    123 H51       -3.3423    2.9564  -10.6677 H         2 RES2    0.0000
    124 H52       -4.6907    3.3202  -11.3427 H         2 RES2    0.0000
    125 H53       -4.6816    2.6081   -9.9623 H         2 RES2    0.0000
    126 H54        8.4423   -4.0627  -14.8090 H         1 RES1    0.0000
    127 H55        9.7948   -3.7120  -15.4839 H         1 RES1    0.0000
    128 H56        9.7767   -4.4491  -14.1187 H         1 RES1    0.0000
@<TRIPOS>BOND
     1    1   18 1
     2    2   33 1
     3    3   19 2
     4    4   39 2
     5    5   39 1
     6    6   36 1
     7    7   11 1
     8    8   12 1
     9    9   55 3
    10   10   72 3
    11   11   24 2
    12   12   43 2
    13   13   16 ar
    14   14   19 1
    15   15    7 1
    16   16   22 ar
    17   17   18 ar
    18   18   22 ar
    19   19    1 1
    20   20   70 ar
    21   21   15 1
    22   22   76 1
    23   23   13 ar
    24   24   13 1
    25   25   14 ar
    26   26   25 ar
    27   27   28 ar
    28   28   29 ar
    29   29   31 ar
    30   30   21 ar
    31   31   21 ar
    32   32   33 1
    33   33  101 1
    34   34   32 1
    35   35   45 ar
    36   36   49 1
    37   37   38 1
    38   38   54 1
    39   39   52 1
    40   40   50 ar
    41   41   34 1
    42   42   57 1
    43   43   66 1
    44   44   60 ar
    45   45    6 1
    46   46   35 ar
    47   47   53 ar
    48   48   45 ar
    49   49   54 1
    50   50   51 ar
    51   51   53 ar
    52   52   46 ar
    53   53   90 1
    54   54  117 1
    55   55   47 1
    56   56    8 1
    57   57   41 1
    58   58   63 1
    59   59   60 ar
    60   60    5 1
    61   61   40 ar
    62   62   59 ar
    63   63   37 1
    64   64   48 ar
    65   65   42 1
    66   66   56 2
    67   67   43 1
    68   68   44 ar
    69   69   15 2
    70   70   14 ar
    71   71    2 1
    72   72   28 1
    73   73   16 1
    74   74   17 1
    75   75   20 1
    76   77   23 1
    77   78   25 1
    78   79   26 1
    79   80   27 1
    80   81   29 1
    81   82   30 1
    82   83   31 1
    83   84   35 1
    84   85   40 1
    85   86   44 1
    86   87   46 1
    87   88   48 1
    88   89   51 1
    89   91   59 1
    90   92   61 1
    91   93   62 1
    92   94   64 1
    93   95   66 1
    94   96   68 1
    95   97   69 1
    96   98   70 1
    97   99   32 1
    98  100   32 1
    99  102   33 1
   100  103   34 1
   101  104   34 1
   102  105   36 1
   103  106   36 1
   104  107   37 1
   105  108   37 1
   106  109   38 1
   107  110   38 1
   108  111   41 1
   109  112   41 1
   110  113   42 1
   111  114   42 1
   112  115   49 1
   113  116   49 1
   114  118   54 1
   115  119   57 1
   116  120   57 1
   117  121   63 1
   118  122   63 1
   119  123   58 1
   120  124   58 1
   121  125   58 1
   122  126   65 1
   123  127   65 1
   124  128   65 1
   125   17   23 ar
   126   20   71 ar
   127   24   69 1
   128   26   71 ar
   129   27   30 ar
   130   47   61 ar
   131   50   56 1
   132   52   64 ar
   133   62   67 ar
   134   67   68 ar
@<TRIPOS>SUBSTRUCTURE
     1 RES1 1
     2 RES2 4

@<TRIPOS>CRYSIN
   8.2220    5.9640   50.8200  90.0000  93.0000  90.0000   4 1

