# MOL2 file generated by ConQuest
# Please check atom types

@<TRIPOS>MOLECULE
DETWAA
    98   100     2
SMALL
NO_CHARGES
****
Generated from CSD

@<TRIPOS>ATOM
      1 O1         4.3150    2.9740    3.3056 O.3       1 RES1    0.0000
      2 H1         5.2250    2.7186    3.1097 H         1 RES1    0.0000
      3 O2         7.8405    2.7476    3.3752 O.3       1 RES1    0.0000
      4 H2         7.4336    3.5634    3.2786 H         1 RES1    0.0000
      5 O3         3.2473    5.4794    2.9138 O.3       2 RES2    0.0000
      6 H3         3.6335    4.6914    3.0675 H         2 RES2    0.0000
      7 O4         6.8321    5.3012    3.0766 O.3       2 RES2    0.0000
      8 H4         5.9372    5.5338    2.8564 H         2 RES2    0.0000
      9 N1         3.8836    1.6705    3.7668 N.3       1 RES1    0.0000
     10 N2         6.7545    1.8484    3.0748 N.3       1 RES1    0.0000
     11 N3         4.3513    6.3931    2.8136 N.3       2 RES2    0.0000
     12 N4         7.1729    6.5255    3.7753 N.3       2 RES2    0.0000
     13 C1         2.4196    1.4607    3.5642 C.3       1 RES1    0.0000
     14 C2         2.0724    0.5473    4.7546 C.3       1 RES1    0.0000
     15 H5         1.4741    1.0014    5.3681 H         1 RES1    0.0000
     16 H6         1.6427   -0.2657    4.4450 H         1 RES1    0.0000
     17 C3         3.4068    0.2219    5.4441 C.3       1 RES1    0.0000
     18 H7         3.2824    0.0864    6.3967 H         1 RES1    0.0000
     19 H8         3.8122   -0.5720    5.0614 H         1 RES1    0.0000
     20 C4         4.2603    1.4612    5.1725 C.3       1 RES1    0.0000
     21 C5         1.5819    2.7242    3.5558 C.3       1 RES1    0.0000
     22 H9         1.7693    3.2379    4.3437 H         1 RES1    0.0000
     23 H10        0.6499    2.4891    3.5403 H         1 RES1    0.0000
     24 H11        1.7927    3.2435    2.7762 H         1 RES1    0.0000
     25 C6         2.2471    0.7411    2.2373 C.3       1 RES1    0.0000
     26 H12        1.3133    0.5777    2.0811 H         1 RES1    0.0000
     27 H13        2.7184   -0.0942    2.2626 H         1 RES1    0.0000
     28 H14        2.5990    1.2868    1.5295 H         1 RES1    0.0000
     29 C7         3.8682    2.5812    6.1336 C.3       1 RES1    0.0000
     30 H15        2.9136    2.6013    6.2293 H         1 RES1    0.0000
     31 H16        4.1720    3.4225    5.7846 H         1 RES1    0.0000
     32 H17        4.2727    2.4246    6.9905 H         1 RES1    0.0000
     33 C8         5.7873    1.2464    5.2916 C.3       1 RES1    0.0000
     34 H18        5.9190    0.6137    6.0140 H         1 RES1    0.0000
     35 H19        6.1588    2.0898    5.5947 H         1 RES1    0.0000
     36 C9         6.6842    0.7693    4.1248 C.3       1 RES1    0.0000
     37 C10        6.1835   -0.4384    3.3053 C.3       1 RES1    0.0000
     38 H20        6.8298   -1.1611    3.3419 H         1 RES1    0.0000
     39 H21        5.3403   -0.7597    3.6613 H         1 RES1    0.0000
     40 C11        6.0038    0.0383    1.8686 C.3       1 RES1    0.0000
     41 H22        6.2403   -0.6633    1.2411 H         1 RES1    0.0000
     42 H23        5.0856    0.3062    1.7068 H         1 RES1    0.0000
     43 C12        6.9419    1.2256    1.7258 C.3       1 RES1    0.0000
     44 C13        6.4781    2.2368    0.6853 C.3       1 RES1    0.0000
     45 H24        5.5671    2.4839    0.8626 H         1 RES1    0.0000
     46 H25        6.5385    1.8465   -0.1900 H         1 RES1    0.0000
     47 H26        7.0360    3.0172    0.7261 H         1 RES1    0.0000
     48 C14        8.3707    0.7960    1.4127 C.3       1 RES1    0.0000
     49 H27        8.4252    0.5059    0.4995 H         1 RES1    0.0000
     50 H28        8.6223    0.0741    1.9939 H         1 RES1    0.0000
     51 H29        8.9648    1.5382    1.5492 H         1 RES1    0.0000
     52 C15        8.0527    0.4708    4.7546 C.3       1 RES1    0.0000
     53 H30        8.6984    0.3230    4.0595 H         1 RES1    0.0000
     54 H31        7.9876   -0.3138    5.3034 H         1 RES1    0.0000
     55 H32        8.3259    1.2167    5.2921 H         1 RES1    0.0000
     56 C16        4.2660    7.1598    1.5295 C.3       2 RES2    0.0000
     57 C17        5.1950    8.3179    1.8757 C.3       2 RES2    0.0000
     58 H33        6.1218    8.0645    1.7406 H         2 RES2    0.0000
     59 H34        4.9994    9.0897    1.3227 H         2 RES2    0.0000
     60 C18        4.9344    8.6297    3.3391 C.3       2 RES2    0.0000
     61 H35        4.3092    9.3671    3.4207 H         2 RES2    0.0000
     62 H36        5.7606    8.8739    3.7851 H         2 RES2    0.0000
     63 C19        4.3406    7.3494    3.9742 C.3       2 RES2    0.0000
     64 C20        2.8591    7.6436    1.1623 C.3       2 RES2    0.0000
     65 H37        2.5974    8.3489    1.7589 H         2 RES2    0.0000
     66 H38        2.2402    6.9132    1.2383 H         2 RES2    0.0000
     67 H39        2.8586    7.9709    0.2603 H         2 RES2    0.0000
     68 C21        4.8021    6.2869    0.4207 C.3       2 RES2    0.0000
     69 H40        4.7955    6.7779   -0.4052 H         2 RES2    0.0000
     70 H41        4.2500    5.5056    0.3321 H         2 RES2    0.0000
     71 H42        5.7017    6.0220    0.6276 H         2 RES2    0.0000
     72 C22        2.9247    7.6175    4.5027 C.3       2 RES2    0.0000
     73 H43        2.3596    7.8924    3.7767 H         2 RES2    0.0000
     74 H44        2.9562    8.3122    5.1641 H         2 RES2    0.0000
     75 H45        2.5730    6.8157    4.8967 H         2 RES2    0.0000
     76 C23        5.1176    6.7101    5.1469 C.3       2 RES2    0.0000
     77 H46        4.7319    5.8309    5.2865 H         2 RES2    0.0000
     78 H47        4.9048    7.2330    5.9366 H         2 RES2    0.0000
     79 C24        6.6512    6.5205    5.1466 C.3       2 RES2    0.0000
     80 C25        7.4534    7.6993    5.7016 C.3       2 RES2    0.0000
     81 H48        7.4878    7.6700    6.6711 H         2 RES2    0.0000
     82 H49        7.0650    8.5443    5.4258 H         2 RES2    0.0000
     83 C26        8.8487    7.5154    5.0979 C.3       2 RES2    0.0000
     84 H50        9.4086    6.9894    5.6903 H         2 RES2    0.0000
     85 H51        9.2724    8.3759    4.9530 H         2 RES2    0.0000
     86 C27        8.6408    6.7824    3.7584 C.3       2 RES2    0.0000
     87 C28        8.9316    7.6768    2.5567 C.3       2 RES2    0.0000
     88 H52        8.4373    8.4953    2.6397 H         2 RES2    0.0000
     89 H53        8.6687    7.2247    1.7504 H         2 RES2    0.0000
     90 H54        9.8710    7.8720    2.5215 H         2 RES2    0.0000
     91 C29        9.4975    5.5285    3.6543 C.3       2 RES2    0.0000
     92 H55        9.2999    4.9447    4.3902 H         2 RES2    0.0000
     93 H56       10.4255    5.7723    3.6796 H         2 RES2    0.0000
     94 H57        9.3075    5.0786    2.8283 H         2 RES2    0.0000
     95 C30        6.9653    5.2524    5.9464 C.3       2 RES2    0.0000
     96 H58        7.9130    5.1913    6.0928 H         2 RES2    0.0000
     97 H59        6.6662    4.4822    5.4568 H         2 RES2    0.0000
     98 H60        6.5135    5.2880    6.7935 H         2 RES2    0.0000
@<TRIPOS>BOND
     1    1    2 1
     2    3    4 1
     3    5    6 1
     4    7    8 1
     5    9    1 1
     6   10    3 1
     7   11    5 1
     8   12    7 1
     9   13    9 1
    10   14   13 1
    11   15   14 1
    12   16   14 1
    13   17   14 1
    14   18   17 1
    15   19   17 1
    16   20    9 1
    17   21   13 1
    18   22   21 1
    19   23   21 1
    20   24   21 1
    21   25   13 1
    22   26   25 1
    23   27   25 1
    24   28   25 1
    25   29   20 1
    26   30   29 1
    27   31   29 1
    28   32   29 1
    29   33   20 1
    30   34   33 1
    31   35   33 1
    32   36   10 1
    33   37   36 1
    34   38   37 1
    35   39   37 1
    36   40   37 1
    37   41   40 1
    38   42   40 1
    39   43   10 1
    40   44   43 1
    41   45   44 1
    42   46   44 1
    43   47   44 1
    44   48   43 1
    45   49   48 1
    46   50   48 1
    47   51   48 1
    48   52   36 1
    49   53   52 1
    50   54   52 1
    51   55   52 1
    52   56   11 1
    53   57   56 1
    54   58   57 1
    55   59   57 1
    56   60   57 1
    57   61   60 1
    58   62   60 1
    59   63   11 1
    60   64   56 1
    61   65   64 1
    62   66   64 1
    63   67   64 1
    64   68   56 1
    65   69   68 1
    66   70   68 1
    67   71   68 1
    68   72   63 1
    69   73   72 1
    70   74   72 1
    71   75   72 1
    72   76   63 1
    73   77   76 1
    74   78   76 1
    75   79   12 1
    76   80   79 1
    77   81   80 1
    78   82   80 1
    79   83   80 1
    80   84   83 1
    81   85   83 1
    82   86   12 1
    83   87   86 1
    84   88   87 1
    85   89   87 1
    86   90   87 1
    87   91   86 1
    88   92   91 1
    89   93   91 1
    90   94   91 1
    91   95   79 1
    92   96   95 1
    93   97   95 1
    94   98   95 1
    95   17   20 1
    96   33   36 1
    97   40   43 1
    98   60   63 1
    99   76   79 1
   100   83   86 1
@<TRIPOS>SUBSTRUCTURE
     1 RES1 1
     2 RES2 5

@<TRIPOS>CRYSIN
   9.9820   12.3110   14.6160  80.9400  74.7600  68.0600   2 1

