# MOL2 file generated by ConQuest
# Please check atom types

@<TRIPOS>MOLECULE
DETYUW
    44    48     1
SMALL
NO_CHARGES
****
Generated from CSD

@<TRIPOS>ATOM
      1 C1         0.1598    7.3720    9.3371 C.ar      1 RES1    0.0000
      2 C2        -0.4595    7.1491   10.6788 C.2       1 RES1    0.0000
      3 C3         0.0057    6.4819    8.2813 C.ar      1 RES1    0.0000
      4 C4         1.4084    8.8483    7.9133 C.ar      1 RES1    0.0000
      5 C5         1.1982    7.9660    6.8794 C.ar      1 RES1    0.0000
      6 C6         0.5254    6.7797    7.0326 C.ar      1 RES1    0.0000
      7 C7         0.8767    8.5428    9.1511 C.ar      1 RES1    0.0000
      8 C8        -1.7787    5.6650   12.0136 C.3       1 RES1    0.0000
      9 C9        -2.8604    4.6284   11.7989 C.3       1 RES1    0.0000
     10 C10       -3.1159    3.6244   10.7690 C.3       1 RES1    0.0000
     11 C11       -4.4035    5.1241   13.8066 C.3       1 RES1    0.0000
     12 C12       -2.8829    6.6690   12.3938 C.3       1 RES1    0.0000
     13 C13       -2.1444    3.2721    9.6831 C.3       1 RES1    0.0000
     14 C14       -3.9425    5.5310   12.3993 C.3       1 RES1    0.0000
     15 C15       -4.5680    3.4093   10.4504 C.3       1 RES1    0.0000
     16 C16       -0.7789    5.2862   13.0845 C.3       1 RES1    0.0000
     17 C17       -5.5359    4.4538   10.7595 C.3       1 RES1    0.0000
     18 C18       -5.1111    5.7196   11.4337 C.3       1 RES1    0.0000
     19 N1         1.6763    8.3370    5.5295 N.pl3     1 RES1    0.0000
     20 O1        -1.0777    5.9628   10.7595 O.3       1 RES1    0.0000
     21 O2        -0.4087    7.9551   11.5678 O.2       1 RES1    0.0000
     22 O3        -5.4672    3.2487   11.5486 O.3       1 RES1    0.0000
     23 O4         1.4958    7.5529    4.6159 O.2       1 RES1    0.0000
     24 O5         2.2108    9.4204    5.3955 O.2       1 RES1    0.0000
     25 O6        -2.7104    3.2410   12.1135 O.3       1 RES1    0.0000
     26 H1        -0.5007    5.7056    8.4112 H         1 RES1    0.0000
     27 H2         1.8858    9.6496    7.7957 H         1 RES1    0.0000
     28 H3         0.4048    6.2044    6.3186 H         1 RES1    0.0000
     29 H4         1.0021    9.1040    9.9019 H         1 RES1    0.0000
     30 H5        -4.7263    2.7593    9.7241 H         1 RES1    0.0000
     31 H6        -6.3747    4.5208   10.2165 H         1 RES1    0.0000
     32 H7        -3.6215    4.9261   14.4016 H         1 RES1    0.0000
     33 H8        -4.9895    4.3337   13.7177 H         1 RES1    0.0000
     34 H9        -4.9611    5.8459   14.1828 H         1 RES1    0.0000
     35 H10       -2.7283    7.0930   13.2254 H         1 RES1    0.0000
     36 H11       -3.0380    7.3892   11.6799 H         1 RES1    0.0000
     37 H12       -2.3203    3.8037    8.8899 H         1 RES1    0.0000
     38 H13       -2.2199    2.3539    9.5327 H         1 RES1    0.0000
     39 H14       -1.1966    3.4919    9.9566 H         1 RES1    0.0000
     40 H15       -1.2620    4.9417   13.8135 H         1 RES1    0.0000
     41 H16       -0.2140    6.0485   13.3485 H         1 RES1    0.0000
     42 H17       -0.1764    4.5364   12.7330 H         1 RES1    0.0000
     43 H18       -4.8291    6.3603   10.7362 H         1 RES1    0.0000
     44 H19       -5.9038    6.0485   11.9808 H         1 RES1    0.0000
@<TRIPOS>BOND
     1    1    2 1
     2    2   20 1
     3    3    1 ar
     4    4    5 ar
     5    5    6 ar
     6    6    3 ar
     7    7    1 ar
     8    8    9 1
     9    9   10 1
    10   10   13 1
    11   11   14 1
    12   12    8 1
    13   13   37 1
    14   14    9 1
    15   15   10 1
    16   16    8 1
    17   17   15 1
    18   18   14 1
    19   19    5 1
    20   20    8 1
    21   21    2 2
    22   22   15 1
    23   23   19 2
    24   24   19 2
    25   25    9 1
    26   26    3 1
    27   27    4 1
    28   28    6 1
    29   29    7 1
    30   30   15 1
    31   31   17 1
    32   32   11 1
    33   33   11 1
    34   34   11 1
    35   35   12 1
    36   36   12 1
    37   38   13 1
    38   39   13 1
    39   40   16 1
    40   41   16 1
    41   42   16 1
    42   43   18 1
    43   44   18 1
    44    4    7 ar
    45   10   25 1
    46   12   14 1
    47   17   18 1
    48   17   22 1
@<TRIPOS>SUBSTRUCTURE
     1 RES1 1

@<TRIPOS>CRYSIN
   7.8560   15.5890   13.7830  90.0000  97.1200  90.0000 231 1

