# MOL2 file generated by ConQuest
# Please check atom types

@<TRIPOS>MOLECULE
DEVFEP
    35    37     1
SMALL
NO_CHARGES
****
Generated from CSD

@<TRIPOS>ATOM
      1 O1         6.0185    1.8576    3.6550 O.3       1 RES1    0.0000
      2 N1         5.5695    1.8199    2.3008 N.2       1 RES1    0.0000
      3 C1         6.6693    1.6473    1.5983 C.2       1 RES1    0.0000
      4 C2         7.8402    1.5421    2.3999 C.2       1 RES1    0.0000
      5 C3         9.2819    1.3037    2.0734 C.3       1 RES1    0.0000
      6 C4        10.0073    0.9779    3.3867 C.3       1 RES1    0.0000
      7 C5        11.5057    1.3550    3.3595 C.2       1 RES1    0.0000
      8 C6        11.8402    2.0566    4.6413 C.3       1 RES1    0.0000
      9 C7        10.5077    2.2878    5.3123 C.2       1 RES1    0.0000
     10 N2         9.5326    1.7663    4.5212 N.am      1 RES1    0.0000
     11 C8         8.1322    1.7304    4.9187 C.3       1 RES1    0.0000
     12 C9         7.3588    1.6998    3.6491 C.2       1 RES1    0.0000
     13 O2         6.6726    1.5904    0.2613 O.3       1 RES1    0.0000
     14 C10        5.3789    1.7548   -0.3575 C.3       1 RES1    0.0000
     15 C11        9.9629   -0.5321    3.7147 C.2       1 RES1    0.0000
     16 O3         9.9150   -1.4060    2.8893 O.2       1 RES1    0.0000
     17 O4        10.0862   -0.6985    5.0264 O.3       1 RES1    0.0000
     18 C12       10.2800   -2.0539    5.5204 C.3       1 RES1    0.0000
     19 C13       10.8262   -1.9171    6.9073 C.3       1 RES1    0.0000
     20 O5        12.2429    1.0721    2.4482 O.2       1 RES1    0.0000
     21 O6        10.3042    2.8559    6.3725 O.2       1 RES1    0.0000
     22 H1         9.6865    2.0601    1.6625 H         1 RES1    0.0000
     23 H2         9.3909    0.5325    1.4610 H         1 RES1    0.0000
     24 H3        12.2997    2.9149    4.4549 H         1 RES1    0.0000
     25 H4        12.3504    1.4294    5.2106 H         1 RES1    0.0000
     26 H5         7.9540    2.5225    5.4553 H         1 RES1    0.0000
     27 H6         7.9410    0.9249    5.4553 H         1 RES1    0.0000
     28 H7         5.5738    1.6396   -1.3026 H         1 RES1    0.0000
     29 H8         4.8070    1.1211   -0.0144 H         1 RES1    0.0000
     30 H9         5.0404    2.6486   -0.1439 H         1 RES1    0.0000
     31 H10        9.4166   -2.4665    5.4553 H         1 RES1    0.0000
     32 H11       10.8983   -2.4945    4.9443 H         1 RES1    0.0000
     33 H12       11.6812   -1.4154    6.8731 H         1 RES1    0.0000
     34 H13       10.1881   -1.5135    7.5136 H         1 RES1    0.0000
     35 H14       11.0598   -2.8308    7.2545 H         1 RES1    0.0000
@<TRIPOS>BOND
     1    1    2 1
     2    2    3 2
     3    3    4 1
     4    4    5 1
     5    5    6 1
     6    6    7 1
     7    7    8 1
     8    8    9 1
     9    9   10 1
    10   10    6 1
    11   11   10 1
    12   12    1 1
    13   13    3 1
    14   14   13 1
    15   15    6 1
    16   16   15 2
    17   17   15 1
    18   18   17 1
    19   19   18 1
    20   20    7 2
    21   21    9 2
    22   22    5 1
    23   23    5 1
    24   24    8 1
    25   25    8 1
    26   26   11 1
    27   27   11 1
    28   28   14 1
    29   29   14 1
    30   30   14 1
    31   31   18 1
    32   32   18 1
    33   33   19 1
    34   34   19 1
    35   35   19 1
    36    4   12 2
    37   11   12 1
@<TRIPOS>SUBSTRUCTURE
     1 RES1 1

@<TRIPOS>CRYSIN
  13.0590   14.0140    7.2250  90.0000  95.0500  90.0000  14 1

