# MOL2 file generated by ConQuest
# Please check atom types

@<TRIPOS>MOLECULE
DEVWOR
    28    30     1
SMALL
NO_CHARGES
****
Generated from CSD

@<TRIPOS>ATOM
      1 O1         1.8448    1.5610    0.6101 O.2       1 RES1    0.0000
      2 O2        -1.5762    3.9725    6.5421 O.2       1 RES1    0.0000
      3 O3        -1.5758    5.9336    5.6114 O.2       1 RES1    0.0000
      4 N1         1.4122   -0.5498    1.2493 N.am      1 RES1    0.0000
      5 H1         1.9612   -0.7618    0.6142 H         1 RES1    0.0000
      6 N2        -1.2164    4.7526    5.6458 N.pl3     1 RES1    0.0000
      7 C1         1.2846    0.7849    1.3919 C.2       1 RES1    0.0000
      8 C2         0.4080    1.2212    2.5298 C.ar      1 RES1    0.0000
      9 C3        -0.5389    0.3559    3.0129 C.ar      1 RES1    0.0000
     10 C4        -0.5653   -1.0614    2.5225 C.3       1 RES1    0.0000
     11 H2        -0.9842   -1.4852    3.1753 H         1 RES1    0.0000
     12 H3        -1.1952   -1.1754    1.6449 H         1 RES1    0.0000
     13 C5         0.8412   -1.5083    2.1738 C.3       1 RES1    0.0000
     14 H4         1.5224   -1.7006    3.2065 H         1 RES1    0.0000
     15 H5         0.8109   -2.3413    1.7490 H         1 RES1    0.0000
     16 C6        -1.4999    0.7811    3.9623 C.ar      1 RES1    0.0000
     17 H6        -2.1261    0.0385    4.1851 H         1 RES1    0.0000
     18 C7        -1.4752    2.0517    4.4641 C.ar      1 RES1    0.0000
     19 H7        -2.1632    2.3817    5.1533 H         1 RES1    0.0000
     20 C8        -0.4447    2.9513    4.0748 C.ar      1 RES1    0.0000
     21 C9         0.4990    2.5546    3.0670 C.ar      1 RES1    0.0000
     22 C10       -0.3115    4.2766    4.5953 C.ar      1 RES1    0.0000
     23 C11        0.6539    5.1481    4.2028 C.ar      1 RES1    0.0000
     24 H8         0.5946    5.9253    4.5599 H         1 RES1    0.0000
     25 C12        1.5700    4.7325    3.2409 C.ar      1 RES1    0.0000
     26 H9         2.2226    5.3097    2.7901 H         1 RES1    0.0000
     27 C13        1.5096    3.4894    2.6683 C.ar      1 RES1    0.0000
     28 H10        2.2457    3.2204    1.9989 H         1 RES1    0.0000
@<TRIPOS>BOND
     1    1    7 2
     2    2    6 2
     3    3    6 2
     4    4    5 1
     5    6   22 1
     6    7    4 1
     7    8    7 1
     8    9    8 ar
     9   10    9 1
    10   11   10 1
    11   12   10 1
    12   13    4 1
    13   14   13 1
    14   15   13 1
    15   16    9 ar
    16   17   16 1
    17   18   16 ar
    18   19   18 1
    19   20   18 ar
    20   21    8 ar
    21   22   20 ar
    22   23   22 ar
    23   24   23 1
    24   25   23 ar
    25   26   25 1
    26   27   21 ar
    27   28   27 1
    28   10   13 1
    29   20   21 ar
    30   25   27 ar
@<TRIPOS>SUBSTRUCTURE
     1 RES1 1

@<TRIPOS>CRYSIN
   5.2400   19.2380   10.4720  90.0000  96.1990  90.0000  14 1

