# MOL2 file generated by ConQuest
# Please check atom types

@<TRIPOS>MOLECULE
DEWBOW
    32    34     1
SMALL
NO_CHARGES
****
Generated from CSD

@<TRIPOS>ATOM
      1 C1         1.0391    6.6029   23.6807 C.ar      1 RES1    0.0000
      2 C2         1.0749    5.7298   22.4621 C.2       1 RES1    0.0000
      3 C3         1.0594    6.4780   26.1089 C.ar      1 RES1    0.0000
      4 C4         1.1520    5.8759   24.8765 C.ar      1 RES1    0.0000
      5 H1         1.2989    4.9283   24.8321 H         1 RES1    0.0000
      6 C5         0.8269    8.0001   23.7758 C.ar      1 RES1    0.0000
      7 C6         0.8616    7.8572   26.2085 C.ar      1 RES1    0.0000
      8 H2         0.8081    8.2835   27.0668 H         1 RES1    0.0000
      9 C7         0.7505    8.5737   25.0791 C.ar      1 RES1    0.0000
     10 H3         0.6129    9.5210   25.1522 H         1 RES1    0.0000
     11 C8         1.3131    5.4209   20.0528 C.3       1 RES1    0.0000
     12 H4         2.0512    4.8078   20.0285 H         1 RES1    0.0000
     13 H5         0.4886    4.9318   19.9955 H         1 RES1    0.0000
     14 C9         1.8044    7.6107   21.0060 C.3       1 RES1    0.0000
     15 H6         2.5397    7.9010   21.5506 H         1 RES1    0.0000
     16 C10        0.7234    8.6227   21.3330 C.3       1 RES1    0.0000
     17 H7         0.9698    9.4424   20.8982 H         1 RES1    0.0000
     18 C11        1.4189    6.4197   18.9586 C.3       1 RES1    0.0000
     19 H8         0.5442    6.7126   18.6915 H         1 RES1    0.0000
     20 H9         1.8735    6.0410   18.2029 H         1 RES1    0.0000
     21 C12        2.1904    7.5524   19.5089 C.3       1 RES1    0.0000
     22 H10        3.1324    7.3967   19.4095 H         1 RES1    0.0000
     23 H11        1.9526    8.3709   19.0671 H         1 RES1    0.0000
     24 N1         1.3532    6.2442   21.2701 N.am      1 RES1    0.0000
     25 N2         1.1818    5.6570   27.3000 N.pl3     1 RES1    0.0000
     26 N3         0.6582    8.8566   22.7575 N.3       1 RES1    0.0000
     27 H12        0.6309    9.6889   23.0717 H         1 RES1    0.0000
     28 O1         1.1437    6.2104   28.3944 O.2       1 RES1    0.0000
     29 O2         0.8485    4.5128   22.5771 O.2       1 RES1    0.0000
     30 O3         1.3344    4.4392   27.1684 O.2       1 RES1    0.0000
     31 O4        -0.5485    8.2725   20.8075 O.3       1 RES1    0.0000
     32 H13       -0.5924    7.4291   20.7113 H         1 RES1    0.0000
@<TRIPOS>BOND
     1    1    2 1
     2    2   24 1
     3    3    4 ar
     4    4    1 ar
     5    5    4 1
     6    6    1 ar
     7    7    3 ar
     8    8    7 1
     9    9    6 ar
    10   10    9 1
    11   11   12 1
    12   13   11 1
    13   14   15 1
    14   16   14 1
    15   17   16 1
    16   18   11 1
    17   19   18 1
    18   20   18 1
    19   21   14 1
    20   22   21 1
    21   23   21 1
    22   24   11 1
    23   25    3 1
    24   26    6 1
    25   27   26 1
    26   28   25 2
    27   29    2 2
    28   30   25 2
    29   31   16 1
    30   32   31 1
    31    7    9 ar
    32   14   24 1
    33   16   26 1
    34   18   21 1
@<TRIPOS>SUBSTRUCTURE
     1 RES1 1

@<TRIPOS>CRYSIN
   6.5326    7.1736   24.7776  90.0000  90.0000  90.0000  19 1

