# MOL2 file generated by ConQuest
# Please check atom types

@<TRIPOS>MOLECULE
DEWMAW
    38    38     2
SMALL
NO_CHARGES
****
Generated from CSD

@<TRIPOS>ATOM
      1 N1        -0.7794    2.9587   -3.4266 N.2       1 RES1    0.0000
      2 O1        -2.1020    3.5000   -3.5438 O.3       1 RES1    0.0000
      3 C1        -2.6941    3.4088   -2.3460 C.2       1 RES1    0.0000
      4 C2        -1.8314    2.8461   -1.4260 C.2       1 RES1    0.0000
      5 C3        -0.6587    2.5804   -2.1867 C.2       1 RES1    0.0000
      6 N2        -3.9418    3.8435   -2.2685 N.3       1 RES1    0.0000
      7 C4        -2.1955    2.6587   -0.0353 C.2       1 RES1    0.0000
      8 O2        -3.2714    3.0879    0.3936 O.2       1 RES1    0.0000
      9 C5         0.6105    1.9263   -1.7716 C.3       1 RES1    0.0000
     10 N3        -1.3451    2.0205    0.7874 N.am      1 RES1    0.0000
     11 N4        -1.6529    1.8206    2.1522 N.3       1 RES1    0.0000
     12 H1        -4.3769    4.0788   -2.9980 H         1 RES1    0.0000
     13 H2        -4.3261    3.8070   -1.5020 H         1 RES1    0.0000
     14 H3        -0.5689    1.7291    0.5766 H         1 RES1    0.0000
     15 H4         0.9812    2.3527   -1.0323 H         1 RES1    0.0000
     16 H5        -2.5123    1.6288    2.1532 H         1 RES1    0.0000
     17 H6        -1.5984    2.5554    2.5806 H         1 RES1    0.0000
     18 H7         1.2232    1.9362   -2.5080 H         1 RES1    0.0000
     19 H8         0.4288    0.9768   -1.5423 H         1 RES1    0.0000
     20 O3         2.0138   -0.2364    5.4363 O.3       2 RES2    0.0000
     21 N5         3.3933   -0.6320    5.3094 N.2       2 RES2    0.0000
     22 C6         3.7057   -0.4069    4.0605 C.2       2 RES2    0.0000
     23 C7         2.6146    0.1037    3.3115 C.2       2 RES2    0.0000
     24 C8         1.5838    0.1914    4.2373 C.2       2 RES2    0.0000
     25 C9         5.1082   -0.6886    3.6469 C.3       2 RES2    0.0000
     26 C10        2.4293    0.5041    1.9187 C.2       2 RES2    0.0000
     27 O4         1.3511    0.9557    1.5216 O.2       2 RES2    0.0000
     28 N6         0.3361    0.5937    4.1645 N.3       2 RES2    0.0000
     29 N7         3.4699    0.3725    1.0762 N.am      2 RES2    0.0000
     30 N8         3.3640    0.7933   -0.2696 N.3       2 RES2    0.0000
     31 H9        -0.1863    0.6294    4.8911 H         2 RES2    0.0000
     32 H10        4.2143   -0.0349    1.2399 H         2 RES2    0.0000
     33 H11        0.0149    0.8961    3.4012 H         2 RES2    0.0000
     34 H12        5.1552   -1.2901    2.8972 H         2 RES2    0.0000
     35 H13        5.5264    0.1337    3.3669 H         2 RES2    0.0000
     36 H14        2.5471    0.5575   -0.5504 H         2 RES2    0.0000
     37 H15        3.3598    1.6869   -0.2823 H         2 RES2    0.0000
     38 H16        5.6348   -1.0226    4.3588 H         2 RES2    0.0000
@<TRIPOS>BOND
     1    1    2 1
     2    2    3 1
     3    3    4 2
     4    4    5 1
     5    5    1 2
     6    6    3 1
     7    7    4 1
     8    8    7 2
     9    9    5 1
    10   10    7 1
    11   11   10 1
    12   12    6 1
    13   13    6 1
    14   14   10 1
    15   15    9 1
    16   16   11 1
    17   17   11 1
    18   18    9 1
    19   19    9 1
    20   20   21 1
    21   21   22 2
    22   22   23 1
    23   23   24 2
    24   24   20 1
    25   25   22 1
    26   26   23 1
    27   27   26 2
    28   28   24 1
    29   29   26 1
    30   30   29 1
    31   31   28 1
    32   32   29 1
    33   33   28 1
    34   34   25 1
    35   35   25 1
    36   36   30 1
    37   37   30 1
    38   38   25 1
@<TRIPOS>SUBSTRUCTURE
     1 RES1 1
     2 RES2 20

@<TRIPOS>CRYSIN
   9.4490    7.2680   20.1890  90.0000  93.0100  90.0000  14 1

