# MOL2 file generated by ConQuest
# Please check atom types

@<TRIPOS>MOLECULE
DEWYIQ
    27    27     1
SMALL
USER_CHARGES
****
Generated from CSD

@<TRIPOS>ATOM
      1 O1         2.4754    1.1410    5.9707 O.3       1 RES1    0.0000
      2 N1         2.0873    0.4957    4.8119 N.2       1 RES1    0.0000
      3 N2         3.1076    0.6473    4.0184 N.pl3     1 RES1    1.0000
      4 C1         4.1408    1.3405    4.5333 C.2       1 RES1    0.0000
      5 H1         4.9568    1.5682    4.1033 H         1 RES1    0.0000
      6 C2         3.7499    1.6519    5.8415 C.2       1 RES1    0.0000
      7 N3         4.2507    2.2097    6.9194 N.2       1 RES1   -1.0000
      8 C3         3.0600    0.0105    2.6938 C.3       1 RES1    0.0000
      9 H2         2.1914   -0.4273    2.5729 H         1 RES1    0.0000
     10 H3         3.7744   -0.6566    2.6266 H         1 RES1    0.0000
     11 H4         3.1821    0.6915    1.9992 H         1 RES1    0.0000
     12 C4         5.4833    2.7954    6.7426 C.2       1 RES1    0.0000
     13 O2         6.0692    3.0016    5.6919 O.2       1 RES1    0.0000
     14 O3         5.9722    3.1331    7.9620 O.3       1 RES1    0.0000
     15 C5         7.3154    3.7325    8.0895 C.3       1 RES1    0.0000
     16 C6         7.3223    5.1152    7.4532 C.3       1 RES1    0.0000
     17 H5         7.2100    5.0287    6.4830 H         1 RES1    0.0000
     18 H6         8.1748    5.5591    7.6448 H         1 RES1    0.0000
     19 H7         6.5864    5.6475    7.8214 H         1 RES1    0.0000
     20 C7         8.3682    2.8013    7.5004 C.3       1 RES1    0.0000
     21 H8         8.3179    1.9291    7.9442 H         1 RES1    0.0000
     22 H9         9.2590    3.1870    7.6365 H         1 RES1    0.0000
     23 H10        8.2043    2.6888    6.5403 H         1 RES1    0.0000
     24 C8         7.4868    3.8294    9.5957 C.3       1 RES1    0.0000
     25 H11        7.4816    2.9292    9.9840 H         1 RES1    0.0000
     26 H12        6.7501    4.3528    9.9756 H         1 RES1    0.0000
     27 H13        8.3383    4.2690    9.8003 H         1 RES1    0.0000
@<TRIPOS>BOND
     1    1    2 1
     2    2    3 2
     3    3    4 1
     4    4    5 1
     5    6    1 1
     6    7    6 1
     7    8    3 1
     8    9    8 1
     9   10    8 1
    10   11    8 1
    11   12    7 1
    12   13   12 2
    13   14   12 1
    14   15   14 1
    15   16   15 1
    16   17   16 1
    17   18   16 1
    18   19   16 1
    19   20   15 1
    20   21   20 1
    21   22   20 1
    22   23   20 1
    23   24   15 1
    24   25   24 1
    25   26   24 1
    26   27   24 1
    27    4    6 2
@<TRIPOS>SUBSTRUCTURE
     1 RES1 1

@<TRIPOS>CRYSIN
   9.3261    9.2083   11.9526  90.0000  93.6544  90.0000  14 1

