# MOL2 file generated by ConQuest
# Please check atom types

@<TRIPOS>MOLECULE
DEWYUZ
    25    27     1
SMALL
NO_CHARGES
****
Generated from CSD

@<TRIPOS>ATOM
      1 O1         2.2617    0.9985   11.8813 O.3       1 RES1    0.0000
      2 O2         3.7764    0.4176   13.4135 O.2       1 RES1    0.0000
      3 O3        -0.5147    3.0991   18.1348 O.2       1 RES1    0.0000
      4 O4        -2.0817    3.0417   16.7134 O.2       1 RES1    0.0000
      5 N1        -0.9322    2.8560   17.0301 N.pl3     1 RES1    0.0000
      6 C1         1.9944    0.0254    9.7188 C.3       1 RES1    0.0000
      7 C2         3.0500    0.3453   10.8547 C.3       1 RES1    0.0000
      8 C3         4.1208    1.3206   10.3694 C.3       1 RES1    0.0000
      9 C4         3.6077    2.5495    9.6954 C.3       1 RES1    0.0000
     10 C5         2.6130    2.2364    8.5985 C.3       1 RES1    0.0000
     11 C6         1.4991    1.3177    9.0947 C.3       1 RES1    0.0000
     12 C7         2.7245   -0.8307    8.6422 C.3       1 RES1    0.0000
     13 C8         0.8838   -0.8068   10.3398 C.ar      1 RES1    0.0000
     14 C9        -0.3854   -0.3221   10.5723 C.ar      1 RES1    0.0000
     15 C10       -1.3367   -1.0813   11.2026 C.ar      1 RES1    0.0000
     16 C11       -1.0635   -2.3415   11.6114 C.ar      1 RES1    0.0000
     17 C12        0.1806   -2.8732   11.3820 C.ar      1 RES1    0.0000
     18 C13        1.1344   -2.0909   10.7454 C.ar      1 RES1    0.0000
     19 C14        2.7106    0.8904   13.1311 C.2       1 RES1    0.0000
     20 C15        1.7426    1.3870   14.1203 C.ar      1 RES1    0.0000
     21 C16        0.4131    1.6234   13.7973 C.ar      1 RES1    0.0000
     22 C17       -0.4791    2.0701   14.7459 C.ar      1 RES1    0.0000
     23 C18       -0.0088    2.3035   16.0097 C.ar      1 RES1    0.0000
     24 C19        1.2820    2.0760   16.3779 C.ar      1 RES1    0.0000
     25 C20        2.1618    1.6174   15.4153 C.ar      1 RES1    0.0000
@<TRIPOS>BOND
     1    1    7 1
     2    2   19 2
     3    3    5 2
     4    4    5 2
     5    5   23 1
     6    6    7 1
     7    7    8 1
     8    8    9 1
     9    9   10 1
    10   10   11 1
    11   11    6 1
    12   12    6 1
    13   13    6 1
    14   14   13 ar
    15   15   14 ar
    16   16   15 ar
    17   17   16 ar
    18   18   13 ar
    19   19    1 1
    20   20   19 1
    21   21   20 ar
    22   22   21 ar
    23   23   22 ar
    24   24   23 ar
    25   25   20 ar
    26   17   18 ar
    27   24   25 ar
@<TRIPOS>SUBSTRUCTURE
     1 RES1 1

@<TRIPOS>CRYSIN
  14.9500    7.4570   16.7590  90.0000 111.4100  90.0000  14 2

