# MOL2 file generated by ConQuest
# Please check atom types

@<TRIPOS>MOLECULE
DEXDUH
    74    61     2
SMALL
NO_CHARGES
****
Generated from CSD

@<TRIPOS>ATOM
      1 O1         0.7823   14.7874   16.6022 O.2       1 RES1    0.0000
      2 O2         2.6483   15.6421   23.1233 O.2       1 RES1    0.0000
      3 O3         3.6602   13.9031   13.5278 O.3       1 RES1    0.0000
      4 H1         4.0337   14.4702   14.0214 H         1 RES1    0.0000
      5 O4         4.5546   16.2494   22.3614 O.2       1 RES1    0.0000
      6 O5         1.0073    6.9133   16.8646 O.3       1 RES1    0.0000
      7 H2         0.3271    6.8380   16.3757 H         1 RES1    0.0000
      8 N1         3.4385   15.7913   22.2173 N.pl3     1 RES1    0.0000
      9 N2         2.4941   13.3499   16.2087 N.am      1 RES1    0.0000
     10 C1         1.9420   12.8971   14.9077 C.3       1 RES1    0.0000
     11 H3         0.9506   12.8007   14.9924 H         1 RES1    0.0000
     12 C2         3.6482   12.5493   16.6005 C.3       1 RES1    0.0000
     13 H4         3.7327   12.4988   17.5847 H         1 RES1    0.0000
     14 H5         4.4861   12.9158   16.2206 H         1 RES1    0.0000
     15 C3         2.5247   10.3515   16.9485 C.3       1 RES1    0.0000
     16 H6         1.7340   10.8653   17.2511 H         1 RES1    0.0000
     17 H7         3.0763   10.1464   17.7440 H         1 RES1    0.0000
     18 C4         2.0582    9.0409   16.3104 C.3       1 RES1    0.0000
     19 H8         2.8620    8.4787   16.1186 H         1 RES1    0.0000
     20 C5         1.3667    9.3431   15.0109 C.2       1 RES1    0.0000
     21 H9         0.7533    8.7052   14.6674 H         1 RES1    0.0000
     22 C6         1.5696   10.4483   14.3270 C.2       1 RES1    0.0000
     23 H10        1.0549   10.5867   13.5412 H         1 RES1    0.0000
     24 C7         2.2453   13.8846   13.8019 C.3       1 RES1    0.0000
     25 H11        1.9607   14.7973   14.0958 H         1 RES1    0.0000
     26 C8         1.5373   13.5411   12.5048 C.3       1 RES1    0.0000
     27 H12        0.5816   13.3830   12.7083 H         1 RES1    0.0000
     28 H13        1.9120   12.6911   12.1644 H         1 RES1    0.0000
     29 C9         1.6212   14.5781   11.3909 C.3       1 RES1    0.0000
     30 H14        2.5582   14.8854   11.3145 H         1 RES1    0.0000
     31 H15        1.3774   14.1432   10.5368 H         1 RES1    0.0000
     32 C10        0.7335   15.7785   11.5886 C.3       1 RES1    0.0000
     33 H16        1.0532   16.2781   12.3832 H         1 RES1    0.0000
     34 H17       -0.1837   15.4622   11.7862 H         1 RES1    0.0000
     35 C11        0.6723   16.7292   10.4178 C.3       1 RES1    0.0000
     36 H18        0.3401   16.2332    9.6295 H         1 RES1    0.0000
     37 H19        0.0119   17.4373   10.6239 H         1 RES1    0.0000
     38 C12        1.9500   17.3708   10.0630 C.3       1 RES1    0.0000
     39 H20        1.8083   17.9908    9.3172 H         1 RES1    0.0000
     40 H21        2.5979   16.6843    9.7974 H         1 RES1    0.0000
     41 H22        2.2946   17.8650   10.8364 H         1 RES1    0.0000
     42 C13        1.1581    8.2816   17.2683 C.3       1 RES1    0.0000
     43 H23        1.5452    8.3152   18.1796 H         1 RES1    0.0000
     44 H24        0.2693    8.7159   17.2978 H         1 RES1    0.0000
     45 C14        1.8451   14.2325   16.9710 C.2       1 RES1    0.0000
     46 C15        2.3445   14.5682   18.3377 C.ar      1 RES1    0.0000
     47 C16        3.5666   15.1652   18.5432 C.ar      1 RES1    0.0000
     48 H25        4.1697   15.2897   17.8205 H         1 RES1    0.0000
     49 C17        3.9073   15.5830   19.8255 C.ar      1 RES1    0.0000
     50 H26        4.7355   16.0229   19.9793 H         1 RES1    0.0000
     51 C18        3.0553   15.3618   20.8528 C.ar      1 RES1    0.0000
     52 C19        1.8485   14.7398   20.6877 C.ar      1 RES1    0.0000
     53 H27        1.2771   14.5727   21.4284 H         1 RES1    0.0000
     54 C20        1.4857   14.3586   19.4060 C.ar      1 RES1    0.0000
     55 H28        0.6411   13.9509   19.2569 H         1 RES1    0.0000
     56 C21        3.3206   11.1877   16.0034 C.3       1 RES1    0.0000
     57 H29        4.1714   10.7125   15.7786 H         1 RES1    0.0000
     58 C22        2.5622   11.5052   14.7107 C.3       1 RES1    0.0000
     59 H30        3.2339   11.5733   13.9726 H         1 RES1    0.0000
     60 H31        0.5578   13.5681   12.6467 Du        2 SUP2    0.0000
     61 H32        1.7822   12.6228   12.2281 Du        2 SUP2    0.0000
     62 C23        1.9216   14.5385   11.3846 Du        2 SUP2    0.0000
     63 H33        2.9068   14.5242   11.2677 Du        2 SUP2    0.0000
     64 H34        1.5169   14.2366   10.5325 Du        2 SUP2    0.0000
     65 C24        1.4795   15.9852   11.6629 Du        2 SUP2    0.0000
     66 H35        0.4881   15.9457   11.6990 Du        2 SUP2    0.0000
     67 H36        1.7742   16.1721   12.5872 Du        2 SUP2    0.0000
     68 C25        1.7912   17.2701   10.8767 Du        2 SUP2    0.0000
     69 H37        1.4024   18.0465   11.3527 Du        2 SUP2    0.0000
     70 H38        2.7753   17.3977   10.8470 Du        2 SUP2    0.0000
     71 C26        1.2527   17.2360    9.4531 Du        2 SUP2    0.0000
     72 H39        1.5991   18.0069    8.9559 Du        2 SUP2    0.0000
     73 H40        0.2749   17.2719    9.4744 Du        2 SUP2    0.0000
     74 H41        1.5413   16.4093    9.0154 Du        2 SUP2    0.0000
@<TRIPOS>BOND
     1    1   45 2
     2    2    8 2
     3    3    4 1
     4    5    8 2
     5    6    7 1
     6    8   51 1
     7    9   10 1
     8   10   11 1
     9   12    9 1
    10   13   12 1
    11   14   12 1
    12   15   16 1
    13   17   15 1
    14   18   15 1
    15   19   18 1
    16   20   18 1
    17   21   20 1
    18   22   20 2
    19   23   22 1
    20   24    3 1
    21   25   24 1
    22   26   24 1
    23   27   26 1
    24   28   26 1
    25   29   26 1
    26   30   29 1
    27   31   29 1
    28   32   29 1
    29   33   32 1
    30   34   32 1
    31   35   32 1
    32   36   35 1
    33   37   35 1
    34   38   35 1
    35   39   38 1
    36   40   38 1
    37   41   38 1
    38   42    6 1
    39   43   42 1
    40   44   42 1
    41   45    9 1
    42   46   45 1
    43   47   46 ar
    44   48   47 1
    45   49   47 ar
    46   50   49 1
    47   51   49 ar
    48   52   51 ar
    49   53   52 1
    50   54   46 ar
    51   55   54 1
    52   56   12 1
    53   57   56 1
    54   58   10 1
    55   59   58 1
    56   10   24 1
    57   15   56 1
    58   18   42 1
    59   22   58 1
    60   52   54 ar
    61   56   58 1
@<TRIPOS>SUBSTRUCTURE
     1 RES1 1
     2 SUP2 60

@<TRIPOS>CRYSIN
   5.6685   17.9710   21.2478  90.0000  90.0000  90.0000  19 1

