# MOL2 file generated by ConQuest
# Please check atom types

@<TRIPOS>MOLECULE
DEXJAU
    19    20     1
SMALL
NO_CHARGES
****
Generated from CSD

@<TRIPOS>ATOM
      1 C1         0.4816    6.2699    4.6333 C.ar      1 RES1    0.0000
      2 H1        -0.3654    5.9868    4.8918 H         1 RES1    0.0000
      3 C2         1.2659    7.0494    5.4689 C.ar      1 RES1    0.0000
      4 C3         2.5332    7.4862    5.1246 C.ar      1 RES1    0.0000
      5 H2         3.0323    7.9932    5.7232 H         1 RES1    0.0000
      6 C4         3.0506    7.1649    3.8871 C.ar      1 RES1    0.0000
      7 H3         3.8941    7.4574    3.6274 H         1 RES1    0.0000
      8 C5         2.2694    6.3917    3.0457 C.ar      1 RES1    0.0000
      9 C6         1.0043    5.9327    3.4117 C.ar      1 RES1    0.0000
     10 C7         0.4551    5.1103    2.2939 C.3       1 RES1    0.0000
     11 H4        -0.3709    5.4879    1.9542 H         1 RES1    0.0000
     12 H5         0.2934    4.1966    2.5778 H         1 RES1    0.0000
     13 C8         1.5464    5.1721    1.2590 C.2       1 RES1    0.0000
     14 N1         2.5574    5.9340    1.7635 N.am      1 RES1    0.0000
     15 N2         0.7240    7.4096    6.7705 N.pl3     1 RES1    0.0000
     16 O1         1.4590    7.9633    7.5811 O.2       1 RES1    0.0000
     17 O2        -0.4482    7.1489    7.0037 O.2       1 RES1    0.0000
     18 O3         1.5461    4.6466    0.1574 O.2       1 RES1    0.0000
     19 H6         3.2589    6.0944    1.2552 H         1 RES1    0.0000
@<TRIPOS>BOND
     1    1    2 1
     2    3    1 ar
     3    4    3 ar
     4    5    4 1
     5    6    4 ar
     6    7    6 1
     7    8    6 ar
     8    9    1 ar
     9   10    9 1
    10   11   10 1
    11   12   10 1
    12   13   10 1
    13   14    8 1
    14   15    3 1
    15   16   15 2
    16   17   15 2
    17   18   13 2
    18   19   14 1
    19    8    9 ar
    20   13   14 1
@<TRIPOS>SUBSTRUCTURE
     1 RES1 1

@<TRIPOS>CRYSIN
   6.1997   10.8692   11.6685  90.0000 101.8140  90.0000 231 1

