# MOL2 file generated by ConQuest
# Please check atom types

@<TRIPOS>MOLECULE
DEXQUV
    88    94     2
SMALL
USER_CHARGES
****
Generated from CSD

@<TRIPOS>ATOM
      1 N1         8.8019    5.8281    2.8721 N.pl3     1 RES1    1.0000
      2 C1         8.9615    7.1437    2.8320 C.2       1 RES1    0.0000
      3 N2        10.0982    7.4522    3.4867 N.3       1 RES1    0.0000
      4 O1        10.6189    8.6169    3.5852 O.2       1 RES1    0.0000
      5 C2         9.9489    5.1080    3.5182 C.3       1 RES1    0.0000
      6 N3         6.6673    8.7258    0.4971 N.2       1 RES1    0.0000
      7 O2         7.8266    5.1738    2.3638 O.2       1 RES1   -1.0000
      8 O3         5.3306   10.4734   -0.9236 O.3       1 RES1    0.0000
      9 H1         5.6631    9.7476   -0.7375 H         1 RES1    0.0000
     10 C3        10.7202    6.2818    4.1482 C.3       1 RES1    0.0000
     11 N4         7.0587    9.7941    1.2498 N.pl3     1 RES1    0.0000
     12 C4        10.6699    4.4094    2.4074 C.3       1 RES1    0.0000
     13 H2        11.4187    3.9285    2.7661 H         1 RES1    0.0000
     14 H3        10.9796    5.0570    1.7700 H         1 RES1    0.0000
     15 H4        10.0727    3.7947    1.9758 H         1 RES1    0.0000
     16 C5         9.4103    4.1032    4.5088 C.3       1 RES1    0.0000
     17 H5        10.1418    3.6416    4.9258 H         1 RES1    0.0000
     18 H6         8.8513    3.4703    4.0517 H         1 RES1    0.0000
     19 H7         8.8962    4.5579    5.1807 H         1 RES1    0.0000
     20 C6        12.1793    6.2716    3.9279 C.3       1 RES1    0.0000
     21 H8        12.5640    5.5072    4.3631 H         1 RES1    0.0000
     22 H9        12.5635    7.0734    4.2885 H         1 RES1    0.0000
     23 H10       12.3598    6.2262    2.9864 H         1 RES1    0.0000
     24 C7        10.4298    6.4700    5.6251 C.3       1 RES1    0.0000
     25 H11        9.4808    6.4791    5.7671 H         1 RES1    0.0000
     26 H12       10.8060    7.3025    5.9219 H         1 RES1    0.0000
     27 H13       10.8210    5.7476    6.1240 H         1 RES1    0.0000
     28 C8         8.0888    8.0464    2.1171 C.2       1 RES1    0.0000
     29 C9         7.9048    9.4198    2.2690 C.2       1 RES1    0.0000
     30 C10        8.3118   10.4292    3.1667 C.2       1 RES1    0.0000
     31 H14        8.8529   10.2160    3.8933 H         1 RES1    0.0000
     32 C11        7.9218   11.6903    2.9737 C.2       1 RES1    0.0000
     33 H15        8.1934   12.3390    3.5801 H         1 RES1    0.0000
     34 C12        7.1003   12.0872    1.8683 C.ar      1 RES1    0.0000
     35 C13        6.7139   13.4073    1.6407 C.ar      1 RES1    0.0000
     36 H16        6.9931   14.0787    2.2198 H         1 RES1    0.0000
     37 C14        5.9251   13.7181    0.5645 C.ar      1 RES1    0.0000
     38 H17        5.6953   14.6049    0.4043 H         1 RES1    0.0000
     39 C15        5.4684   12.7371   -0.2750 C.ar      1 RES1    0.0000
     40 H18        4.9196   12.9662   -0.9906 H         1 RES1    0.0000
     41 C16        5.8096   11.4193   -0.0801 C.ar      1 RES1    0.0000
     42 C17        6.6412   11.0938    1.0052 C.ar      1 RES1    0.0000
     43 C18        7.2920    7.6869    1.0234 C.2       1 RES1    0.0000
     44 H19        7.2096    6.8171    0.7047 H         1 RES1    0.0000
     45 N5        17.1321   10.8057    2.5021 N.pl3     2 RES2    1.0000
     46 C19       17.1403    9.4936    2.6277 C.2       2 RES2    0.0000
     47 O4        16.2744   11.4794    1.8465 O.2       2 RES2   -1.0000
     48 N6        18.1644    9.1783    3.4308 N.3       2 RES2    0.0000
     49 O5        18.4845    8.0147    3.8004 O.2       2 RES2    0.0000
     50 C20       18.2219   11.5259    3.2323 C.3       2 RES2    0.0000
     51 N7        14.4436    8.0396    0.6496 N.2       2 RES2    0.0000
     52 O6        12.7387    6.4258   -0.5172 O.3       2 RES2    0.0000
     53 H20       13.2079    7.0983   -0.5390 H         2 RES2    0.0000
     54 C21       18.9795   10.3294    3.8696 C.3       2 RES2    0.0000
     55 N8        15.0005    6.9191    1.1882 N.pl3     2 RES2    0.0000
     56 C22       17.5404   12.4433    4.2265 C.3       2 RES2    0.0000
     57 H21       18.2038   12.9276    4.7237 H         2 RES2    0.0000
     58 H22       17.0073   11.9205    4.8311 H         2 RES2    0.0000
     59 H23       16.9762   13.0626    3.7567 H         2 RES2    0.0000
     60 C23       18.9880   12.3367    2.2344 C.3       2 RES2    0.0000
     61 H24       19.6955   12.8097    2.6805 H         2 RES2    0.0000
     62 H25       18.3996   12.9662    1.8119 H         2 RES2    0.0000
     63 H26       19.3637   11.7549    1.5697 H         2 RES2    0.0000
     64 C24       19.0002   10.3351    5.3610 C.3       2 RES2    0.0000
     65 H27       19.5239   11.0768    5.6724 H         2 RES2    0.0000
     66 H28       19.3839    9.5151    5.6797 H         2 RES2    0.0000
     67 H29       18.1029   10.4178    5.6943 H         2 RES2    0.0000
     68 C25       20.3852   10.1366    3.3160 C.3       2 RES2    0.0000
     69 H30       20.9403   10.8715    3.5892 H         2 RES2    0.0000
     70 H31       20.3504   10.1003    2.3582 H         2 RES2    0.0000
     71 H32       20.7522    9.3166    3.6547 H         2 RES2    0.0000
     72 C26       16.1862    8.5976    1.9958 C.2       2 RES2    0.0000
     73 C27       16.0633    7.2106    2.0095 C.2       2 RES2    0.0000
     74 C28       16.7186    6.1128    2.6022 C.2       2 RES2    0.0000
     75 H33       17.4373    6.2591    3.1758 H         2 RES2    0.0000
     76 C29       16.3138    4.8574    2.3473 C.2       2 RES2    0.0000
     77 H34       16.7743    4.1519    2.7388 H         2 RES2    0.0000
     78 C30       15.2027    4.5614    1.4932 C.ar      2 RES2    0.0000
     79 C31       14.7730    3.2730    1.2292 C.ar      2 RES2    0.0000
     80 H35       15.2147    2.5517    1.6134 H         2 RES2    0.0000
     81 C32       13.7024    3.0530    0.4061 C.ar      2 RES2    0.0000
     82 H36       13.4201    2.1831    0.2367 H         2 RES2    0.0000
     83 C33       13.0456    4.1111   -0.1712 C.ar      2 RES2    0.0000
     84 H37       12.3169    3.9433   -0.7266 H         2 RES2    0.0000
     85 C34       13.4328    5.4108    0.0492 C.ar      2 RES2    0.0000
     86 C35       14.5322    5.6410    0.9069 C.ar      2 RES2    0.0000
     87 C36       15.1573    9.0490    1.1290 C.2       2 RES2    0.0000
     88 H38       15.0017    9.9427    0.9251 H         2 RES2    0.0000
@<TRIPOS>BOND
     1    1    2 2
     2    2    3 1
     3    3    4 1
     4    5    1 1
     5    6   11 1
     6    7    1 1
     7    8    9 1
     8   10    3 1
     9   11   29 1
    10   12    5 1
    11   13   12 1
    12   14   12 1
    13   15   12 1
    14   16    5 1
    15   17   16 1
    16   18   16 1
    17   19   16 1
    18   20   10 1
    19   21   20 1
    20   22   20 1
    21   23   20 1
    22   24   10 1
    23   25   24 1
    24   26   24 1
    25   27   24 1
    26   28    2 1
    27   29   28 2
    28   30   29 1
    29   31   30 1
    30   32   30 2
    31   33   32 1
    32   34   32 1
    33   35   34 ar
    34   36   35 1
    35   37   35 ar
    36   38   37 1
    37   39   37 ar
    38   40   39 1
    39   41    8 1
    40   42   11 1
    41   43    6 2
    42   44   43 1
    43   45   46 2
    44   46   48 1
    45   47   45 1
    46   48   49 1
    47   50   45 1
    48   51   55 1
    49   52   53 1
    50   54   48 1
    51   55   73 1
    52   56   50 1
    53   57   56 1
    54   58   56 1
    55   59   56 1
    56   60   50 1
    57   61   60 1
    58   62   60 1
    59   63   60 1
    60   64   54 1
    61   65   64 1
    62   66   64 1
    63   67   64 1
    64   68   54 1
    65   69   68 1
    66   70   68 1
    67   71   68 1
    68   72   46 1
    69   73   72 2
    70   74   73 1
    71   75   74 1
    72   76   74 2
    73   77   76 1
    74   78   76 1
    75   79   78 ar
    76   80   79 1
    77   81   79 ar
    78   82   81 1
    79   83   81 ar
    80   84   83 1
    81   85   52 1
    82   86   55 1
    83   87   51 2
    84   88   87 1
    85    5   10 1
    86   28   43 1
    87   34   42 ar
    88   39   41 ar
    89   41   42 ar
    90   50   54 1
    91   72   87 1
    92   78   86 ar
    93   83   85 ar
    94   85   86 ar
@<TRIPOS>SUBSTRUCTURE
     1 RES1 1
     2 RES2 45

@<TRIPOS>CRYSIN
  16.1960   11.3410   18.3050  90.0000  95.8400  90.0000 231 1

