# MOL2 file generated by ConQuest
# Please check atom types

@<TRIPOS>MOLECULE
DEXVAE
    70    72     2
SMALL
NO_CHARGES
****
Generated from CSD

@<TRIPOS>ATOM
      1 O1         2.1102    0.6515    6.8537 O.2       1 RES1    0.0000
      2 O2         2.6903    3.3969    4.7163 O.3       1 RES1    0.0000
      3 O3         2.1421    7.1158   -0.2182 O.2       1 RES1    0.0000
      4 O4         0.2973    6.0685   -0.3859 O.2       1 RES1    0.0000
      5 O5        -0.4806    4.5981    6.3191 O.2       2 RES2    0.0000
      6 O6         1.9495    6.4476    8.2145 O.3       2 RES2    0.0000
      7 O7         0.8562    9.6070   13.4454 O.2       2 RES2    0.0000
      8 O8        -0.9990    8.5858   13.2822 O.2       2 RES2    0.0000
      9 N1         3.7765    2.1721    6.7255 N.am      1 RES1    0.0000
     10 H1         4.0355    2.9116    6.3687 H         1 RES1    0.0000
     11 N2         1.3633    6.2732    0.1618 N.pl3     1 RES1    0.0000
     12 N3        -0.2293    6.8206    6.5452 N.am      2 RES2    0.0000
     13 H2         0.2895    7.4498    6.8200 H         2 RES2    0.0000
     14 N4         0.1240    8.8191   12.8931 N.pl3     2 RES2    0.0000
     15 C1         2.6231    1.6506    6.3418 C.2       1 RES1    0.0000
     16 C2         1.9030    2.3243    5.2101 C.3       1 RES1    0.0000
     17 H3         1.7375    1.6847    4.4995 H         1 RES1    0.0000
     18 H4         1.0475    2.6611    5.5196 H         1 RES1    0.0000
     19 C3         2.2915    4.0501    3.5854 C.ar      1 RES1    0.0000
     20 C4         1.0960    3.8377    2.9456 C.ar      1 RES1    0.0000
     21 H5         0.4929    3.2091    3.2712 H         1 RES1    0.0000
     22 C5         0.8020    4.5679    1.8156 C.ar      1 RES1    0.0000
     23 H6        -0.0031    4.4345    1.3699 H         1 RES1    0.0000
     24 C6         1.6997    5.4914    1.3520 C.ar      1 RES1    0.0000
     25 C7         2.8958    5.7200    1.9825 C.ar      1 RES1    0.0000
     26 H7         3.4912    6.3573    1.6583 H         1 RES1    0.0000
     27 C8         3.1948    4.9818    3.1051 C.ar      1 RES1    0.0000
     28 H8         4.0058    5.1101    3.5409 H         1 RES1    0.0000
     29 C9         4.6218    1.5444    7.7229 C.3       1 RES1    0.0000
     30 H9         5.5171    1.4615    7.3594 H         1 RES1    0.0000
     31 H10        4.2894    0.6483    7.8881 H         1 RES1    0.0000
     32 C10        4.7065    2.2725    9.0401 C.ar      1 RES1    0.0000
     33 C11        5.8220    2.1241    9.8345 C.ar      1 RES1    0.0000
     34 H11        6.5373    1.6117    9.5331 H         1 RES1    0.0000
     35 C12        5.8875    2.7293   11.0746 C.ar      1 RES1    0.0000
     36 H12        6.6420    2.6122   11.6052 H         1 RES1    0.0000
     37 C13        4.8550    3.4964   11.5249 C.ar      1 RES1    0.0000
     38 H13        4.9070    3.9097   12.3556 H         1 RES1    0.0000
     39 C14        3.7459    3.6542   10.7483 C.ar      1 RES1    0.0000
     40 H14        3.0356    4.1717   11.0525 H         1 RES1    0.0000
     41 C15        3.6760    3.0460    9.5117 C.ar      1 RES1    0.0000
     42 H15        2.9166    3.1623    8.9883 H         1 RES1    0.0000
     43 C16        0.1195    5.5679    6.7703 C.2       2 RES2    0.0000
     44 C17        1.3334    5.3095    7.6174 C.3       2 RES2    0.0000
     45 H16        1.0823    4.6957    8.3261 H         2 RES2    0.0000
     46 H17        1.9948    4.8610    7.0684 H         2 RES2    0.0000
     47 C18        1.4471    6.9399    9.3899 C.ar      2 RES2    0.0000
     48 C19        2.2447    7.8769   10.0089 C.ar      2 RES2    0.0000
     49 H18        3.0722    8.0957    9.6452 H         2 RES2    0.0000
     50 C20        1.8183    8.4872   11.1604 C.ar      2 RES2    0.0000
     51 H19        2.3497    9.1251   11.5785 H         2 RES2    0.0000
     52 C21        0.6025    8.1462   11.6864 C.ar      2 RES2    0.0000
     53 C22       -0.1815    7.1830   11.1091 C.ar      2 RES2    0.0000
     54 H20       -0.9919    6.9419   11.4958 H         2 RES2    0.0000
     55 C23        0.2473    6.5681    9.9366 C.ar      2 RES2    0.0000
     56 H21       -0.2731    5.9137    9.5304 H         2 RES2    0.0000
     57 C24       -1.4495    7.1793    5.8547 C.3       2 RES2    0.0000
     58 H22       -1.9805    7.7393    6.4435 H         2 RES2    0.0000
     59 H23       -1.9561    6.3685    5.6905 H         2 RES2    0.0000
     60 C25       -1.2698    7.8994    4.5492 C.ar      2 RES2    0.0000
     61 C26       -0.1508    7.7612    3.7547 C.ar      2 RES2    0.0000
     62 H24        0.5490    7.2176    4.0375 H         2 RES2    0.0000
     63 C27       -0.0589    8.4216    2.5411 C.ar      2 RES2    0.0000
     64 H25        0.7051    8.3310    2.0188 H         2 RES2    0.0000
     65 C28       -1.0938    9.2101    2.1085 C.ar      2 RES2    0.0000
     66 H26       -1.0357    9.6429    1.2871 H         2 RES2    0.0000
     67 C29       -2.2080    9.3599    2.8797 C.ar      2 RES2    0.0000
     68 H27       -2.9078    9.8981    2.5902 H         2 RES2    0.0000
     69 C30       -2.2920    8.7116    4.0888 C.ar      2 RES2    0.0000
     70 H28       -3.0541    8.8208    4.6117 H         2 RES2    0.0000
@<TRIPOS>BOND
     1    1   15 2
     2    2   16 1
     3    3   11 2
     4    4   11 2
     5    5   43 2
     6    6   44 1
     7    7   14 2
     8    8   14 2
     9    9   10 1
    10   11   24 1
    11   12   13 1
    12   14   52 1
    13   15    9 1
    14   16   15 1
    15   17   16 1
    16   18   16 1
    17   19    2 1
    18   20   19 ar
    19   21   20 1
    20   22   20 ar
    21   23   22 1
    22   24   22 ar
    23   25   24 ar
    24   26   25 1
    25   27   19 ar
    26   28   27 1
    27   29    9 1
    28   30   29 1
    29   31   29 1
    30   32   29 1
    31   33   32 ar
    32   34   33 1
    33   35   33 ar
    34   36   35 1
    35   37   35 ar
    36   38   37 1
    37   39   37 ar
    38   40   39 1
    39   41   32 ar
    40   42   41 1
    41   43   12 1
    42   44   43 1
    43   45   44 1
    44   46   44 1
    45   47    6 1
    46   48   47 ar
    47   49   48 1
    48   50   48 ar
    49   51   50 1
    50   52   50 ar
    51   53   52 ar
    52   54   53 1
    53   55   47 ar
    54   56   55 1
    55   57   12 1
    56   58   57 1
    57   59   57 1
    58   60   57 1
    59   61   60 ar
    60   62   61 1
    61   63   61 ar
    62   64   63 1
    63   65   63 ar
    64   66   65 1
    65   67   65 ar
    66   68   67 1
    67   69   60 ar
    68   70   69 1
    69   25   27 ar
    70   39   41 ar
    71   53   55 ar
    72   67   69 ar
@<TRIPOS>SUBSTRUCTURE
     1 RES1 1
     2 RES2 5

@<TRIPOS>CRYSIN
   5.8210    8.9600   26.9090  96.3970  92.1160  98.0700   2 1

