# MOL2 file generated by ConQuest
# Please check atom types

@<TRIPOS>MOLECULE
DEYCES
    34    37     1
SMALL
NO_CHARGES
****
Generated from CSD

@<TRIPOS>ATOM
      1 O1         1.1874    3.3549    5.8946 O.3       1 RES1    0.0000
      2 O2         0.2271    3.7497    3.7837 O.3       1 RES1    0.0000
      3 N1         0.1659    3.2138    6.8995 N.2       1 RES1    0.0000
      4 N2        -0.4366    1.9686    5.1039 N.3       1 RES1    0.0000
      5 C1        -0.7269    2.4492    6.3824 C.2       1 RES1    0.0000
      6 C2        -1.4626    2.1726    4.0598 C.3       1 RES1    0.0000
      7 H1        -2.3765    2.0498    4.4201 H         1 RES1    0.0000
      8 H2        -1.3275    1.5603    3.2937 H         1 RES1    0.0000
      9 C3        -1.2077    3.6207    3.6680 C.3       1 RES1    0.0000
     10 H3        -1.5076    3.7971    2.7411 H         1 RES1    0.0000
     11 H4        -1.6722    4.2431    4.2819 H         1 RES1    0.0000
     12 C4         0.7190    2.7759    4.6825 C.3       1 RES1    0.0000
     13 C5        -1.9562    2.0821    7.1044 C.ar      1 RES1    0.0000
     14 C6        -2.4690    0.7874    7.0132 C.ar      1 RES1    0.0000
     15 H5        -2.0327    0.1365    6.4761 H         1 RES1    0.0000
     16 C7        -3.6213    0.4580    7.7132 C.ar      1 RES1    0.0000
     17 H6        -3.9617   -0.4281    7.6740 H         1 RES1    0.0000
     18 C8        -4.2764    1.4153    8.4682 C.ar      1 RES1    0.0000
     19 H7        -5.0718    1.1874    8.9348 H         1 RES1    0.0000
     20 C9        -3.7763    2.7034    8.5455 C.ar      1 RES1    0.0000
     21 H8        -4.2341    3.3593    9.0581 H         1 RES1    0.0000
     22 C10       -2.6082    3.0399    7.8763 C.ar      1 RES1    0.0000
     23 H9        -2.2552    3.9192    7.9444 H         1 RES1    0.0000
     24 C11        1.8345    1.9877    4.0299 C.ar      1 RES1    0.0000
     25 C12        2.7624    1.3081    4.8174 C.ar      1 RES1    0.0000
     26 H10        2.7511    1.4131    5.7615 H         1 RES1    0.0000
     27 C13        3.7018    0.4791    4.2236 C.ar      1 RES1    0.0000
     28 H11        4.3300    0.0149    4.7643 H         1 RES1    0.0000
     29 C14        3.7307    0.3231    2.8519 C.ar      1 RES1    0.0000
     30 H12        4.3675   -0.2567    2.4509 H         1 RES1    0.0000
     31 C15        2.8270    1.0159    2.0631 C.ar      1 RES1    0.0000
     32 H13        2.8535    0.9216    1.1181 H         1 RES1    0.0000
     33 C16        1.8825    1.8478    2.6495 C.ar      1 RES1    0.0000
     34 H14        1.2668    2.3230    2.1040 H         1 RES1    0.0000
@<TRIPOS>BOND
     1    1    3 1
     2    2    9 1
     3    3    5 2
     4    4    5 1
     5    5   13 1
     6    6    4 1
     7    7    6 1
     8    8    6 1
     9    9    6 1
    10   10    9 1
    11   11    9 1
    12   12    1 1
    13   13   14 ar
    14   14   15 1
    15   16   14 ar
    16   17   16 1
    17   18   16 ar
    18   19   18 1
    19   20   18 ar
    20   21   20 1
    21   22   13 ar
    22   23   22 1
    23   24   12 1
    24   25   24 ar
    25   26   25 1
    26   27   25 ar
    27   28   27 1
    28   29   27 ar
    29   30   29 1
    30   31   29 ar
    31   32   31 1
    32   33   24 ar
    33   34   33 1
    34    2   12 1
    35    4   12 1
    36   20   22 ar
    37   31   33 ar
@<TRIPOS>SUBSTRUCTURE
     1 RES1 1

@<TRIPOS>CRYSIN
   8.9000    9.5626   15.9864  90.0000  98.4476  90.0000  14 1

