# MOL2 file generated by ConQuest
# Please check atom types

@<TRIPOS>MOLECULE
DEYRUV
    36    37     1
SMALL
NO_CHARGES
****
Generated from CSD

@<TRIPOS>ATOM
      1 C1         1.3855    7.8183   -1.3955 C.ar      1 RES1    0.0000
      2 C2         2.1789    8.3886   -0.4246 C.ar      1 RES1    0.0000
      3 H1         2.3944    9.2921   -0.4633 H         1 RES1    0.0000
      4 C3         2.6498    7.6007    0.6052 C.ar      1 RES1    0.0000
      5 H2         3.1859    7.9778    1.2647 H         1 RES1    0.0000
      6 C4         2.3294    6.2419    0.6683 C.ar      1 RES1    0.0000
      7 C5         1.5405    5.6989   -0.3430 C.ar      1 RES1    0.0000
      8 H3         1.3313    4.7925   -0.3215 H         1 RES1    0.0000
      9 C6         1.0637    6.4796   -1.3733 C.ar      1 RES1    0.0000
     10 H4         0.5346    6.1083   -2.0425 H         1 RES1    0.0000
     11 C7         2.8717    3.3188    2.9080 C.ar      1 RES1    0.0000
     12 C8         4.1933    2.9058    3.1673 C.ar      1 RES1    0.0000
     13 H5         4.8820    3.1759    2.6028 H         1 RES1    0.0000
     14 C9         4.4711    2.0986    4.2585 C.ar      1 RES1    0.0000
     15 C10        3.4078    1.6806    5.0798 C.ar      1 RES1    0.0000
     16 H6         3.5823    1.1333    5.8107 H         1 RES1    0.0000
     17 C11        2.0839    2.0778    4.8105 C.ar      1 RES1    0.0000
     18 C12        1.8335    2.8785    3.7285 C.ar      1 RES1    0.0000
     19 H7         0.9592    3.1314    3.5389 H         1 RES1    0.0000
     20 C13        2.7649    5.3980    1.8394 C.2       1 RES1    0.0000
     21 C14        3.3689    6.1054    3.0073 C.3       1 RES1    0.0000
     22 H8         3.6181    5.4633    3.6760 H         1 RES1    0.0000
     23 H9         2.7295    6.7195    3.3758 H         1 RES1    0.0000
     24 H10        4.1485    6.5873    2.7210 H         1 RES1    0.0000
     25 C15        0.9634    1.5966    5.6921 C.3       1 RES1    0.0000
     26 H11        1.3231    1.0593    6.4017 H         1 RES1    0.0000
     27 H12        0.3507    1.0716    5.1724 H         1 RES1    0.0000
     28 H13        0.5022    2.3514    6.0637 H         1 RES1    0.0000
     29 C16        5.8874    1.6634    4.5614 C.3       1 RES1    0.0000
     30 H14        5.8917    1.1118    5.3474 H         1 RES1    0.0000
     31 H15        6.4347    2.4376    4.7115 H         1 RES1    0.0000
     32 H16        6.2354    1.1649    3.8179 H         1 RES1    0.0000
     33 N1         0.8654    8.6794   -2.4841 N.pl3     1 RES1    0.0000
     34 N2         2.5512    4.1483    1.7768 N.2       1 RES1    0.0000
     35 O1         1.1655    9.8594   -2.4888 O.2       1 RES1    0.0000
     36 O2         0.1271    8.1681   -3.3098 O.2       1 RES1    0.0000
@<TRIPOS>BOND
     1    1    2 ar
     2    2    3 1
     3    4    2 ar
     4    5    4 1
     5    6    4 ar
     6    7    6 ar
     7    8    7 1
     8    9    1 ar
     9   10    9 1
    10   11   12 ar
    11   12   13 1
    12   14   12 ar
    13   15   14 ar
    14   16   15 1
    15   17   15 ar
    16   18   11 ar
    17   19   18 1
    18   20    6 1
    19   21   20 1
    20   22   21 1
    21   23   21 1
    22   24   21 1
    23   25   17 1
    24   26   25 1
    25   27   25 1
    26   28   25 1
    27   29   14 1
    28   30   29 1
    29   31   29 1
    30   32   29 1
    31   33    1 1
    32   34   11 1
    33   35   33 2
    34   36   33 2
    35    7    9 ar
    36   17   18 ar
    37   20   34 2
@<TRIPOS>SUBSTRUCTURE
     1 RES1 1

@<TRIPOS>CRYSIN
   8.5850    7.1820   23.7860  90.0000  96.3500  90.0000  14 1

