# MOL2 file generated by ConQuest
# Please check atom types

@<TRIPOS>MOLECULE
DEYYOX
    67    71     1
SMALL
NO_CHARGES
****
Generated from CSD

@<TRIPOS>ATOM
      1 O1        -2.0840    0.4066   -2.7335 O.2       1 RES1    0.0000
      2 O2        -0.5743    5.4882    1.5603 O.3       1 RES1    0.0000
      3 O3        -0.8931    3.6508    3.7402 O.3       1 RES1    0.0000
      4 O4        -1.4745   -2.0546    0.0820 O.2       1 RES1    0.0000
      5 O5        -3.5550   -0.2485   -1.2992 O.2       1 RES1    0.0000
      6 O6         1.2812    7.1384    0.6554 O.3       1 RES1    0.0000
      7 O7         2.1205    6.0735   -1.1045 O.2       1 RES1    0.0000
      8 O8        -2.6183    3.0816    5.0616 O.2       1 RES1    0.0000
      9 O9        -3.1390   -2.7190    1.3067 O.2       1 RES1    0.0000
     10 O10       -2.7216    5.6408    2.2592 O.2       1 RES1    0.0000
     11 N1        -2.7516    0.5767   -1.7227 N.pl3     1 RES1    0.0000
     12 N2        -2.2607   -1.9125    1.0155 N.pl3     1 RES1    0.0000
     13 N3         1.5107    5.0272    3.4235 N.3       1 RES1    0.0000
     14 C1        -2.5714    1.8206   -0.9557 C.ar      1 RES1    0.0000
     15 C2        -1.4648    2.6091   -1.2295 C.ar      1 RES1    0.0000
     16 H1        -0.8785    2.3947   -1.9444 H         1 RES1    0.0000
     17 C3        -1.2361    3.7209   -0.4335 C.ar      1 RES1    0.0000
     18 H2        -0.4712    4.2654   -0.5832 H         1 RES1    0.0000
     19 C4        -2.1310    4.0388    0.5863 C.ar      1 RES1    0.0000
     20 C5        -1.8762    5.1519    1.5473 C.2       1 RES1    0.0000
     21 C6        -0.1352    6.4361    2.5604 C.3       1 RES1    0.0000
     22 H3        -0.8041    7.1615    2.7214 H         1 RES1    0.0000
     23 C7         0.2970    5.7392    3.8512 C.3       1 RES1    0.0000
     24 H4         0.5711    6.4448    4.5027 H         1 RES1    0.0000
     25 C8        -0.7296    4.8569    4.5301 C.3       1 RES1    0.0000
     26 H5        -0.4258    4.6254    5.4437 H         1 RES1    0.0000
     27 H6        -1.5933    5.3358    4.6009 H         1 RES1    0.0000
     28 C9        -1.8797    2.8444    4.1369 C.2       1 RES1    0.0000
     29 C10       -1.9517    1.6085    3.3011 C.ar      1 RES1    0.0000
     30 C11       -3.0569    0.7775    3.4637 C.ar      1 RES1    0.0000
     31 H7        -3.7397    1.0125    4.0808 H         1 RES1    0.0000
     32 C12       -3.1609   -0.3918    2.7244 C.ar      1 RES1    0.0000
     33 H8        -3.9049   -0.9739    2.8316 H         1 RES1    0.0000
     34 C13       -2.1512   -0.6875    1.8268 C.ar      1 RES1    0.0000
     35 C14       -3.4936    2.1282    0.0308 C.ar      1 RES1    0.0000
     36 H9        -4.2533    1.5782    0.1810 H         1 RES1    0.0000
     37 C15       -3.2727    3.2619    0.7885 C.ar      1 RES1    0.0000
     38 H10       -3.9029    3.5165    1.4525 H         1 RES1    0.0000
     39 C16        2.3145    4.3792    4.4829 C.3       1 RES1    0.0000
     40 H11        1.6816    3.8283    5.0270 H         1 RES1    0.0000
     41 C17        2.9686    5.3708    5.4417 C.ar      1 RES1    0.0000
     42 C18        4.2720    5.8395    5.2577 C.ar      1 RES1    0.0000
     43 H12        4.7893    5.5190    4.5291 H         1 RES1    0.0000
     44 C19        4.8186    6.7729    6.1329 C.ar      1 RES1    0.0000
     45 H13        5.7090    7.0780    6.0013 H         1 RES1    0.0000
     46 C20        4.0758    7.2618    7.1947 C.ar      1 RES1    0.0000
     47 H14        4.4478    7.9137    7.7774 H         1 RES1    0.0000
     48 C21        2.7868    6.7958    7.4019 C.ar      1 RES1    0.0000
     49 H15        2.2762    7.1198    8.1335 H         1 RES1    0.0000
     50 C22        2.2415    5.8501    6.5355 C.ar      1 RES1    0.0000
     51 H16        1.3623    5.5255    6.6904 H         1 RES1    0.0000
     52 C23        3.2954    3.4062    3.8351 C.3       1 RES1    0.0000
     53 H17        2.8018    2.7579    3.2901 H         1 RES1    0.0000
     54 H18        3.7951    2.9315    4.5326 H         1 RES1    0.0000
     55 H19        3.9195    3.9022    3.2662 H         1 RES1    0.0000
     56 C24        2.2332    5.8945    2.4820 C.3       1 RES1    0.0000
     57 H20        3.0400    6.3033    2.9101 H         1 RES1    0.0000
     58 C25        1.2083    6.9738    2.0800 C.3       1 RES1    0.0000
     59 H21        1.4188    7.8366    2.5387 H         1 RES1    0.0000
     60 C26        2.0044    6.1359    0.0885 C.2       1 RES1    0.0000
     61 C27        2.5886    5.2342    1.1459 C.3       1 RES1    0.0000
     62 H22        3.5704    5.1622    1.0409 H         1 RES1    0.0000
     63 H23        2.1954    4.3265    1.0887 H         1 RES1    0.0000
     64 C28       -1.0375    0.1189    1.6541 C.ar      1 RES1    0.0000
     65 H24       -0.3558   -0.1221    1.0375 H         1 RES1    0.0000
     66 C29       -0.9377    1.2828    2.3989 C.ar      1 RES1    0.0000
     67 H25       -0.1857    1.8547    2.2962 H         1 RES1    0.0000
@<TRIPOS>BOND
     1    1   11 2
     2    2   20 1
     3    3   25 1
     4    4   12 2
     5    5   11 2
     6    6   58 1
     7    7   60 2
     8    8   28 2
     9    9   12 2
    10   10   20 2
    11   11   14 1
    12   12   34 1
    13   13   23 1
    14   14   15 ar
    15   15   16 1
    16   17   15 ar
    17   18   17 1
    18   19   17 ar
    19   20   19 1
    20   21    2 1
    21   22   21 1
    22   23   21 1
    23   24   23 1
    24   25   23 1
    25   26   25 1
    26   27   25 1
    27   28    3 1
    28   29   28 1
    29   30   29 ar
    30   31   30 1
    31   32   30 ar
    32   33   32 1
    33   34   32 ar
    34   35   14 ar
    35   36   35 1
    36   37   19 ar
    37   38   37 1
    38   39   13 1
    39   40   39 1
    40   41   39 1
    41   42   41 ar
    42   43   42 1
    43   44   42 ar
    44   45   44 1
    45   46   44 ar
    46   47   46 1
    47   48   46 ar
    48   49   48 1
    49   50   41 ar
    50   51   50 1
    51   52   39 1
    52   53   52 1
    53   54   52 1
    54   55   52 1
    55   56   13 1
    56   57   56 1
    57   58   21 1
    58   59   58 1
    59   60    6 1
    60   61   56 1
    61   62   61 1
    62   63   61 1
    63   64   34 ar
    64   65   64 1
    65   66   29 ar
    66   67   66 1
    67   35   37 ar
    68   48   50 ar
    69   56   58 1
    70   60   61 1
    71   64   66 ar
@<TRIPOS>SUBSTRUCTURE
     1 RES1 1

@<TRIPOS>CRYSIN
   9.4026   32.1434    9.1405  90.0000 110.9000  90.0000  14 1

