# MOL2 file generated by ConQuest
# Please check atom types

@<TRIPOS>MOLECULE
DEZTEK
    77    81     1
SMALL
NO_CHARGES
****
Generated from CSD

@<TRIPOS>ATOM
      1 O1        11.7012    7.4450    4.5664 O.3       1 RES1    0.0000
      2 O2        10.9230    5.5083    6.6797 O.2       1 RES1    0.0000
      3 N1         7.8464    5.8901    4.0385 N.3       1 RES1    0.0000
      4 N2         9.1674    3.3136    3.9924 N.3       1 RES1    0.0000
      5 O3        12.6346    5.6174    3.7120 O.2       1 RES1    0.0000
      6 O4         8.3873    5.6587    8.1662 O.3       1 RES1    0.0000
      7 O5         8.4966    3.4374    8.1271 O.2       1 RES1    0.0000
      8 C1        10.3498    4.1346    3.7278 C.3       1 RES1    0.0000
      9 H1        10.4575    4.2215    2.7676 H         1 RES1    0.0000
     10 H2        11.1307    3.6709    4.0686 H         1 RES1    0.0000
     11 C2        10.3118    5.5422    4.3433 C.3       1 RES1    0.0000
     12 C3         8.7524    4.6446    6.0546 C.3       1 RES1    0.0000
     13 C4         9.3432    1.9796    3.3874 C.3       1 RES1    0.0000
     14 H3        10.2270    1.6449    3.6466 H         1 RES1    0.0000
     15 C5         9.3188    2.1078    1.8747 C.ar      1 RES1    0.0000
     16 C6         8.9057    3.2531    5.4328 C.3       1 RES1    0.0000
     17 H4         9.6364    2.7880    5.8695 H         1 RES1    0.0000
     18 H5         8.0944    2.7441    5.5873 H         1 RES1    0.0000
     19 C7         8.5279    4.4898    7.5550 C.2       1 RES1    0.0000
     20 C8         5.9014    3.8309    4.7080 C.ar      1 RES1    0.0000
     21 H6         6.4148    3.6685    3.9497 H         1 RES1    0.0000
     22 C9        10.0794    5.3241    5.8234 C.2       1 RES1    0.0000
     23 C10        9.3852    6.8128    2.3625 C.ar      1 RES1    0.0000
     24 C11        9.1723    6.4900    3.8270 C.3       1 RES1    0.0000
     25 H7         9.2147    7.3263    4.3353 H         1 RES1    0.0000
     26 C12        9.0688    5.8872    1.3797 C.ar      1 RES1    0.0000
     27 H8         8.7082    5.0656    1.6254 H         1 RES1    0.0000
     28 C13        7.6110    5.5393    5.4539 C.3       1 RES1    0.0000
     29 H9         7.5685    6.3702    5.9717 H         1 RES1    0.0000
     30 C14       11.6865    6.1967    4.1479 C.2       1 RES1    0.0000
     31 C15        6.2900    4.8185    5.6095 C.ar      1 RES1    0.0000
     32 C16        6.8006    6.8305    3.6099 C.3       1 RES1    0.0000
     33 H10        5.9372    6.4341    3.7498 H         1 RES1    0.0000
     34 H11        6.8681    7.6393    4.1221 H         1 RES1    0.0000
     35 H12        6.9130    7.0311    2.6779 H         1 RES1    0.0000
     36 C17        8.1383    2.3643    1.1958 C.ar      1 RES1    0.0000
     37 H13        7.3483    2.4755    1.6740 H         1 RES1    0.0000
     38 C18        9.8031    7.3788   -0.2955 C.ar      1 RES1    0.0000
     39 C19       10.1243    8.3030    0.6314 C.ar      1 RES1    0.0000
     40 H14       10.4790    9.1229    0.3738 H         1 RES1    0.0000
     41 C20        5.4796    5.0676    6.7049 C.ar      1 RES1    0.0000
     42 H15        5.7096    5.7448    7.2987 H         1 RES1    0.0000
     43 C21        8.3082    0.9773    3.8639 C.3       1 RES1    0.0000
     44 H16        8.4662    0.1286    3.4426 H         1 RES1    0.0000
     45 H17        8.3737    0.8776    4.8167 H         1 RES1    0.0000
     46 H18        7.4302    1.2894    3.6343 H         1 RES1    0.0000
     47 C22        9.2797    6.1613    0.0432 C.ar      1 RES1    0.0000
     48 H19        9.0713    5.5345   -0.6109 H         1 RES1    0.0000
     49 N3        10.0208    7.6899   -1.7501 N.pl3     1 RES1    0.0000
     50 C23        4.0237    3.3357    6.0762 C.ar      1 RES1    0.0000
     51 C24        4.7492    3.0866    4.9358 C.ar      1 RES1    0.0000
     52 H20        4.4769    2.4342    4.3320 H         1 RES1    0.0000
     53 C25        9.9212    8.0171    1.9784 C.ar      1 RES1    0.0000
     54 H21       10.1491    8.6475    2.6232 H         1 RES1    0.0000
     55 C26        4.3342    4.3262    6.9332 C.ar      1 RES1    0.0000
     56 H22        3.7890    4.5084    7.6645 H         1 RES1    0.0000
     57 C27       12.9959    8.1085    4.4821 C.3       1 RES1    0.0000
     58 H23       12.9155    9.0091    4.8053 H         1 RES1    0.0000
     59 H24       13.6353    7.6325    5.0168 H         1 RES1    0.0000
     60 H25       13.2897    8.1220    3.5681 H         1 RES1    0.0000
     61 C28       10.4524    1.9560    1.1254 C.ar      1 RES1    0.0000
     62 H26       11.2591    1.7760    1.5510 H         1 RES1    0.0000
     63 C29        8.2232    5.6130    9.6074 C.3       1 RES1    0.0000
     64 H27        8.1303    6.5058    9.9471 H         1 RES1    0.0000
     65 H28        7.4377    5.1048    9.8239 H         1 RES1    0.0000
     66 H29        8.9922    5.1976   10.0041 H         1 RES1    0.0000
     67 C30       10.4221    2.0665   -0.2617 C.ar      1 RES1    0.0000
     68 H30       11.2055    1.9769   -0.7544 H         1 RES1    0.0000
     69 C31        8.1207    2.4542   -0.1680 C.ar      1 RES1    0.0000
     70 H31        7.3176    2.6211   -0.6078 H         1 RES1    0.0000
     71 C32        9.2543    2.3053   -0.8859 C.ar      1 RES1    0.0000
     72 H32        9.2282    2.3670   -1.8127 H         1 RES1    0.0000
     73 N4         2.8247    2.4999    6.3210 N.pl3     1 RES1    0.0000
     74 O6         2.2145    2.6738    7.3798 O.2       1 RES1    0.0000
     75 O7         2.5425    1.6450    5.5000 O.2       1 RES1    0.0000
     76 O8        10.5285    8.7305   -2.0142 O.2       1 RES1    0.0000
     77 O9         9.6810    6.8703   -2.5421 O.2       1 RES1    0.0000
@<TRIPOS>BOND
     1    1   30 1
     2    2   22 2
     3    3   24 1
     4    4    8 1
     5    5   30 2
     6    6   19 1
     7    7   19 2
     8    8    9 1
     9   10    8 1
    10   11    8 1
    11   12   16 1
    12   13    4 1
    13   14   13 1
    14   15   13 1
    15   16    4 1
    16   17   16 1
    17   18   16 1
    18   19   12 1
    19   20   21 1
    20   22   11 1
    21   23   24 1
    22   24   11 1
    23   25   24 1
    24   26   23 ar
    25   27   26 1
    26   28    3 1
    27   29   28 1
    28   30   11 1
    29   31   20 ar
    30   32    3 1
    31   33   32 1
    32   34   32 1
    33   35   32 1
    34   36   15 ar
    35   37   36 1
    36   38   39 ar
    37   39   40 1
    38   41   31 ar
    39   42   41 1
    40   43   13 1
    41   44   43 1
    42   45   43 1
    43   46   43 1
    44   47   26 ar
    45   48   47 1
    46   49   38 1
    47   50   51 ar
    48   51   20 ar
    49   52   51 1
    50   53   23 ar
    51   54   53 1
    52   55   41 ar
    53   56   55 1
    54   57    1 1
    55   58   57 1
    56   59   57 1
    57   60   57 1
    58   61   15 ar
    59   62   61 1
    60   63    6 1
    61   64   63 1
    62   65   63 1
    63   66   63 1
    64   67   61 ar
    65   68   67 1
    66   69   36 ar
    67   70   69 1
    68   71   67 ar
    69   72   71 1
    70   73   50 1
    71   74   73 2
    72   75   73 2
    73   76   49 2
    74   77   49 2
    75   12   22 1
    76   12   28 1
    77   28   31 1
    78   38   47 ar
    79   39   53 ar
    80   50   55 ar
    81   69   71 ar
@<TRIPOS>SUBSTRUCTURE
     1 RES1 1

@<TRIPOS>CRYSIN
   9.7640   14.7400   24.0070  90.0000  90.0000  90.0000  19 1

