# MOL2 file generated by ConQuest
# Please check atom types

@<TRIPOS>MOLECULE
DEZVOT
    53    54     1
SMALL
NO_CHARGES
****
Generated from CSD

@<TRIPOS>ATOM
      1 O1         1.4808    2.6548    9.2247 O.3       1 RES1    0.0000
      2 O2         1.1851    1.3015    7.4726 O.2       1 RES1    0.0000
      3 O3        -2.3300   -1.4516   13.1247 O.2       1 RES1    0.0000
      4 O4        -2.7519   -2.7049   11.4595 O.2       1 RES1    0.0000
      5 O5        -1.9563    5.9617    6.9338 O.2       1 RES1    0.0000
      6 O6         5.2060    5.8547    6.7208 O.3       1 RES1    0.0000
      7 O7         4.8368    5.0648    4.6660 O.2       1 RES1    0.0000
      8 N1        -2.2218   -1.7430   11.9553 N.pl3     1 RES1    0.0000
      9 C1         2.4200    3.4359    8.5005 C.ar      1 RES1    0.0000
     10 C2         1.9578    4.5821    7.8701 C.ar      1 RES1    0.0000
     11 C3         2.9062    5.4071    7.2415 C.ar      1 RES1    0.0000
     12 C4         4.2278    4.9963    7.2719 C.ar      1 RES1    0.0000
     13 C5         4.6777    3.8352    7.8701 C.ar      1 RES1    0.0000
     14 C6         3.7403    3.0269    8.5220 C.ar      1 RES1    0.0000
     15 C7         0.9728    1.5789    8.6109 C.2       1 RES1    0.0000
     16 C8         0.1167    0.7530    9.5216 C.ar      1 RES1    0.0000
     17 C9        -0.0236    1.0417   10.8609 C.ar      1 RES1    0.0000
     18 C10       -0.8013    0.2168   11.6669 C.ar      1 RES1    0.0000
     19 C11       -1.4051   -0.8697   11.0980 C.ar      1 RES1    0.0000
     20 C12       -1.2849   -1.1743    9.7705 C.ar      1 RES1    0.0000
     21 C13       -0.5169   -0.3432    8.9783 C.ar      1 RES1    0.0000
     22 C14        0.4864    4.9182    7.8345 C.3       1 RES1    0.0000
     23 C15       -0.1687    4.4785    6.5268 C.3       1 RES1    0.0000
     24 C16       -1.5239    5.0604    6.2838 C.2       1 RES1    0.0000
     25 C17       -2.2945    4.4777    5.1341 C.3       1 RES1    0.0000
     26 C18        2.5255    6.7025    6.5742 C.3       1 RES1    0.0000
     27 C19        5.4614    5.7713    5.3890 C.2       1 RES1    0.0000
     28 C20        6.5743    6.6726    5.0038 C.3       1 RES1    0.0000
     29 C21        6.1316    3.4517    7.8089 C.3       1 RES1    0.0000
     30 C22        4.1343    1.7342    9.1897 C.3       1 RES1    0.0000
     31 H1         0.3863    1.8439   11.2382 H         1 RES1    0.0000
     32 H2        -0.9031    0.2817   12.6289 H         1 RES1    0.0000
     33 H3        -1.7116   -1.9106    9.4248 H         1 RES1    0.0000
     34 H4        -0.4692   -0.5073    8.1072 H         1 RES1    0.0000
     35 H5         0.3807    5.8933    7.9926 H         1 RES1    0.0000
     36 H6         0.0171    4.4566    8.5793 H         1 RES1    0.0000
     37 H7         0.3905    4.7919    5.7505 H         1 RES1    0.0000
     38 H8        -0.1975    3.4798    6.4972 H         1 RES1    0.0000
     39 H9        -1.8842    3.7773    4.7470 H         1 RES1    0.0000
     40 H10       -3.1449    4.3092    5.4048 H         1 RES1    0.0000
     41 H11       -2.5797    5.0534    4.6758 H         1 RES1    0.0000
     42 H12        3.2256    7.2826    6.5248 H         1 RES1    0.0000
     43 H13        1.7184    7.1316    6.8330 H         1 RES1    0.0000
     44 H14        2.2324    6.5919    5.7623 H         1 RES1    0.0000
     45 H15        6.4188    7.6959    5.0907 H         1 RES1    0.0000
     46 H16        6.7442    6.4146    4.2294 H         1 RES1    0.0000
     47 H17        7.3009    6.4515    5.6438 H         1 RES1    0.0000
     48 H18        6.3204    2.7119    7.2755 H         1 RES1    0.0000
     49 H19        6.6300    4.0696    7.6449 H         1 RES1    0.0000
     50 H20        6.4823    3.1823    8.7926 H         1 RES1    0.0000
     51 H21        4.1647    1.0347    8.5813 H         1 RES1    0.0000
     52 H22        4.9483    1.8053    9.5314 H         1 RES1    0.0000
     53 H23        3.4822    1.4095    9.6816 H         1 RES1    0.0000
@<TRIPOS>BOND
     1    1    9 1
     2    2   15 2
     3    3    8 2
     4    4    8 2
     5    5   24 2
     6    6   12 1
     7    7   27 2
     8    8   19 1
     9    9   10 ar
    10   10   11 ar
    11   11   12 ar
    12   12   13 ar
    13   13   14 ar
    14   14    9 ar
    15   15    1 1
    16   16   15 1
    17   17   16 ar
    18   18   17 ar
    19   19   18 ar
    20   20   19 ar
    21   21   16 ar
    22   22   10 1
    23   23   22 1
    24   24   23 1
    25   25   24 1
    26   26   11 1
    27   27    6 1
    28   28   27 1
    29   29   13 1
    30   30   14 1
    31   31   17 1
    32   32   18 1
    33   33   20 1
    34   34   21 1
    35   35   22 1
    36   36   22 1
    37   37   23 1
    38   38   23 1
    39   39   25 1
    40   40   25 1
    41   41   25 1
    42   42   26 1
    43   43   26 1
    44   44   26 1
    45   45   28 1
    46   46   28 1
    47   47   28 1
    48   48   29 1
    49   49   29 1
    50   50   29 1
    51   51   30 1
    52   52   30 1
    53   53   30 1
    54   20   21 ar
@<TRIPOS>SUBSTRUCTURE
     1 RES1 1

@<TRIPOS>CRYSIN
  12.1860    8.7763   20.4128  90.0000 104.5930  90.0000  14 1

