# MOL2 file generated by ConQuest
# Please check atom types

@<TRIPOS>MOLECULE
DHBFZO
    24    25     1
SMALL
NO_CHARGES
****
Generated from CSD

@<TRIPOS>ATOM
      1 O1         0.3818   12.7426    2.2829 O.3       1 RES1    0.0000
      2 O2        -2.6798   11.7156    6.7783 O.3       1 RES1    0.0000
      3 N1         1.2163   11.6380    2.4990 N.2       1 RES1    0.0000
      4 N2        -0.5782   12.8215    3.2765 N.2       1 RES1    0.0000
      5 N3        -2.0930   12.1269    5.5698 N.2       1 RES1    0.0000
      6 C1         0.7848   11.0844    3.5884 C.2       1 RES1    0.0000
      7 C2        -0.3394   11.8178    4.0679 C.2       1 RES1    0.0000
      8 C3        -1.0415   11.4414    5.2810 C.2       1 RES1    0.0000
      9 C4        -0.4215   10.3381    6.0689 C.3       1 RES1    0.0000
     10 C5         0.2627    9.2530    5.1966 C.3       1 RES1    0.0000
     11 C6         1.3307    9.8867    4.2758 C.3       1 RES1    0.0000
     12 C7         0.9506    8.2687    6.1267 C.3       1 RES1    0.0000
     13 C8        -0.7814    8.5351    4.3452 C.3       1 RES1    0.0000
     14 H1        -3.3662   12.2744    6.8973 H         1 RES1    0.0000
     15 H2        -1.0349    9.9074    6.7008 H         1 RES1    0.0000
     16 H3         0.2210   10.7352    6.7471 H         1 RES1    0.0000
     17 H4         1.6166    9.2090    3.5699 H         1 RES1    0.0000
     18 H5         2.0404   10.1015    4.8986 H         1 RES1    0.0000
     19 H6         1.6272    8.7046    6.6777 H         1 RES1    0.0000
     20 H7         0.3490    7.8251    6.7240 H         1 RES1    0.0000
     21 H8         1.3845    7.5147    5.6264 H         1 RES1    0.0000
     22 H9        -1.2114    9.1185    3.6508 H         1 RES1    0.0000
     23 H10       -0.3957    7.7863    3.8010 H         1 RES1    0.0000
     24 H11       -1.4580    8.1096    4.9563 H         1 RES1    0.0000
@<TRIPOS>BOND
     1    1    3 1
     2    2    5 1
     3    3    6 2
     4    4    1 1
     5    5    8 2
     6    6    7 1
     7    7    4 2
     8    8    7 1
     9    9    8 1
    10   10    9 1
    11   11    6 1
    12   12   10 1
    13   13   10 1
    14   14    2 1
    15   15    9 1
    16   16    9 1
    17   17   11 1
    18   18   11 1
    19   19   12 1
    20   20   12 1
    21   21   12 1
    22   22   13 1
    23   23   13 1
    24   24   13 1
    25   10   11 1
@<TRIPOS>SUBSTRUCTURE
     1 RES1 1

@<TRIPOS>CRYSIN
   6.0480   12.9340   11.5650  90.0000  92.5900  90.0000 231 1

