# MOL2 file generated by ConQuest
# Please check atom types

@<TRIPOS>MOLECULE
DIBFOK
    42    43     1
SMALL
NO_CHARGES
****
Generated from CSD

@<TRIPOS>ATOM
      1 O1         1.3275   10.5379    3.8212 O.2       1 RES1    0.0000
      2 O2         5.4764   16.1854    5.0178 O.2       1 RES1    0.0000
      3 O3         5.8346   15.1135    6.8609 O.2       1 RES1    0.0000
      4 O4         2.2319    3.5757    2.2967 O.2       1 RES1    0.0000
      5 O5         0.6513    4.4291    1.0975 O.2       1 RES1    0.0000
      6 N1         3.3657    9.6761    3.3159 N.am      1 RES1    0.0000
      7 H1         4.2251    9.8543    3.2444 H         1 RES1    0.0000
      8 N2         5.3678   15.1941    5.7300 N.pl3     1 RES1    0.0000
      9 N3         1.6251    4.5304    1.8548 N.pl3     1 RES1    0.0000
     10 C1         2.5651   10.6527    3.7910 C.2       1 RES1    0.0000
     11 C2         3.2458   11.8784    4.2706 C.ar      1 RES1    0.0000
     12 C3         3.7391   12.8208    3.3723 C.ar      1 RES1    0.0000
     13 C4         4.4224   13.9464    3.8578 C.ar      1 RES1    0.0000
     14 H2         4.7511   14.6105    3.2648 H         1 RES1    0.0000
     15 C5         4.6054   14.0612    5.2329 C.ar      1 RES1    0.0000
     16 C6         4.0849   13.1614    6.1283 C.ar      1 RES1    0.0000
     17 H3         4.2022   13.2823    7.0644 H         1 RES1    0.0000
     18 C7         3.3793   12.0615    5.6341 C.ar      1 RES1    0.0000
     19 C8         2.9234    8.3698    2.9159 C.ar      1 RES1    0.0000
     20 C9         3.4000    7.2845    3.6311 C.ar      1 RES1    0.0000
     21 C10        3.0012    5.9990    3.2677 C.ar      1 RES1    0.0000
     22 H4         3.3283    5.2348    3.7270 H         1 RES1    0.0000
     23 C11        2.1012    5.8745    2.2007 C.ar      1 RES1    0.0000
     24 C12        1.6222    6.9549    1.5088 C.ar      1 RES1    0.0000
     25 H5         0.9843    6.8304    0.8169 H         1 RES1    0.0000
     26 C13        2.0686    8.2355    1.8228 C.ar      1 RES1    0.0000
     27 C14        3.5866   12.6597    1.8897 C.3       1 RES1    0.0000
     28 H6         4.0484   11.8454    1.5989 H         1 RES1    0.0000
     29 H7         3.9767   13.4361    1.4332 H         1 RES1    0.0000
     30 H8         2.6351   12.5938    1.6629 H         1 RES1    0.0000
     31 C15        2.7650   11.0812    6.6225 C.3       1 RES1    0.0000
     32 H9         1.7983   11.2326    6.6778 H         1 RES1    0.0000
     33 H10        3.1657   11.2143    7.5092 H         1 RES1    0.0000
     34 H11        2.9362   10.1632    6.3231 H         1 RES1    0.0000
     35 C16        4.3488    7.4579    4.8027 C.3       1 RES1    0.0000
     36 H12        5.1459    7.9462    4.5090 H         1 RES1    0.0000
     37 H13        4.6124    6.5764    5.1428 H         1 RES1    0.0000
     38 H14        3.9011    7.9621    5.5149 H         1 RES1    0.0000
     39 C17        1.6456    9.3892    0.9681 C.3       1 RES1    0.0000
     40 H15        1.0798    9.9935    1.4914 H         1 RES1    0.0000
     41 H16        1.1410    9.0559    0.1948 H         1 RES1    0.0000
     42 H17        2.4389    9.8726    0.6541 H         1 RES1    0.0000
@<TRIPOS>BOND
     1    1   10 2
     2    2    8 2
     3    3    8 2
     4    4    9 2
     5    5    9 2
     6    6    7 1
     7    8   15 1
     8    9   23 1
     9   10    6 1
    10   11   10 1
    11   12   11 ar
    12   13   12 ar
    13   14   13 1
    14   15   13 ar
    15   16   15 ar
    16   17   16 1
    17   18   11 ar
    18   19    6 1
    19   20   19 ar
    20   21   20 ar
    21   22   21 1
    22   23   21 ar
    23   24   23 ar
    24   25   24 1
    25   26   19 ar
    26   27   12 1
    27   28   27 1
    28   29   27 1
    29   30   27 1
    30   31   18 1
    31   32   31 1
    32   33   31 1
    33   34   31 1
    34   35   20 1
    35   36   35 1
    36   37   35 1
    37   38   35 1
    38   39   26 1
    39   40   39 1
    40   41   39 1
    41   42   39 1
    42   16   18 ar
    43   24   26 ar
@<TRIPOS>SUBSTRUCTURE
     1 RES1 1

@<TRIPOS>CRYSIN
   4.6340   12.2080   29.0980  90.0000  92.4330  90.0000 231 1

