# MOL2 file generated by ConQuest
# Please check atom types

@<TRIPOS>MOLECULE
DIBFUQ
    46    49     1
SMALL
NO_CHARGES
****
Generated from CSD

@<TRIPOS>ATOM
      1 N1         4.5258    3.1029    3.0149 N.am      1 RES1    0.0000
      2 H1         4.3042    3.6577    2.3958 H         1 RES1    0.0000
      3 N2         4.6447    4.6150    8.4265 N.pl3     1 RES1    0.0000
      4 O1         5.2296    1.0007    3.4930 O.2       1 RES1    0.0000
      5 O2         5.7047    4.9648    8.9321 O.2       1 RES1    0.0000
      6 O3         3.6109    4.4804    9.0723 O.2       1 RES1    0.0000
      7 C1         4.8259    1.8178    2.6744 C.2       1 RES1    0.0000
      8 C2         4.6498    1.4741    1.2168 C.ar      1 RES1    0.0000
      9 C3         3.3505    1.2593    0.7112 C.ar      1 RES1    0.0000
     10 C4         2.1699    1.3428    1.5221 C.ar      1 RES1    0.0000
     11 H2         2.2546    1.5146    2.4319 H         1 RES1    0.0000
     12 C5         0.9316    1.1734    0.9855 C.ar      1 RES1    0.0000
     13 H3         0.1796    1.2495    1.5272 H         1 RES1    0.0000
     14 C6         0.7809    0.8825   -0.3964 C.ar      1 RES1    0.0000
     15 H4        -0.0678    0.7671   -0.7550 H         1 RES1    0.0000
     16 C7         1.8684    0.7708   -1.1919 C.ar      1 RES1    0.0000
     17 H5         1.7515    0.5830   -2.0956 H         1 RES1    0.0000
     18 C8         3.1913    0.9353   -0.6776 C.ar      1 RES1    0.0000
     19 C9         4.3144    0.7990   -1.4842 C.ar      1 RES1    0.0000
     20 H6         4.2043    0.5953   -2.3846 H         1 RES1    0.0000
     21 C10        5.6051    0.9611   -0.9726 C.ar      1 RES1    0.0000
     22 C11        6.7553    0.7843   -1.7981 C.ar      1 RES1    0.0000
     23 H7         6.6469    0.5437   -2.6899 H         1 RES1    0.0000
     24 C12        8.0020    0.9647   -1.2985 C.ar      1 RES1    0.0000
     25 H8         8.7422    0.8236   -1.8437 H         1 RES1    0.0000
     26 C13        8.1866    1.3636    0.0447 C.ar      1 RES1    0.0000
     27 H9         9.0471    1.5134    0.3638 H         1 RES1    0.0000
     28 C14        7.1212    1.5318    0.8788 C.ar      1 RES1    0.0000
     29 H10        7.2634    1.7810    1.7637 H         1 RES1    0.0000
     30 C15        5.7796    1.3268    0.4016 C.ar      1 RES1    0.0000
     31 C16        4.5701    3.5570    4.3736 C.ar      1 RES1    0.0000
     32 C17        5.8050    3.6883    5.0186 C.ar      1 RES1    0.0000
     33 C18        5.8152    4.0676    6.3463 C.ar      1 RES1    0.0000
     34 H11        6.6198    4.1658    6.8012 H         1 RES1    0.0000
     35 C19        4.6227    4.2984    6.9887 C.ar      1 RES1    0.0000
     36 C20        3.4014    4.2124    6.3566 C.ar      1 RES1    0.0000
     37 H12        2.6171    4.3941    6.8201 H         1 RES1    0.0000
     38 C21        3.3605    3.8504    5.0194 C.ar      1 RES1    0.0000
     39 C22        2.0411    3.7485    4.3220 C.3       1 RES1    0.0000
     40 H13        1.7566    2.8316    4.3091 H         1 RES1    0.0000
     41 H14        2.1292    4.0676    3.4208 H         1 RES1    0.0000
     42 H15        1.3907    4.2787    4.7872 H         1 RES1    0.0000
     43 C23        7.1042    3.4318    4.3082 C.3       1 RES1    0.0000
     44 H16        7.8173    3.8712    4.7761 H         1 RES1    0.0000
     45 H17        7.0517    3.7718    3.4122 H         1 RES1    0.0000
     46 H18        7.2736    2.4867    4.2816 H         1 RES1    0.0000
@<TRIPOS>BOND
     1    1    2 1
     2    3    5 2
     3    4    7 2
     4    6    3 2
     5    7    1 1
     6    8    7 1
     7    9    8 ar
     8   10    9 ar
     9   11   10 1
    10   12   10 ar
    11   13   12 1
    12   14   12 ar
    13   15   14 1
    14   16   14 ar
    15   17   16 1
    16   18    9 ar
    17   19   18 ar
    18   20   19 1
    19   21   19 ar
    20   22   21 ar
    21   23   22 1
    22   24   22 ar
    23   25   24 1
    24   26   24 ar
    25   27   26 1
    26   28   26 ar
    27   29   28 1
    28   30    8 ar
    29   31    1 1
    30   32   31 ar
    31   33   32 ar
    32   34   33 1
    33   35    3 1
    34   36   35 ar
    35   37   36 1
    36   38   31 ar
    37   39   38 1
    38   40   39 1
    39   41   39 1
    40   42   39 1
    41   43   32 1
    42   44   43 1
    43   45   43 1
    44   46   43 1
    45   16   18 ar
    46   21   30 ar
    47   28   30 ar
    48   33   35 ar
    49   36   38 ar
@<TRIPOS>SUBSTRUCTURE
     1 RES1 1

@<TRIPOS>CRYSIN
  16.9390   12.2740    8.5993  90.0000  90.0000  90.0000  33 1

