# MOL2 file generated by ConQuest
# Please check atom types

@<TRIPOS>MOLECULE
DIBFEA
    40    41     1
SMALL
NO_CHARGES
****
Generated from CSD

@<TRIPOS>ATOM
      1 N1        -5.9245    2.6543    6.0127 N.am      1 RES1    0.0000
      2 H1        -6.1584    3.4751    6.1172 H         1 RES1    0.0000
      3 N2        -0.4021    1.8787    5.2810 N.pl3     1 RES1    0.0000
      4 O1        -6.6838    0.5289    5.9925 O.2       1 RES1    0.0000
      5 O2         0.1717    0.9732    5.8860 O.2       1 RES1    0.0000
      6 O3         0.1749    2.6745    4.5465 O.2       1 RES1    0.0000
      7 C1        -6.8972    1.7339    6.0227 C.2       1 RES1    0.0000
      8 C2        -4.5374    2.3913    5.8438 C.ar      1 RES1    0.0000
      9 C3        -3.8267    1.6012    6.7601 C.ar      1 RES1    0.0000
     10 C4        -2.4625    1.4060    6.5318 C.ar      1 RES1    0.0000
     11 H2        -1.9672    0.8598    7.0975 H         1 RES1    0.0000
     12 C5        -1.8570    2.0263    5.4642 C.ar      1 RES1    0.0000
     13 C6        -2.5471    2.8086    4.5741 C.ar      1 RES1    0.0000
     14 H3        -2.1017    3.2193    3.8673 H         1 RES1    0.0000
     15 C7        -3.9097    2.9822    4.7356 C.ar      1 RES1    0.0000
     16 C8        -8.3064    2.2744    6.0503 C.ar      1 RES1    0.0000
     17 C9        -9.1173    1.9893    4.9392 C.ar      1 RES1    0.0000
     18 C10      -10.4154    2.4918    4.9101 C.ar      1 RES1    0.0000
     19 H4       -10.9669    2.3163    4.1814 H         1 RES1    0.0000
     20 C11      -10.8785    3.2472    5.9573 C.ar      1 RES1    0.0000
     21 H5       -11.7395    3.5948    5.9238 H         1 RES1    0.0000
     22 C12      -10.0979    3.4953    7.0437 C.ar      1 RES1    0.0000
     23 H6       -10.4436    3.9887    7.7535 H         1 RES1    0.0000
     24 C13       -8.7902    3.0231    7.1121 C.ar      1 RES1    0.0000
     25 C14       -4.4502    0.9934    7.9803 C.3       1 RES1    0.0000
     26 H7        -5.1931    1.5315    8.2625 H         1 RES1    0.0000
     27 H8        -3.8006    0.9526    8.6857 H         1 RES1    0.0000
     28 H9        -4.7569    0.1067    7.7767 H         1 RES1    0.0000
     29 C15       -4.6875    3.7987    3.7335 C.3       1 RES1    0.0000
     30 H10       -5.0118    4.5974    4.1567 H         1 RES1    0.0000
     31 H11       -5.4307    3.2842    3.4091 H         1 RES1    0.0000
     32 H12       -4.1164    4.0343    3.0004 H         1 RES1    0.0000
     33 C16       -8.6419    1.1387    3.7931 C.3       1 RES1    0.0000
     34 H13       -8.6598    0.2145    4.0534 H         1 RES1    0.0000
     35 H14       -7.7445    1.3882    3.5604 H         1 RES1    0.0000
     36 H15       -9.2178    1.2699    3.0368 H         1 RES1    0.0000
     37 C17       -7.9538    3.3164    8.3338 C.3       1 RES1    0.0000
     38 H16       -7.4377    2.5398    8.5621 H         1 RES1    0.0000
     39 H17       -8.5291    3.5458    9.0668 H         1 RES1    0.0000
     40 H18       -7.3629    4.0502    8.1476 H         1 RES1    0.0000
@<TRIPOS>BOND
     1    1    2 1
     2    3    5 2
     3    4    7 2
     4    6    3 2
     5    7    1 1
     6    8    1 1
     7    9    8 ar
     8   10    9 ar
     9   11   10 1
    10   12    3 1
    11   13   12 ar
    12   14   13 1
    13   15    8 ar
    14   16    7 1
    15   17   16 ar
    16   18   17 ar
    17   19   18 1
    18   20   18 ar
    19   21   20 1
    20   22   20 ar
    21   23   22 1
    22   24   16 ar
    23   25    9 1
    24   26   25 1
    25   27   25 1
    26   28   25 1
    27   29   15 1
    28   30   29 1
    29   31   29 1
    30   32   29 1
    31   33   17 1
    32   34   33 1
    33   35   33 1
    34   36   33 1
    35   37   24 1
    36   38   37 1
    37   39   37 1
    38   40   37 1
    39   10   12 ar
    40   13   15 ar
    41   22   24 ar
@<TRIPOS>SUBSTRUCTURE
     1 RES1 1

@<TRIPOS>CRYSIN
  22.1450    4.8085   14.6170  90.0000  95.7250  90.0000  14 1

