# MOL2 file generated by ConQuest
# Please check atom types

@<TRIPOS>MOLECULE
DIBKUX
    50    37     2
SMALL
NO_CHARGES
****
Generated from CSD

@<TRIPOS>ATOM
      1 C1         2.8262    5.4586    6.8886 C.ar      1 RES1    0.0000
      2 C2         1.6533    6.1676    7.0935 C.ar      1 RES1    0.0000
      3 H1         1.3968    6.4310    7.9586 H         1 RES1    0.0000
      4 C3         0.8710    6.4785    6.0022 C.ar      1 RES1    0.0000
      5 C4         1.1966    6.0975    4.7137 C.ar      1 RES1    0.0000
      6 H2         0.6454    6.3078    3.9822 H         1 RES1    0.0000
      7 C5         2.3714    5.3931    4.5559 C.ar      1 RES1    0.0000
      8 C6         3.1893    5.0640    5.6058 C.ar      1 RES1    0.0000
      9 H3         3.9821    4.5799    5.4608 H         1 RES1    0.0000
     10 C7         3.7708    5.1142    7.9900 C.2       1 RES1    0.0000
     11 C8         4.2038    5.2285   10.3204 C.3       1 RES1    0.0000
     12 H4         4.7620    4.4342   10.1251 H         1 RES1    0.0000
     13 C9         5.0647    6.3840   10.4383 C.1       1 RES1    0.0000
     14 C10        5.7735    7.3227   10.5185 C.1       1 RES1    0.0000
     15 H5         6.3385    8.0716   10.5822 H         1 RES1    0.0000
     16 C11        3.3547    4.9410   11.5718 C.3       1 RES1    0.0000
     17 C12        2.6996    3.6098   11.3956 C.2       1 RES1    0.0000
     18 H6         3.2498    2.8482   11.4178 H         1 RES1    0.0000
     19 C13        1.4418    3.4293   11.2117 C.2       1 RES1    0.0000
     20 H7         0.8605    4.1679   11.1826 H         1 RES1    0.0000
     21 H8         1.1020    2.5595   11.1078 H         1 RES1    0.0000
     22 C14        2.4282    6.0698   11.9026 C.3       1 RES1    0.0000
     23 H9         1.8769    6.2726   11.1316 H         1 RES1    0.0000
     24 H10        2.9466    6.8530   12.1455 H         1 RES1    0.0000
     25 H11        1.8612    5.8144   12.6478 H         1 RES1    0.0000
     26 C15        4.4072    4.7806   12.7537 C.3       1 RES1    0.0000
     27 H12        3.9446    4.5147   13.5650 H         1 RES1    0.0000
     28 H13        4.8581    5.6268   12.9033 H         1 RES1    0.0000
     29 H14        5.0594    4.1037   12.5176 H         1 RES1    0.0000
     30 N1        -0.3531    7.2763    6.2043 N.pl3     1 RES1    0.0000
     31 N2         2.7850    5.0040    3.1904 N.pl3     1 RES1    0.0000
     32 O1        -0.5228    7.7889    7.2881 O.2       1 RES1    0.0000
     33 O2        -1.1255    7.3886    5.2675 O.2       1 RES1    0.0000
     34 O3         2.0464    5.2934    2.2668 O.2       1 RES1    0.0000
     35 O4         3.8463    4.4234    3.0648 O.2       1 RES1    0.0000
     36 O5         4.8376    4.6033    7.8030 O.2       1 RES1    0.0000
     37 O6         3.2960    5.4577    9.1884 O.3       1 RES1    0.0000
     38 C16        2.2098    4.0042   11.0698 Du        2 SUP2    0.0000
     39 H15        1.7108    4.3094   10.3328 Du        2 SUP2    0.0000
     40 C17        1.8779    2.8716   11.5479 Du        2 SUP2    0.0000
     41 H16        2.3448    2.5180   12.2833 Du        2 SUP2    0.0000
     42 H17        1.1694    2.3881   11.1641 Du        2 SUP2    0.0000
     43 C18        2.6702    6.2684   12.0024 Du        2 SUP2    0.0000
     44 H18        2.0513    6.0929   12.7294 Du        2 SUP2    0.0000
     45 H19        2.1829    6.6405   11.2489 Du        2 SUP2    0.0000
     46 H20        3.3428    6.9010   12.2958 Du        2 SUP2    0.0000
     47 C19        4.1551    4.3432   12.6591 Du        2 SUP2    0.0000
     48 H21        4.6447    3.5798   12.3155 Du        2 SUP2    0.0000
     49 H22        3.5645    4.0548   13.3722 Du        2 SUP2    0.0000
     50 H23        4.7785    5.0019   13.0003 Du        2 SUP2    0.0000
@<TRIPOS>BOND
     1    1    2 ar
     2    2    3 1
     3    4    2 ar
     4    5    4 ar
     5    6    5 1
     6    7    5 ar
     7    8    1 ar
     8    9    8 1
     9   10    1 1
    10   11   12 1
    11   13   11 1
    12   14   13 3
    13   15   14 1
    14   16   11 1
    15   17   16 1
    16   18   17 1
    17   19   17 2
    18   20   19 1
    19   21   19 1
    20   22   16 1
    21   23   22 1
    22   24   22 1
    23   25   22 1
    24   26   16 1
    25   27   26 1
    26   28   26 1
    27   29   26 1
    28   30    4 1
    29   31    7 1
    30   32   30 2
    31   33   30 2
    32   34   31 2
    33   35   31 2
    34   36   10 2
    35   37   10 1
    36    7    8 ar
    37   11   37 1
@<TRIPOS>SUBSTRUCTURE
     1 RES1 1
     2 SUP2 38

@<TRIPOS>CRYSIN
   6.2389    9.5497   26.2692  90.0000  90.0000  90.0000  19 1

