# MOL2 file generated by ConQuest
# Please check atom types

@<TRIPOS>MOLECULE
DIBLUY
    32    34     2
SMALL
NO_CHARGES
****
Generated from CSD

@<TRIPOS>ATOM
      1 C1         0.3007    1.1801    4.7456 C.2       1 RES1    0.0000
      2 C2         0.4781    2.0847    3.6771 C.2       1 RES1    0.0000
      3 C3         1.7907    5.0945    2.5283 C.2       1 RES1    0.0000
      4 C4         1.1870    3.3422    3.5495 C.2       1 RES1    0.0000
      5 N1        -0.5049    0.2227    4.4288 N.2       1 RES1    0.0000
      6 N2        -0.2398    1.6433    2.6708 N.2       1 RES1    0.0000
      7 N3         0.8775    1.1742    6.0795 N.pl3     1 RES1    0.0000
      8 N4         2.3238    5.1685    3.7212 N.2       1 RES1    0.0000
      9 N5         1.9146    3.9983    4.3853 N.2       1 RES1    0.0000
     10 N6         1.8480    5.9668    1.5309 N.3       1 RES1    0.0000
     11 H1         2.3209    6.7134    1.6660 H         1 RES1    0.0000
     12 H2         1.5325    5.7421    0.7125 H         1 RES1    0.0000
     13 O1        -0.8532    0.4896    3.1295 O.3       1 RES1    0.0000
     14 O2         0.3184    0.5372    6.9403 O.2       1 RES1    0.0000
     15 O3         1.8908    1.8191    6.2296 O.2       1 RES1    0.0000
     16 O4         1.0524    3.9712    2.3467 O.3       1 RES1    0.0000
     17 C5         1.7179    7.8519    9.5584 C.2       2 RES2    0.0000
     18 C6         3.0107    7.6808    9.0358 C.2       2 RES2    0.0000
     19 C7         4.2725    4.8289    7.4007 C.2       2 RES2    0.0000
     20 C8         3.7474    6.5040    8.6001 C.2       2 RES2    0.0000
     21 N7         1.4708    9.0889    9.8322 N.2       2 RES2    0.0000
     22 N8         3.5844    8.8477    8.9964 N.2       2 RES2    0.0000
     23 N9         0.7422    6.8172    9.8789 N.pl3     2 RES2    0.0000
     24 N10        5.1892    4.9293    8.3244 N.2       2 RES2    0.0000
     25 N11        4.8311    6.0454    9.1018 N.2       2 RES2    0.0000
     26 N12        4.1957    3.9613    6.4030 N.3       2 RES2    0.0000
     27 H3         4.7708    3.2642    6.4015 H         2 RES2    0.0000
     28 H4         3.4212    3.9712    5.9387 H         2 RES2    0.0000
     29 O5         2.6372    9.7338    9.4822 O.3       2 RES2    0.0000
     30 O6        -0.3410    7.1733   10.3027 O.2       2 RES2    0.0000
     31 O7         1.1317    5.6720    9.7259 O.2       2 RES2    0.0000
     32 O8         3.3138    5.7936    7.5071 O.3       2 RES2    0.0000
@<TRIPOS>BOND
     1    1    2 1
     2    2    4 1
     3    3    8 2
     4    4    9 2
     5    5    1 2
     6    6    2 2
     7    7    1 1
     8    8    9 1
     9   10    3 1
    10   11   10 1
    11   12   10 1
    12   13    5 1
    13   14    7 2
    14   15    7 2
    15   16    3 1
    16   17   18 1
    17   18   20 1
    18   19   24 2
    19   20   25 2
    20   21   17 2
    21   22   18 2
    22   23   17 1
    23   24   25 1
    24   26   19 1
    25   27   26 1
    26   28   26 1
    27   29   21 1
    28   30   23 2
    29   31   23 2
    30   32   19 1
    31    4   16 1
    32    6   13 1
    33   20   32 1
    34   22   29 1
@<TRIPOS>SUBSTRUCTURE
     1 RES1 1
     2 RES2 17

@<TRIPOS>CRYSIN
  10.3955    6.6077   21.7800  90.0000  98.7760  90.0000  14 1

