# MOL2 file generated by ConQuest
# Please check atom types

@<TRIPOS>MOLECULE
DIBQUA
    60    65     1
SMALL
NO_CHARGES
****
Generated from CSD

@<TRIPOS>ATOM
      1 O1         6.6977   10.0970    1.1924 O.3       1 RES1    0.0000
      2 N1         7.9949   10.5419    1.4987 N.2       1 RES1    0.0000
      3 C1         8.0229   11.0140    2.6937 C.2       1 RES1    0.0000
      4 C2         6.6934   11.0211    3.4064 C.3       1 RES1    0.0000
      5 H1         6.3950   11.9745    3.4296 H         1 RES1    0.0000
      6 C3         5.7838   10.3072    2.3642 C.3       1 RES1    0.0000
      7 N2         5.1461    9.0955    2.7703 N.3       1 RES1    0.0000
      8 C4         4.3068    8.4459    1.7417 C.3       1 RES1    0.0000
      9 H2         3.7842    7.7220    2.1680 H         1 RES1    0.0000
     10 H3         4.8981    8.0304    1.0637 H         1 RES1    0.0000
     11 C5         3.3602    9.3811    1.0494 C.ar      1 RES1    0.0000
     12 C6         2.2389    8.8920    0.3710 C.ar      1 RES1    0.0000
     13 H4         2.0488    7.9609    0.3804 H         1 RES1    0.0000
     14 C7         1.4064    9.7592   -0.3125 C.ar      1 RES1    0.0000
     15 H5         0.6466    9.4169   -0.7683 H         1 RES1    0.0000
     16 C8         1.6666   11.1187   -0.3426 C.ar      1 RES1    0.0000
     17 H6         1.0948   11.7033   -0.8254 H         1 RES1    0.0000
     18 C9         2.7646   11.6216    0.3336 C.ar      1 RES1    0.0000
     19 H7         2.9459   12.5541    0.3233 H         1 RES1    0.0000
     20 C10        3.6065   10.7504    1.0315 C.ar      1 RES1    0.0000
     21 C11        4.7625   11.3018    1.7638 C.2       1 RES1    0.0000
     22 O2         4.9676   12.4951    1.8539 O.2       1 RES1    0.0000
     23 C12        9.3056   11.5590    3.1849 C.ar      1 RES1    0.0000
     24 C13       10.4953   11.1146    2.6049 C.ar      1 RES1    0.0000
     25 H8        10.4674   10.4779    1.9018 H         1 RES1    0.0000
     26 C14       11.7111   11.5943    3.0458 C.ar      1 RES1    0.0000
     27 H9        12.5229   11.2813    2.6625 H         1 RES1    0.0000
     28 C15       11.7270   12.5363    4.0528 C.ar      1 RES1    0.0000
     29 N3        13.0282   13.0397    4.5194 N.pl3     1 RES1    0.0000
     30 O3        14.0302   12.4245    4.1962 O.2       1 RES1    0.0000
     31 O4        13.0556   14.0428    5.1971 O.2       1 RES1    0.0000
     32 C16       10.5730   13.0207    4.6343 C.ar      1 RES1    0.0000
     33 H10       10.6117   13.6846    5.3123 H         1 RES1    0.0000
     34 C17        9.3531   12.5124    4.2013 C.ar      1 RES1    0.0000
     35 H11        8.5468   12.8168    4.6011 H         1 RES1    0.0000
     36 C18        6.6366   10.5258    4.8370 C.ar      1 RES1    0.0000
     37 C19        5.4644   10.7277    5.5676 C.ar      1 RES1    0.0000
     38 H12        4.7206   11.1524    5.1577 H         1 RES1    0.0000
     39 C20        5.3785   10.3113    6.8892 C.ar      1 RES1    0.0000
     40 H13        4.5724   10.4558    7.3701 H         1 RES1    0.0000
     41 C21        6.4452    9.6879    7.5239 C.ar      1 RES1    0.0000
     42 C22        6.3541    9.2301    8.9650 C.3       1 RES1    0.0000
     43 H14        7.1237    8.6592    9.1755 H         1 RES1    0.0000
     44 H15        5.5263    8.7220    9.0944 H         1 RES1    0.0000
     45 H16        6.3551   10.0118    9.5559 H         1 RES1    0.0000
     46 C23        7.6052    9.4940    6.7967 C.ar      1 RES1    0.0000
     47 H17        8.3496    9.0745    7.2116 H         1 RES1    0.0000
     48 C24        7.7059    9.8991    5.4759 C.ar      1 RES1    0.0000
     49 H18        8.5136    9.7474    4.9992 H         1 RES1    0.0000
     50 C25        5.9350    8.0770    3.4502 C.ar      1 RES1    0.0000
     51 C26        5.3916    7.5264    4.6012 C.ar      1 RES1    0.0000
     52 H19        4.5513    7.8338    4.9206 H         1 RES1    0.0000
     53 C27        6.0671    6.5298    5.2885 C.ar      1 RES1    0.0000
     54 H20        5.6909    6.1542    6.0756 H         1 RES1    0.0000
     55 C28        7.2989    6.0799    4.8226 C.ar      1 RES1    0.0000
     56 H21        7.7743    5.4101    5.3009 H         1 RES1    0.0000
     57 C29        7.8260    6.6088    3.6645 C.ar      1 RES1    0.0000
     58 H22        8.6638    6.2966    3.3433 H         1 RES1    0.0000
     59 C30        7.1437    7.5933    2.9610 C.ar      1 RES1    0.0000
     60 H23        7.5009    7.9338    2.1490 H         1 RES1    0.0000
@<TRIPOS>BOND
     1    1    2 1
     2    2    3 2
     3    3    4 1
     4    4    5 1
     5    6    1 1
     6    7    6 1
     7    8    7 1
     8    9    8 1
     9   10    8 1
    10   11    8 1
    11   12   11 ar
    12   13   12 1
    13   14   12 ar
    14   15   14 1
    15   16   14 ar
    16   17   16 1
    17   18   16 ar
    18   19   18 1
    19   20   11 ar
    20   21    6 1
    21   22   21 2
    22   23    3 1
    23   24   23 ar
    24   25   24 1
    25   26   24 ar
    26   27   26 1
    27   28   26 ar
    28   29   28 1
    29   30   29 2
    30   31   29 2
    31   32   28 ar
    32   33   32 1
    33   34   23 ar
    34   35   34 1
    35   36    4 1
    36   37   36 ar
    37   38   37 1
    38   39   37 ar
    39   40   39 1
    40   41   39 ar
    41   42   41 1
    42   43   42 1
    43   44   42 1
    44   45   42 1
    45   46   41 ar
    46   47   46 1
    47   48   36 ar
    48   49   48 1
    49   50    7 1
    50   51   50 ar
    51   52   51 1
    52   53   51 ar
    53   54   53 1
    54   55   53 ar
    55   56   55 1
    56   57   55 ar
    57   58   57 1
    58   59   50 ar
    59   60   59 1
    60    4    6 1
    61   18   20 ar
    62   20   21 1
    63   32   34 ar
    64   46   48 ar
    65   57   59 ar
@<TRIPOS>SUBSTRUCTURE
     1 RES1 1

@<TRIPOS>CRYSIN
  11.3330   16.9490   13.3440  90.0000 108.1700  90.0000 231 1

