# MOL2 file generated by ConQuest
# Please check atom types

@<TRIPOS>MOLECULE
DIBRUE
    32    35     1
SMALL
NO_CHARGES
****
Generated from CSD

@<TRIPOS>ATOM
      1 C1         0.9122    3.8070    8.6324 C.2       1 RES1    0.0000
      2 C2         0.3718    3.2345    6.7008 C.2       1 RES1    0.0000
      3 C3        -0.3585    2.5540    5.6482 C.2       1 RES1    0.0000
      4 C4        -0.2303    2.6701    4.2353 C.2       1 RES1    0.0000
      5 N1         1.8084    4.3016    7.8520 N.2       1 RES1    0.0000
      6 N2         1.4467    3.9239    6.5646 N.2       1 RES1    0.0000
      7 N3         0.9151    4.0161   10.0068 N.2       1 RES1    0.0000
      8 N4        -1.0059    1.7971    3.6670 N.2       1 RES1    0.0000
      9 N5        -1.2173    1.6157    5.9160 N.2       1 RES1    0.0000
     10 N6         0.6252    3.4473    3.4789 N.pl3     1 RES1    0.0000
     11 H1         1.1500    3.0771    2.9079 H         1 RES1    0.0000
     12 N7         0.6358    4.8075    3.6398 N.pl3     1 RES1    0.0000
     13 O1        -0.0452    3.1053    7.9815 O.3       1 RES1    0.0000
     14 O2        -1.6189    1.1241    4.7000 O.3       1 RES1    0.0000
     15 O3         1.3801    5.3995    2.8837 O.2       1 RES1    0.0000
     16 O4        -0.0685    5.2736    4.5034 O.2       1 RES1    0.0000
     17 C1B       -0.0562    3.6871   11.9614 C.2       1 RES1    0.0000
     18 C2B        0.4843    4.2596   13.8930 C.2       1 RES1    0.0000
     19 C3B        1.2146    4.9401   14.9457 C.2       1 RES1    0.0000
     20 C4B        1.0863    4.8240   16.3585 C.2       1 RES1    0.0000
     21 N1B       -0.9524    3.1925   12.7418 N.2       1 RES1    0.0000
     22 N2B       -0.5907    3.5702   14.0293 N.2       1 RES1    0.0000
     23 N3B       -0.0591    3.4780   10.5871 N.2       1 RES1    0.0000
     24 N4B        1.8620    5.6970   16.9268 N.2       1 RES1    0.0000
     25 N5B        2.0734    5.8784   14.6779 N.2       1 RES1    0.0000
     26 N6B        0.2309    4.0468   17.1150 N.pl3     1 RES1    0.0000
     27 H1B       -0.2940    4.4170   17.6860 H         1 RES1    0.0000
     28 N7B        0.2203    2.6866   16.9541 N.pl3     1 RES1    0.0000
     29 O1B        0.9012    4.3888   12.6124 O.3       1 RES1    0.0000
     30 O2B        2.4750    6.3700   15.8938 O.3       1 RES1    0.0000
     31 O3B       -0.5240    2.0946   17.7102 O.2       1 RES1    0.0000
     32 O4B        0.9246    2.2205   16.0905 O.2       1 RES1    0.0000
@<TRIPOS>BOND
     1    1    5 2
     2    2    3 1
     3    3    4 1
     4    4    8 2
     5    5    6 1
     6    6    2 2
     7    7    1 1
     8    8   14 1
     9    9    3 2
    10   10    4 1
    11   11   10 1
    12   12   10 1
    13   13    1 1
    14   14    9 1
    15   15   12 2
    16   16   12 2
    17   17   21 2
    18   18   19 1
    19   19   20 1
    20   20   24 2
    21   21   22 1
    22   22   18 2
    23   23    7 2
    24   24   30 1
    25   25   19 2
    26   26   20 1
    27   27   26 1
    28   28   26 1
    29   29   17 1
    30   30   25 1
    31   31   28 2
    32   32   28 2
    33    2   13 1
    34   17   23 1
    35   18   29 1
@<TRIPOS>SUBSTRUCTURE
     1 RES1 1

@<TRIPOS>CRYSIN
  10.2812    7.4941   11.3241  90.0000 114.5920  90.0000  14 1

