# MOL2 file generated by ConQuest
# Please check atom types

@<TRIPOS>MOLECULE
DICBOI
    59    61     1
SMALL
NO_CHARGES
****
Generated from CSD

@<TRIPOS>ATOM
      1 O1        -3.6580    1.2298    1.0226 O.2       1 RES1    0.0000
      2 O2        -2.2324    1.1504   -0.7513 O.3       1 RES1    0.0000
      3 O3        -2.6780    7.6405    0.8245 O.2       1 RES1    0.0000
      4 O4        -0.7401    7.6441   -0.1408 O.2       1 RES1    0.0000
      5 N1        -1.4021    1.1466    1.2907 N.am      1 RES1    0.0000
      6 H1        -0.6421    1.0071    0.8845 H         1 RES1    0.0000
      7 N2        -1.8834    4.1954    2.8087 N.ar      1 RES1    0.0000
      8 N3        -1.5820    7.1474    0.5970 N.pl3     1 RES1    0.0000
      9 C1        -2.5298    1.1702    0.5568 C.2       1 RES1    0.0000
     10 C2        -1.4382    1.1719    2.7444 C.3       1 RES1    0.0000
     11 H2        -2.3524    1.4031    2.9758 H         1 RES1    0.0000
     12 C3        -0.4958    2.2715    3.3002 C.3       1 RES1    0.0000
     13 H3         0.4560    2.0074    3.1207 H         1 RES1    0.0000
     14 C4        -0.7462    2.4228    4.8116 C.3       1 RES1    0.0000
     15 H4        -1.7147    2.5865    4.9415 H         1 RES1    0.0000
     16 H5        -0.5475    1.5503    5.2384 H         1 RES1    0.0000
     17 C5        -3.2953    1.0717   -1.7694 C.3       1 RES1    0.0000
     18 C6        -4.1750    2.3080   -1.7136 C.3       1 RES1    0.0000
     19 H6        -4.7946    2.3154   -2.4925 H         1 RES1    0.0000
     20 H7        -4.7845    2.2874   -0.8612 H         1 RES1    0.0000
     21 H8        -3.5479    3.1484   -1.7529 H         1 RES1    0.0000
     22 C7        -2.4960    1.0453   -3.0619 C.3       1 RES1    0.0000
     23 H9        -3.0597    0.9619   -3.8300 H         1 RES1    0.0000
     24 H10       -1.9453    0.2245   -3.1005 H         1 RES1    0.0000
     25 H11       -2.0182    1.9186   -3.1815 H         1 RES1    0.0000
     26 C8        -4.0828   -0.2088   -1.5953 C.3       1 RES1    0.0000
     27 H12       -4.6244   -0.2256   -0.7599 H         1 RES1    0.0000
     28 H13       -3.4296   -0.9767   -1.5806 H         1 RES1    0.0000
     29 H14       -4.6415   -0.3200   -2.3811 H         1 RES1    0.0000
     30 C9        -1.1304   -0.1952    3.3418 C.ar      1 RES1    0.0000
     31 C10       -2.0125   -0.7721    4.2447 C.ar      1 RES1    0.0000
     32 H15       -2.8218   -0.3263    4.4683 H         1 RES1    0.0000
     33 C11       -1.7367   -2.0185    4.8120 C.ar      1 RES1    0.0000
     34 H16       -2.3671   -2.4005    5.4613 H         1 RES1    0.0000
     35 C12       -0.5788   -2.6900    4.4762 C.ar      1 RES1    0.0000
     36 H17       -0.3502   -3.5875    4.8463 H         1 RES1    0.0000
     37 C13        0.3114   -2.1206    3.5746 C.ar      1 RES1    0.0000
     38 H18        1.1517   -2.6087    3.3244 H         1 RES1    0.0000
     39 C14        0.0380   -0.8741    3.0062 C.ar      1 RES1    0.0000
     40 H19        0.6807   -0.5133    2.3598 H         1 RES1    0.0000
     41 C15       -0.7336    3.5686    2.5524 C.ar      1 RES1    0.0000
     42 C16        0.1976    4.0504    1.6310 C.ar      1 RES1    0.0000
     43 H20        1.0052    3.5357    1.4388 H         1 RES1    0.0000
     44 C17       -0.0636    5.2365    0.9583 C.ar      1 RES1    0.0000
     45 H21        0.5619    5.6111    0.2938 H         1 RES1    0.0000
     46 C18       -1.2471    5.8726    1.2468 C.ar      1 RES1    0.0000
     47 C19       -2.1360    5.3408    2.1619 C.ar      1 RES1    0.0000
     48 H22       -2.9811    5.7894    2.3213 H         1 RES1    0.0000
     49 C20        0.0483    3.4890    5.5358 C.ar      1 RES1    0.0000
     50 C21       -0.4275    3.9954    6.7496 C.ar      1 RES1    0.0000
     51 H23       -1.2933    3.7005    7.1503 H         1 RES1    0.0000
     52 C22        0.3015    4.9415    7.4675 C.ar      1 RES1    0.0000
     53 H24       -0.0961    5.2466    8.3287 H         1 RES1    0.0000
     54 C23        1.5099    5.4008    6.9819 C.ar      1 RES1    0.0000
     55 H25        2.0602    6.0544    7.5283 H         1 RES1    0.0000
     56 C24        1.9848    4.9158    5.7700 C.ar      1 RES1    0.0000
     57 H26        2.8421    5.2051    5.4005 H         1 RES1    0.0000
     58 C25        1.2619    3.9655    5.0553 C.ar      1 RES1    0.0000
     59 H27        1.6104    3.6590    4.2292 H         1 RES1    0.0000
@<TRIPOS>BOND
     1    1    9 2
     2    2    9 1
     3    3    8 2
     4    4    8 2
     5    5    6 1
     6    7   41 ar
     7    8   46 1
     8    9    5 1
     9   10    5 1
    10   11   10 1
    11   12   10 1
    12   13   12 1
    13   14   12 1
    14   15   14 1
    15   16   14 1
    16   17    2 1
    17   18   17 1
    18   19   18 1
    19   20   18 1
    20   21   18 1
    21   22   17 1
    22   23   22 1
    23   24   22 1
    24   25   22 1
    25   26   17 1
    26   27   26 1
    27   28   26 1
    28   29   26 1
    29   30   10 1
    30   31   30 ar
    31   32   31 1
    32   33   31 ar
    33   34   33 1
    34   35   33 ar
    35   36   35 1
    36   37   35 ar
    37   38   37 1
    38   39   30 ar
    39   40   39 1
    40   41   12 1
    41   42   41 ar
    42   43   42 1
    43   44   42 ar
    44   45   44 1
    45   46   44 ar
    46   47    7 ar
    47   48   47 1
    48   49   14 1
    49   50   49 ar
    50   51   50 1
    51   52   50 ar
    52   53   52 1
    53   54   52 ar
    54   55   54 1
    55   56   54 ar
    56   57   56 1
    57   58   49 ar
    58   59   58 1
    59   37   39 ar
    60   46   47 ar
    61   56   58 ar
@<TRIPOS>SUBSTRUCTURE
     1 RES1 1

@<TRIPOS>CRYSIN
   5.5406   10.0757   10.3999  97.8480 100.3090  90.1600   1 1

