# MOL2 file generated by ConQuest
# Please check atom types

@<TRIPOS>MOLECULE
DICBUO
    43    45     1
SMALL
NO_CHARGES
****
Generated from CSD

@<TRIPOS>ATOM
      1 O1         1.5225    3.2758    3.2431 O.3       1 RES1    0.0000
      2 O2         3.6036   -0.1139    6.4714 O.2       1 RES1    0.0000
      3 O3         2.2842   -1.7988    6.2305 O.2       1 RES1    0.0000
      4 N1         0.7115    3.3762   -0.1541 N.3       1 RES1    0.0000
      5 H1         1.0533    3.3935   -0.9906 H         1 RES1    0.0000
      6 H2        -0.1894    3.2635   -0.1967 H         1 RES1    0.0000
      7 N2        -0.5450    2.5418    2.7165 N.2       1 RES1    0.0000
      8 N3         2.6128   -0.6457    5.9962 N.pl3     1 RES1    0.0000
      9 C1         0.3302    3.4835    2.5894 C.2       1 RES1    0.0000
     10 C2         1.3517    2.0485    3.8490 C.ar      1 RES1    0.0000
     11 C3         2.2358    1.3775    4.6646 C.ar      1 RES1    0.0000
     12 H3         3.0913    1.7175    4.8991 H         1 RES1    0.0000
     13 C4         1.7504    0.1522    5.1105 C.ar      1 RES1    0.0000
     14 C5         0.5036   -0.3681    4.7829 C.ar      1 RES1    0.0000
     15 H4         0.2397   -1.2148    5.1253 H         1 RES1    0.0000
     16 C6        -0.3527    0.3407    3.9636 C.ar      1 RES1    0.0000
     17 H5        -1.2036   -0.0035    3.7192 H         1 RES1    0.0000
     18 C7         0.0884    1.5870    3.5113 C.ar      1 RES1    0.0000
     19 C8         0.2010    4.7480    1.8112 C.3       1 RES1    0.0000
     20 H6        -0.7616    4.8441    1.5560 H         1 RES1    0.0000
     21 C9         1.0192    4.6516    0.4961 C.3       1 RES1    0.0000
     22 H7         1.9889    4.6428    0.7399 H         1 RES1    0.0000
     23 C10        0.7732    5.8747   -0.3739 C.ar      1 RES1    0.0000
     24 C11       -0.4219    6.0245   -1.0735 C.ar      1 RES1    0.0000
     25 H8        -1.0906    5.3525   -1.0128 H         1 RES1    0.0000
     26 C12       -0.6456    7.1511   -1.8606 C.ar      1 RES1    0.0000
     27 H9        -1.4640    7.2448   -2.3328 H         1 RES1    0.0000
     28 C13        0.3255    8.1369   -1.9550 C.ar      1 RES1    0.0000
     29 H10        0.1763    8.9013   -2.4975 H         1 RES1    0.0000
     30 C14        1.5096    8.0036   -1.2574 C.ar      1 RES1    0.0000
     31 H11        2.1718    8.6827   -1.3102 H         1 RES1    0.0000
     32 C15        1.7333    6.8756   -0.4759 C.ar      1 RES1    0.0000
     33 H12        2.5534    6.7870   -0.0049 H         1 RES1    0.0000
     34 C16        0.5764    5.9736    2.6536 C.3       1 RES1    0.0000
     35 H13        1.4906    5.8472    3.0113 H         1 RES1    0.0000
     36 H14        0.5900    6.7720    2.0673 H         1 RES1    0.0000
     37 C17       -0.3734    6.2297    3.8109 C.3       1 RES1    0.0000
     38 H15       -0.2870    5.4975    4.4714 H         1 RES1    0.0000
     39 H16       -1.3048    6.2279    3.4759 H         1 RES1    0.0000
     40 C18       -0.0882    7.5614    4.4948 C.3       1 RES1    0.0000
     41 H17       -0.1426    8.2847    3.8372 H         1 RES1    0.0000
     42 H18        0.8107    7.5416    4.8844 H         1 RES1    0.0000
     43 H19       -0.7486    7.7130    5.2015 H         1 RES1    0.0000
@<TRIPOS>BOND
     1    1    9 1
     2    2    8 2
     3    3    8 2
     4    4    5 1
     5    6    4 1
     6    7    9 2
     7    8   13 1
     8    9   19 1
     9   10    1 1
    10   11   10 ar
    11   12   11 1
    12   13   11 ar
    13   14   13 ar
    14   15   14 1
    15   16   14 ar
    16   17   16 1
    17   18    7 1
    18   19   20 1
    19   21    4 1
    20   22   21 1
    21   23   21 1
    22   24   23 ar
    23   25   24 1
    24   26   24 ar
    25   27   26 1
    26   28   26 ar
    27   29   28 1
    28   30   28 ar
    29   31   30 1
    30   32   23 ar
    31   33   32 1
    32   34   19 1
    33   35   34 1
    34   36   34 1
    35   37   34 1
    36   38   37 1
    37   39   37 1
    38   40   37 1
    39   41   40 1
    40   42   40 1
    41   43   40 1
    42   10   18 ar
    43   16   18 ar
    44   19   21 1
    45   30   32 ar
@<TRIPOS>SUBSTRUCTURE
     1 RES1 1

@<TRIPOS>CRYSIN
   5.9176   11.5034   24.5817  90.0000  90.0000  90.0000  19 1

