# MOL2 file generated by ConQuest
# Please check atom types

@<TRIPOS>MOLECULE
DICREN
   126   128     2
SMALL
NO_CHARGES
****
Generated from CSD

@<TRIPOS>ATOM
      1 C1        10.8379    3.3738   10.3720 C.3       1 RES1    0.0000
      2 H1        11.4146    4.1292   10.2428 H         1 RES1    0.0000
      3 H2        10.8022    3.1531   11.3059 H         1 RES1    0.0000
      4 H3         9.9550    3.5863   10.0590 H         1 RES1    0.0000
      5 C2         5.3104    5.0655   -2.0044 C.3       2 RES2    0.0000
      6 H4         6.1350    5.0273   -1.5113 H         2 RES2    0.0000
      7 H5         5.4673    5.4944   -2.8513 H         2 RES2    0.0000
      8 H6         4.9807    4.1807   -2.1484 H         2 RES2    0.0000
      9 C3        10.5056    1.4499    9.8827 C.3       1 RES1    0.0000
     10 H7         9.6794    1.7646    9.5139 H         1 RES1    0.0000
     11 H8        10.4321    1.3925   10.8377 H         1 RES1    0.0000
     12 H9        10.7119    0.5844    9.5238 H         1 RES1    0.0000
     13 N1         5.9577    3.7927    5.8591 N.2       2 RES2    0.0000
     14 C4         6.3103    1.7996    7.2090 C.ar      2 RES2    0.0000
     15 C5        10.3181    8.6610    0.3986 C.ar      1 RES1    0.0000
     16 N2         9.1191    4.9055    1.5722 N.pl3     1 RES1    0.0000
     17 H10        8.4282    4.5428    1.2121 H         1 RES1    0.0000
     18 N3         6.6773    3.1111    6.8426 N.3       2 RES2    0.0000
     19 H11        7.3454    3.4920    7.2264 H         2 RES2    0.0000
     20 N4         9.8289    4.2657    2.5272 N.2       1 RES1    0.0000
     21 C6         9.5389    6.1407    1.2046 C.ar      1 RES1    0.0000
     22 C7         9.3731    3.1351    2.9854 C.2       1 RES1    0.0000
     23 N5         5.0932   -1.9369    8.5129 N.pl3     2 RES2    0.0000
     24 C8        10.5580    6.8397    1.8628 C.ar      1 RES1    0.0000
     25 H12       10.9747    6.4591    2.6017 H         1 RES1    0.0000
     26 O1        12.5841    2.3606    3.8212 O.2       1 RES1    0.0000
     27 C9         9.2321    1.3385    4.5700 C.3       1 RES1    0.0000
     28 H13        9.7433    0.5282    4.7253 H         1 RES1    0.0000
     29 H14        8.8064    1.5968    5.4033 H         1 RES1    0.0000
     30 O2         5.6864   -2.4444    9.4406 O.2       2 RES2    0.0000
     31 O3         3.2549    5.6943    4.5824 O.2       2 RES2    0.0000
     32 N6        10.3929    3.4131    5.1239 N.3       1 RES1    0.0000
     33 H15       10.0623    4.2061    5.1177 H         1 RES1    0.0000
     34 N7         5.3722    4.5324    3.2984 N.3       2 RES2    0.0000
     35 H16        5.6276    3.7155    3.3853 H         2 RES2    0.0000
     36 N8         4.6581    5.0304    2.1832 N.am      2 RES2    0.0000
     37 H17        3.8512    5.3037    2.3036 H         2 RES2    0.0000
     38 C10        6.4010    4.8863    5.4716 C.2       2 RES2    0.0000
     39 O4         9.5300    3.2201    7.7430 O.2       1 RES1    0.0000
     40 C11        5.2505    1.1909    6.5620 C.ar      2 RES2    0.0000
     41 H18        4.8171    1.6180    5.8578 H         2 RES2    0.0000
     42 N9        11.1779    2.9401    6.1683 N.am      1 RES1    0.0000
     43 H19       11.9670    2.6300    6.0280 H         1 RES1    0.0000
     44 C12        5.6323    5.6204    4.3229 C.3       2 RES2    0.0000
     45 C13        7.6545    5.6441    5.8144 C.3       2 RES2    0.0000
     46 H20        7.6053    6.0150    6.7097 H         2 RES2    0.0000
     47 H21        8.4370    5.0757    5.7498 H         2 RES2    0.0000
     48 C14        4.3243    6.1032    4.9190 C.2       2 RES2    0.0000
     49 O5         4.5444    7.0732    5.7908 O.3       2 RES2    0.0000
     50 C15       10.1744    2.4860    4.0634 C.3       1 RES1    0.0000
     51 O6         6.3339    4.8877    0.6954 O.2       2 RES2    0.0000
     52 C16       11.5002    1.9371    3.5157 C.2       1 RES1    0.0000
     53 C17        4.8498   -0.0525    6.9767 C.ar      2 RES2    0.0000
     54 H22        4.1633   -0.4981    6.5346 H         2 RES2    0.0000
     55 O7        11.2907    0.9816    2.6228 O.3       1 RES1    0.0000
     56 O8        11.6392    2.6502    8.2807 O.3       1 RES1    0.0000
     57 O9         4.1615    5.3427    0.1093 O.3       2 RES2    0.0000
     58 C18        6.9372    1.2314    8.2720 C.ar      2 RES2    0.0000
     59 H23        7.6134    1.6934    8.7129 H         2 RES2    0.0000
     60 C19       10.9462    8.0812    1.4269 C.ar      1 RES1    0.0000
     61 H24       11.6489    8.5206    1.8479 H         1 RES1    0.0000
     62 C20        5.1784    5.0973    0.9314 C.2       2 RES2    0.0000
     63 C21        5.4979   -0.6508    8.0895 C.ar      2 RES2    0.0000
     64 C22        8.8565    6.7927    0.1490 C.ar      1 RES1    0.0000
     65 H25        8.1312    6.3838   -0.2658 H         1 RES1    0.0000
     66 C23        6.5893    0.0285    8.6781 C.ar      2 RES2    0.0000
     67 H26        7.0686   -0.3809    9.3624 H         2 RES2    0.0000
     68 C24       10.6619    2.9870    7.3953 C.2       1 RES1    0.0000
     69 C25        9.2932    8.0787   -0.2695 C.ar      1 RES1    0.0000
     70 H27        8.8859    8.5103   -0.9860 H         1 RES1    0.0000
     71 C26       12.7927    1.9288   10.1994 C.3       1 RES1    0.0000
     72 H28       13.3953    2.6208    9.9187 H         1 RES1    0.0000
     73 H29       13.1127    1.0801    9.8852 H         1 RES1    0.0000
     74 H30       12.7423    1.9183   11.1581 H         1 RES1    0.0000
     75 O10       11.7755   10.4681    0.4024 O.2       1 RES1    0.0000
     76 C27        4.3411    5.8309   -1.2530 C.3       2 RES2    0.0000
     77 C28       13.2540   -0.3907    2.8898 C.3       1 RES1    0.0000
     78 H31       12.7019   -1.0369    3.3356 H         1 RES1    0.0000
     79 H32       13.6253    0.2125    3.5380 H         1 RES1    0.0000
     80 H33       13.9658   -0.8405    2.4291 H         1 RES1    0.0000
     81 C29        2.7127    6.6659    7.3828 C.3       2 RES2    0.0000
     82 H34        2.2877    6.0423    6.7892 H         2 RES2    0.0000
     83 H35        2.0507    7.0773    7.9429 H         2 RES2    0.0000
     84 H36        3.3525    6.2039    7.9293 H         2 RES2    0.0000
     85 O11        4.1555   -2.4814    7.9615 O.2       2 RES2    0.0000
     86 O12       10.0919   10.5949   -0.9326 O.2       1 RES1    0.0000
     87 C30       12.4210    0.3859    1.8976 C.3       1 RES1    0.0000
     88 N10       10.7639   10.0012   -0.0807 N.pl3     1 RES1    0.0000
     89 C31        7.6884    6.7101    4.8010 C.3       2 RES2    0.0000
     90 H37        7.7216    7.5667    5.2555 H         2 RES2    0.0000
     91 H38        8.5064    6.6210    4.2869 H         2 RES2    0.0000
     92 C32        3.4383    7.7600    6.5508 C.3       2 RES2    0.0000
     93 C33        8.1754    2.3679    2.6116 C.3       1 RES1    0.0000
     94 H39        8.2064    2.1175    1.6753 H         1 RES1    0.0000
     95 H40        7.3710    2.8860    2.7718 H         1 RES1    0.0000
     96 C34        6.5893    6.7188    3.9032 C.3       2 RES2    0.0000
     97 H41        6.8977    6.5629    2.9966 H         2 RES2    0.0000
     98 H42        6.1423    7.5789    3.9317 H         2 RES2    0.0000
     99 C35       11.5433   -0.6564    1.0506 C.3       1 RES1    0.0000
    100 H43       10.9859   -0.1781    0.4322 H         1 RES1    0.0000
    101 H44       10.9920   -1.1693    1.6467 H         1 RES1    0.0000
    102 H45       12.1258   -1.2465    0.5663 H         1 RES1    0.0000
    103 C36        5.0195    7.3584   -0.8854 C.3       2 RES2    0.0000
    104 H46        4.4252    7.8425   -0.3067 H         2 RES2    0.0000
    105 H47        5.1504    7.8545   -1.6964 H         2 RES2    0.0000
    106 H48        5.8639    7.2358   -0.4458 H         2 RES2    0.0000
    107 C37        2.4962    8.4604    5.5511 C.3       2 RES2    0.0000
    108 H49        2.9870    9.1246    5.0606 H         2 RES2    0.0000
    109 H50        1.7784    8.8816    6.0292 H         2 RES2    0.0000
    110 H51        2.1387    7.8120    4.9401 H         2 RES2    0.0000
    111 C38       13.1663    1.3670    1.1164 C.3       1 RES1    0.0000
    112 H52       12.5734    1.8027    0.4992 H         1 RES1    0.0000
    113 H53       13.8654    0.9252    0.6296 H         1 RES1    0.0000
    114 H54       13.5512    2.0201    1.7063 H         1 RES1    0.0000
    115 C39        4.0702    8.7208    7.4561 C.3       2 RES2    0.0000
    116 H55        4.5417    9.3810    6.9420 H         2 RES2    0.0000
    117 H56        4.6862    8.2616    8.0298 H         2 RES2    0.0000
    118 H57        3.3959    9.1511    7.9876 H         2 RES2    0.0000
    119 C40        8.2085    1.1070    3.5207 C.3       1 RES1    0.0000
    120 H58        7.3385    0.9642    3.9267 H         1 RES1    0.0000
    121 H59        8.4354    0.3222    2.9978 H         1 RES1    0.0000
    122 C41       11.3693    2.2029    9.6033 C.3       1 RES1    0.0000
    123 C42        3.0439    6.0666   -1.7547 C.3       2 RES2    0.0000
    124 H60        2.5133    6.4950   -1.0792 H         2 RES2    0.0000
    125 H61        2.6386    5.2311   -1.9981 H         2 RES2    0.0000
    126 H62        3.0980    6.6331   -2.5272 H         2 RES2    0.0000
@<TRIPOS>BOND
     1    1    2 1
     2    3    1 1
     3    4    1 1
     4    5    6 1
     5    7    5 1
     6    8    5 1
     7    9   10 1
     8   11    9 1
     9   12    9 1
    10   13   18 1
    11   14   18 1
    12   15   60 ar
    13   16   17 1
    14   18   19 1
    15   20   16 1
    16   21   16 1
    17   22   20 2
    18   23   30 2
    19   24   21 ar
    20   25   24 1
    21   26   52 2
    22   27   28 1
    23   29   27 1
    24   31   48 2
    25   32   33 1
    26   34   35 1
    27   36   34 1
    28   37   36 1
    29   38   13 2
    30   39   68 2
    31   40   14 ar
    32   41   40 1
    33   42   32 1
    34   43   42 1
    35   44   34 1
    36   45   38 1
    37   46   45 1
    38   47   45 1
    39   48   44 1
    40   49   48 1
    41   50   22 1
    42   51   62 2
    43   52   50 1
    44   53   40 ar
    45   54   53 1
    46   55   52 1
    47   56   68 1
    48   57   62 1
    49   58   14 ar
    50   59   58 1
    51   60   24 ar
    52   61   60 1
    53   62   36 1
    54   63   23 1
    55   64   21 ar
    56   65   64 1
    57   66   58 ar
    58   67   66 1
    59   68   42 1
    60   69   15 ar
    61   70   69 1
    62   71   72 1
    63   73   71 1
    64   74   71 1
    65   75   88 2
    66   76    5 1
    67   77   78 1
    68   79   77 1
    69   80   77 1
    70   81   82 1
    71   83   81 1
    72   84   81 1
    73   85   23 2
    74   86   88 2
    75   87   55 1
    76   88   15 1
    77   89   45 1
    78   90   89 1
    79   91   89 1
    80   92   49 1
    81   93   22 1
    82   94   93 1
    83   95   93 1
    84   96   44 1
    85   97   96 1
    86   98   96 1
    87   99   87 1
    88  100   99 1
    89  101   99 1
    90  102   99 1
    91  103   76 1
    92  104  103 1
    93  105  103 1
    94  106  103 1
    95  107   92 1
    96  108  107 1
    97  109  107 1
    98  110  107 1
    99  111   87 1
   100  112  111 1
   101  113  111 1
   102  114  111 1
   103  115   92 1
   104  116  115 1
   105  117  115 1
   106  118  115 1
   107  119   27 1
   108  120  119 1
   109  121  119 1
   110  122    1 1
   111  123   76 1
   112  124  123 1
   113  125  123 1
   114  126  123 1
   115    9  122 1
   116   27   50 1
   117   32   50 1
   118   38   44 1
   119   53   63 ar
   120   56  122 1
   121   57   76 1
   122   63   66 ar
   123   64   69 ar
   124   71  122 1
   125   77   87 1
   126   81   92 1
   127   89   96 1
   128   93  119 1
@<TRIPOS>SUBSTRUCTURE
     1 RES1 1
     2 RES2 5

@<TRIPOS>CRYSIN
   9.1937   11.5288   12.5921  87.6480  80.5070  71.0880   1 1

