# MOL2 file generated by ConQuest
# Please check atom types

@<TRIPOS>MOLECULE
DIDHIJ
    58    58     2
SMALL
NO_CHARGES
****
Generated from CSD

@<TRIPOS>ATOM
      1 C1         7.2935    4.0742    7.0797 C.3       1 RES1    0.0000
      2 N1         8.5935    4.5223    6.4580 N.pl3     1 RES1    0.0000
      3 O1         8.9240    3.9563    5.4318 O.2       1 RES1    0.0000
      4 O2         9.2386    5.3880    6.9865 O.2       1 RES1    0.0000
      5 C2         6.8031    4.9034    8.2557 C.3       1 RES1    0.0000
      6 H1         6.7649    4.4074    9.1009 H         1 RES1    0.0000
      7 H2         7.2814    5.7516    8.3682 H         1 RES1    0.0000
      8 N2         5.4829    5.0433    7.5826 N.3       1 RES1    0.0000
      9 C3         6.0643    4.5564    6.3001 C.3       1 RES1    0.0000
     10 H3         6.2580    5.2691    5.6563 H         1 RES1    0.0000
     11 H4         5.5520    3.8340    5.8810 H         1 RES1    0.0000
     12 C4         4.8249    6.3821    7.6309 C.3       1 RES1    0.0000
     13 C5         4.5711    6.6795    9.0941 C.3       1 RES1    0.0000
     14 H5         4.0859    5.9412    9.4936 H         1 RES1    0.0000
     15 H6         4.0464    7.4907    9.1732 H         1 RES1    0.0000
     16 H7         5.4182    6.7951    9.5522 H         1 RES1    0.0000
     17 C6         3.5128    6.2464    6.8878 C.3       1 RES1    0.0000
     18 H8         3.6835    5.9356    5.9846 H         1 RES1    0.0000
     19 H9         3.0693    7.1081    6.8560 H         1 RES1    0.0000
     20 H10        2.9462    5.6068    7.3464 H         1 RES1    0.0000
     21 C7         5.6764    7.4920    7.0226 C.3       1 RES1    0.0000
     22 H11        5.7590    7.3494    6.0666 H         1 RES1    0.0000
     23 H12        6.5576    7.4829    7.4284 H         1 RES1    0.0000
     24 H13        5.2540    8.3502    7.1862 H         1 RES1    0.0000
     25 C8         7.4015    2.5908    7.3255 C.3       1 RES1    0.0000
     26 H14        6.5610    2.2486    7.6942 H         1 RES1    0.0000
     27 H15        7.5833    2.1229    6.4847 H         1 RES1    0.0000
     28 O3         8.4543    2.3733    8.2369 O.3       1 RES1    0.0000
     29 H16        8.8914    1.7077    8.0009 H         1 RES1    0.0000
     30 C9         9.5417    6.8110    2.5982 C.3       2 RES2    0.0000
     31 N3         8.1944    6.3135    3.0618 N.pl3     2 RES2    0.0000
     32 O4         7.7633    6.7961    4.0868 O.2       2 RES2    0.0000
     33 O5         7.6074    5.4823    2.4005 O.2       2 RES2    0.0000
     34 C10       10.1740    6.0186    1.4658 C.3       2 RES2    0.0000
     35 H17        9.7189    5.1726    1.2739 H         2 RES2    0.0000
     36 H18       10.3061    6.5392    0.6467 H         2 RES2    0.0000
     37 N4        11.4079    5.8630    2.2815 N.3       2 RES2    0.0000
     38 C11       10.6948    6.3395    3.4948 C.3       2 RES2    0.0000
     39 H19       11.1542    7.0666    3.9643 H         2 RES2    0.0000
     40 H20       10.4461    5.6225    4.1148 H         2 RES2    0.0000
     41 C12       12.0743    4.5283    2.2918 C.3       2 RES2    0.0000
     42 C13       11.1378    3.3987    2.6842 C.3       2 RES2    0.0000
     43 H21       10.3534    3.4166    2.1140 H         2 RES2    0.0000
     44 H22       10.8690    3.5086    3.6087 H         2 RES2    0.0000
     45 H23       11.5938    2.5493    2.5790 H         2 RES2    0.0000
     46 C14       13.2235    4.6161    3.2568 C.3       2 RES2    0.0000
     47 H24       13.8485    5.2949    2.9542 H         2 RES2    0.0000
     48 H25       13.6750    3.7588    3.3020 H         2 RES2    0.0000
     49 H26       12.8902    4.8528    4.1362 H         2 RES2    0.0000
     50 C15       12.5791    4.2839    0.8939 C.3       2 RES2    0.0000
     51 H27       13.1925    4.9920    0.6428 H         2 RES2    0.0000
     52 H28       11.8313    4.2705    0.2774 H         2 RES2    0.0000
     53 H29       13.0402    3.4301    0.8616 H         2 RES2    0.0000
     54 C16        9.4139    8.3011    2.3889 C.3       2 RES2    0.0000
     55 H30        9.1602    8.7373    3.2297 H         2 RES2    0.0000
     56 H31       10.2716    8.6734    2.0945 H         2 RES2    0.0000
     57 O6         8.4257    8.5323    1.4079 O.3       2 RES2    0.0000
     58 H32        7.9628    9.1850    1.6295 H         2 RES2    0.0000
@<TRIPOS>BOND
     1    1    2 1
     2    2    3 2
     3    4    2 2
     4    5    1 1
     5    6    5 1
     6    7    5 1
     7    8    5 1
     8    9    1 1
     9   10    9 1
    10   11    9 1
    11   12    8 1
    12   13   12 1
    13   14   13 1
    14   15   13 1
    15   16   13 1
    16   17   12 1
    17   18   17 1
    18   19   17 1
    19   20   17 1
    20   21   12 1
    21   22   21 1
    22   23   21 1
    23   24   21 1
    24   25    1 1
    25   26   25 1
    26   27   25 1
    27   28   25 1
    28   29   28 1
    29   30   31 1
    30   31   32 2
    31   33   31 2
    32   34   30 1
    33   35   34 1
    34   36   34 1
    35   37   34 1
    36   38   30 1
    37   39   38 1
    38   40   38 1
    39   41   37 1
    40   42   41 1
    41   43   42 1
    42   44   42 1
    43   45   42 1
    44   46   41 1
    45   47   46 1
    46   48   46 1
    47   49   46 1
    48   50   41 1
    49   51   50 1
    50   52   50 1
    51   53   50 1
    52   54   30 1
    53   55   54 1
    54   56   54 1
    55   57   54 1
    56   58   57 1
    57    8    9 1
    58   37   38 1
@<TRIPOS>SUBSTRUCTURE
     1 RES1 1
     2 RES2 30

@<TRIPOS>CRYSIN
   9.2580   11.2204   19.8238  90.0000  99.7370  90.0000 231 1

