# MOL2 file generated by ConQuest
# Please check atom types

@<TRIPOS>MOLECULE
DIDLAE
    40    43     1
SMALL
NO_CHARGES
****
Generated from CSD

@<TRIPOS>ATOM
      1 O1         3.5293    6.3770    0.7872 O.3       1 RES1    0.0000
      2 O2         3.6386    8.6649    1.3385 O.3       1 RES1    0.0000
      3 O3         4.3326    6.7721    4.1655 O.2       1 RES1    0.0000
      4 O4         7.6236    1.3036    2.6915 O.2       1 RES1    0.0000
      5 O5         6.4100    2.8765    1.8836 O.2       1 RES1    0.0000
      6 N1         7.0303    2.3808    2.8125 N.pl3     1 RES1    0.0000
      7 C1         3.0056    7.6695    0.5875 C.3       1 RES1    0.0000
      8 H1         2.0237    7.6650    0.8792 H         1 RES1    0.0000
      9 H2         2.9825    7.9131   -0.4862 H         1 RES1    0.0000
     10 C2         4.9662    8.9812    0.8803 C.3       1 RES1    0.0000
     11 H3         5.2134    9.9861    1.2309 H         1 RES1    0.0000
     12 H4         4.9516    8.8643    0.0103 H         1 RES1    0.0000
     13 C3         6.0240    8.0820    1.4699 C.3       1 RES1    0.0000
     14 H5         6.8744    8.4727    1.1482 H         1 RES1    0.0000
     15 C4         5.9353    6.5469    1.1223 C.3       1 RES1    0.0000
     16 H6         6.7269    6.2273    0.7034 H         1 RES1    0.0000
     17 C5         4.8098    6.1729    0.1893 C.3       1 RES1    0.0000
     18 H7         4.7884    6.7436   -0.6517 H         1 RES1    0.0000
     19 H8         4.8509    5.2249    0.0414 H         1 RES1    0.0000
     20 C6         5.7999    5.8038    2.4681 C.3       1 RES1    0.0000
     21 H9         5.1949    5.0591    2.3791 H         1 RES1    0.0000
     22 C7         5.2328    6.8831    3.3659 C.2       1 RES1    0.0000
     23 C8         6.0427    8.1052    3.0122 C.3       1 RES1    0.0000
     24 H10        5.6695    8.9507    3.3825 H         1 RES1    0.0000
     25 C9         7.4536    7.8125    3.4673 C.2       1 RES1    0.0000
     26 H11        7.9790    8.5731    3.7963 H         1 RES1    0.0000
     27 C10        7.9758    6.5959    3.4332 C.2       1 RES1    0.0000
     28 H12        8.8475    6.5086    3.7549 H         1 RES1    0.0000
     29 C11        7.1800    5.3803    3.0474 C.3       1 RES1    0.0000
     30 H13        7.6706    4.7433    2.3171 H         1 RES1    0.0000
     31 C12        7.0440    4.4193    4.2431 C.ar      1 RES1    0.0000
     32 C13        7.0488    3.0229    4.1252 C.ar      1 RES1    0.0000
     33 C14        7.0428    2.1798    5.2196 C.ar      1 RES1    0.0000
     34 H14        7.1523    1.2561    5.0375 H         1 RES1    0.0000
     35 C15        7.0015    2.7262    6.4619 C.ar      1 RES1    0.0000
     36 H15        7.0840    2.1880    7.2305 H         1 RES1    0.0000
     37 C16        6.9587    4.0984    6.6336 C.ar      1 RES1    0.0000
     38 H16        6.8764    4.4047    7.5511 H         1 RES1    0.0000
     39 C17        6.9793    4.9179    5.5423 C.ar      1 RES1    0.0000
     40 H17        7.0489    5.8297    5.6685 H         1 RES1    0.0000
@<TRIPOS>BOND
     1    1    7 1
     2    2    7 1
     3    3   22 2
     4    4    6 2
     5    5    6 2
     6    6   32 1
     7    7    8 1
     8    9    7 1
     9   10    2 1
    10   11   10 1
    11   12   10 1
    12   13   10 1
    13   14   13 1
    14   15   13 1
    15   16   15 1
    16   17    1 1
    17   18   17 1
    18   19   17 1
    19   20   15 1
    20   21   20 1
    21   22   20 1
    22   23   13 1
    23   24   23 1
    24   25   23 1
    25   26   25 1
    26   27   25 2
    27   28   27 1
    28   29   20 1
    29   30   29 1
    30   31   29 1
    31   32   31 ar
    32   33   32 ar
    33   34   33 1
    34   35   33 ar
    35   36   35 1
    36   37   35 ar
    37   38   37 1
    38   39   31 ar
    39   40   39 1
    40   15   17 1
    41   22   23 1
    42   27   29 1
    43   37   39 ar
@<TRIPOS>SUBSTRUCTURE
     1 RES1 1

@<TRIPOS>CRYSIN
   7.1064    9.7290   11.6227 110.0280 106.8580  91.8240   2 1

