# MOL2 file generated by ConQuest
# Please check atom types

@<TRIPOS>MOLECULE
DIDNOU
    36    38     1
SMALL
NO_CHARGES
****
Generated from CSD

@<TRIPOS>ATOM
      1 C1         0.4714    3.3945    3.9895 C.ar      1 RES1    0.0000
      2 C2         1.1793    2.4230    3.2663 C.ar      1 RES1    0.0000
      3 C3         1.5376    1.1925    3.7952 C.ar      1 RES1    0.0000
      4 H1         2.0071    0.5594    3.2656 H         1 RES1    0.0000
      5 C4         1.2011    0.8986    5.1085 C.ar      1 RES1    0.0000
      6 H2         1.4347    0.0587    5.4851 H         1 RES1    0.0000
      7 C5         0.5204    1.8411    5.8679 C.ar      1 RES1    0.0000
      8 H3         0.2948    1.6458    6.7696 H         1 RES1    0.0000
      9 C6         0.1661    3.0728    5.3171 C.ar      1 RES1    0.0000
     10 H4        -0.2923    3.7072    5.8556 H         1 RES1    0.0000
     11 C7        -0.0384    4.6782    3.4249 C.ar      1 RES1    0.0000
     12 C8         0.4236    5.8931    3.9322 C.ar      1 RES1    0.0000
     13 H5         1.0734    5.8967    4.6260 H         1 RES1    0.0000
     14 C9        -0.0587    7.1008    3.4317 C.ar      1 RES1    0.0000
     15 H6         0.2580    7.9229    3.7869 H         1 RES1    0.0000
     16 N1         1.6235    2.6828    1.8869 N.pl3     1 RES1    0.0000
     17 O1         1.7447    1.7222    1.1299 O.2       1 RES1    0.0000
     18 O2         1.8704    3.8430    1.5645 O.2       1 RES1    0.0000
     19 C1B       -1.5347    3.3945    1.8544 C.ar      1 RES1    0.0000
     20 C2B       -2.2426    2.4230    2.5776 C.ar      1 RES1    0.0000
     21 C3B       -2.6009    1.1925    2.0488 C.ar      1 RES1    0.0000
     22 H1B       -3.0704    0.5594    2.5783 H         1 RES1    0.0000
     23 C4B       -2.2644    0.8986    0.7354 C.ar      1 RES1    0.0000
     24 H2B       -2.4980    0.0587    0.3588 H         1 RES1    0.0000
     25 C5B       -1.5837    1.8411   -0.0240 C.ar      1 RES1    0.0000
     26 H3B       -1.3581    1.6458   -0.9257 H         1 RES1    0.0000
     27 C6B       -1.2293    3.0728    0.5268 C.ar      1 RES1    0.0000
     28 H4B       -0.7710    3.7072   -0.0117 H         1 RES1    0.0000
     29 C7B       -1.0249    4.6782    2.4190 C.ar      1 RES1    0.0000
     30 C8B       -1.4869    5.8931    1.9117 C.ar      1 RES1    0.0000
     31 H5B       -2.1367    5.8967    1.2179 H         1 RES1    0.0000
     32 C9B       -1.0046    7.1008    2.4122 C.ar      1 RES1    0.0000
     33 H6B       -1.3213    7.9229    2.0571 H         1 RES1    0.0000
     34 N1B       -2.6868    2.6828    3.9570 N.pl3     1 RES1    0.0000
     35 O1B       -2.8080    1.7222    4.7140 O.2       1 RES1    0.0000
     36 O2B       -2.9337    3.8430    4.2794 O.2       1 RES1    0.0000
@<TRIPOS>BOND
     1    1    2 ar
     2    2    3 ar
     3    3    4 1
     4    5    3 ar
     5    6    5 1
     6    7    5 ar
     7    8    7 1
     8    9    1 ar
     9   10    9 1
    10   11    1 1
    11   12   11 ar
    12   13   12 1
    13   14   12 ar
    14   15   14 1
    15   16    2 1
    16   17   16 2
    17   18   16 2
    18   19   20 ar
    19   20   21 ar
    20   21   22 1
    21   23   21 ar
    22   24   23 1
    23   25   23 ar
    24   26   25 1
    25   27   19 ar
    26   28   27 1
    27   29   11 ar
    28   30   29 ar
    29   31   30 1
    30   32   14 ar
    31   33   32 1
    32   34   20 1
    33   35   34 2
    34   36   34 2
    35    7    9 ar
    36   19   29 1
    37   25   27 ar
    38   30   32 ar
@<TRIPOS>SUBSTRUCTURE
     1 RES1 1

@<TRIPOS>CRYSIN
  13.1711    9.7790   11.8797  90.0000 100.3120  90.0000  15 1

