# MOL2 file generated by ConQuest
# Please check atom types

@<TRIPOS>MOLECULE
DIDNUA
    36    38     1
SMALL
NO_CHARGES
****
Generated from CSD

@<TRIPOS>ATOM
      1 C1         5.6395    0.9668    2.2935 C.ar      1 RES1    0.0000
      2 C2         5.8682    1.9433    1.3206 C.ar      1 RES1    0.0000
      3 H1         6.5298    1.8259    0.6764 H         1 RES1    0.0000
      4 C3         5.0887    3.0930    1.3343 C.ar      1 RES1    0.0000
      5 C4         4.0978    3.3216    2.2703 C.ar      1 RES1    0.0000
      6 H2         3.6048    4.1101    2.2631 H         1 RES1    0.0000
      7 C5         3.8625    2.3402    3.2184 C.ar      1 RES1    0.0000
      8 H3         3.1942    2.4609    3.8534 H         1 RES1    0.0000
      9 C6         4.6193    1.1781    3.2249 C.ar      1 RES1    0.0000
     10 H4         4.4446    0.5249    3.8634 H         1 RES1    0.0000
     11 C7         6.4443   -0.2883    2.3091 C.ar      1 RES1    0.0000
     12 C8         5.7742   -1.5142    2.3794 C.ar      1 RES1    0.0000
     13 H5         4.8480   -1.5212    2.4571 H         1 RES1    0.0000
     14 C9         6.4590   -2.7172    2.3355 C.ar      1 RES1    0.0000
     15 H6         5.9962   -3.5207    2.3982 H         1 RES1    0.0000
     16 N1         5.3331    4.1037    0.2905 N.pl3     1 RES1    0.0000
     17 O1         6.2340    3.8990   -0.5095 O.2       1 RES1    0.0000
     18 O2         4.6082    5.0947    0.2569 O.2       1 RES1    0.0000
     19 C1B        8.6593    0.9668    2.2400 C.ar      1 RES1    0.0000
     20 C2B        8.4307    1.9433    3.2129 C.ar      1 RES1    0.0000
     21 H1B        7.7691    1.8259    3.8571 H         1 RES1    0.0000
     22 C3B        9.2101    3.0930    3.1992 C.ar      1 RES1    0.0000
     23 C4B       10.2011    3.3216    2.2632 C.ar      1 RES1    0.0000
     24 H2B       10.6941    4.1101    2.2704 H         1 RES1    0.0000
     25 C5B       10.4364    2.3402    1.3151 C.ar      1 RES1    0.0000
     26 H3B       11.1047    2.4609    0.6800 H         1 RES1    0.0000
     27 C6B        9.6796    1.1781    1.3085 C.ar      1 RES1    0.0000
     28 H4B        9.8543    0.5249    0.6700 H         1 RES1    0.0000
     29 C7B        7.8546   -0.2883    2.2244 C.ar      1 RES1    0.0000
     30 C8B        8.5247   -1.5142    2.1540 C.ar      1 RES1    0.0000
     31 H5B        9.4509   -1.5212    2.0763 H         1 RES1    0.0000
     32 C9B        7.8398   -2.7172    2.1980 C.ar      1 RES1    0.0000
     33 H6B        8.3027   -3.5207    2.1353 H         1 RES1    0.0000
     34 N1B        8.9658    4.1037    4.2430 N.pl3     1 RES1    0.0000
     35 O1B        8.0649    3.8990    5.0429 O.2       1 RES1    0.0000
     36 O2B        9.6907    5.0947    4.2766 O.2       1 RES1    0.0000
@<TRIPOS>BOND
     1    1    2 ar
     2    2    3 1
     3    4    2 ar
     4    5    4 ar
     5    6    5 1
     6    7    5 ar
     7    8    7 1
     8    9    1 ar
     9   10    9 1
    10   11    1 1
    11   12   11 ar
    12   13   12 1
    13   14   12 ar
    14   15   14 1
    15   16    4 1
    16   17   16 2
    17   18   16 2
    18   19   20 ar
    19   20   21 1
    20   22   20 ar
    21   23   22 ar
    22   24   23 1
    23   25   23 ar
    24   26   25 1
    25   27   19 ar
    26   28   27 1
    27   29   11 ar
    28   30   29 ar
    29   31   30 1
    30   32   14 ar
    31   33   32 1
    32   34   22 1
    33   35   34 2
    34   36   34 2
    35    7    9 ar
    36   19   29 1
    37   25   27 ar
    38   30   32 ar
@<TRIPOS>SUBSTRUCTURE
     1 RES1 1

@<TRIPOS>CRYSIN
  16.6974    9.9231   10.2577  90.0000 117.8820  90.0000  15 1

