# MOL2 file generated by ConQuest
# Please check atom types

@<TRIPOS>MOLECULE
DIDNIQ
    50    52     1
SMALL
NO_CHARGES
****
Generated from CSD

@<TRIPOS>ATOM
      1 C1        -0.7789    9.9198   21.1168 C.ar      1 RES1    0.0000
      2 C2         0.5787    9.7249   20.9713 C.ar      1 RES1    0.0000
      3 C3         1.2364   10.6181   20.1038 C.ar      1 RES1    0.0000
      4 C4         0.5753   11.6237   19.3806 C.ar      1 RES1    0.0000
      5 C5        -0.8007   11.6775   19.5254 C.ar      1 RES1    0.0000
      6 C6        -1.4938   10.8692   20.3974 C.ar      1 RES1    0.0000
      7 H1        -2.4140   10.9553   20.5011 H         1 RES1    0.0000
      8 C7         1.8336    8.8125   23.0037 C.ar      1 RES1    0.0000
      9 C8         1.3491    8.6571   21.6987 C.ar      1 RES1    0.0000
     10 C9         1.6654    7.4267   21.0940 C.ar      1 RES1    0.0000
     11 C10        2.4241    6.4486   21.6952 C.ar      1 RES1    0.0000
     12 H2         2.6293    5.6558   21.2564 H         1 RES1    0.0000
     13 C11        2.8716    6.6973   22.9817 C.ar      1 RES1    0.0000
     14 C12        2.5755    7.8464   23.6654 C.ar      1 RES1    0.0000
     15 H3         2.8598    7.9743   24.5408 H         1 RES1    0.0000
     16 C13        1.8622   13.7760   18.9628 C.ar      1 RES1    0.0000
     17 C14        1.3677   12.5504   18.4893 C.ar      1 RES1    0.0000
     18 C15        1.6957   12.2491   17.1626 C.ar      1 RES1    0.0000
     19 C16        2.5217   13.0442   16.3921 C.ar      1 RES1    0.0000
     20 H4         2.7471   12.7991   15.5236 H         1 RES1    0.0000
     21 C17        2.9961   14.1993   16.9372 C.ar      1 RES1    0.0000
     22 C18        2.6663   14.6082   18.2075 C.ar      1 RES1    0.0000
     23 H5         2.9742   15.4177   18.5471 H         1 RES1    0.0000
     24 N1        -1.5830    9.0875   22.0449 N.pl3     1 RES1    0.0000
     25 N2         1.5897   10.0525   23.7659 N.pl3     1 RES1    0.0000
     26 N3         1.1826    7.1349   19.7310 N.pl3     1 RES1    0.0000
     27 N4         3.7295    5.6881   23.6284 N.pl3     1 RES1    0.0000
     28 N5         2.6933   10.4913   19.9555 N.pl3     1 RES1    0.0000
     29 N6         1.5291   14.2663   20.3172 N.pl3     1 RES1    0.0000
     30 N7         1.1002   11.0701   16.4909 N.pl3     1 RES1    0.0000
     31 N8         3.9145   15.0614   16.1473 N.pl3     1 RES1    0.0000
     32 N9        -1.6183   12.6245   18.7401 N.pl3     1 RES1    0.0000
     33 O1        -2.6159    9.5599   22.4662 O.2       1 RES1    0.0000
     34 O2        -1.1607    7.9815   22.3191 O.2       1 RES1    0.0000
     35 O3         1.7731    9.9951   24.9681 O.2       1 RES1    0.0000
     36 O4         1.2415   11.0509   23.1672 O.2       1 RES1    0.0000
     37 O5         0.2136    7.7340   19.3127 O.2       1 RES1    0.0000
     38 O6         1.7798    6.2764   19.1030 O.2       1 RES1    0.0000
     39 O7         4.1921    4.8116   22.9163 O.2       1 RES1    0.0000
     40 O8         3.9381    5.8112   24.8353 O.2       1 RES1    0.0000
     41 O9         3.1390    9.3817   19.7412 O.2       1 RES1    0.0000
     42 O10        3.3661   11.4934   20.0368 O.2       1 RES1    0.0000
     43 O11        1.6503   15.4345   20.5380 O.2       1 RES1    0.0000
     44 O12        1.1237   13.4759   21.1411 O.2       1 RES1    0.0000
     45 O13        0.3953   10.3263   17.1370 O.2       1 RES1    0.0000
     46 O14        1.2987   10.9421   15.2897 O.2       1 RES1    0.0000
     47 O15        3.9364   14.8844   14.9349 O.2       1 RES1    0.0000
     48 O16        4.5555   15.8913   16.7524 O.2       1 RES1    0.0000
     49 O17       -1.0766   13.6385   18.3295 O.2       1 RES1    0.0000
     50 O18       -2.7790   12.3471   18.5701 O.2       1 RES1    0.0000
@<TRIPOS>BOND
     1    1    2 ar
     2    2    3 ar
     3    3    4 ar
     4    4    5 ar
     5    5    6 ar
     6    6    1 ar
     7    7    6 1
     8    8    9 ar
     9    9    2 1
    10   10    9 ar
    11   11   10 ar
    12   12   11 1
    13   13   11 ar
    14   14    8 ar
    15   15   14 1
    16   16   17 ar
    17   17    4 1
    18   18   17 ar
    19   19   18 ar
    20   20   19 1
    21   21   19 ar
    22   22   16 ar
    23   23   22 1
    24   24    1 1
    25   25    8 1
    26   26   10 1
    27   27   13 1
    28   28    3 1
    29   29   16 1
    30   30   18 1
    31   31   21 1
    32   32    5 1
    33   33   24 2
    34   34   24 2
    35   35   25 2
    36   36   25 2
    37   37   26 2
    38   38   26 2
    39   39   27 2
    40   40   27 2
    41   41   28 2
    42   42   28 2
    43   43   29 2
    44   44   29 2
    45   45   30 2
    46   46   30 2
    47   47   31 2
    48   48   31 2
    49   49   32 2
    50   50   32 2
    51   13   14 ar
    52   21   22 ar
@<TRIPOS>SUBSTRUCTURE
     1 RES1 1

@<TRIPOS>CRYSIN
  16.8223   11.9573   23.0972  90.0000  90.0000  90.0000  61 1

