# MOL2 file generated by ConQuest
# Please check atom types

@<TRIPOS>MOLECULE
DIDYOE
    24    24     1
SMALL
NO_CHARGES
****
Generated from CSD

@<TRIPOS>ATOM
      1 O1         4.2528    3.5815    1.2373 O.3       1 RES1    0.0000
      2 O2         1.7258    4.5897    3.6795 O.3       1 RES1    0.0000
      3 O3         0.7133    3.6691    1.2086 O.3       1 RES1    0.0000
      4 O4         1.2310    1.2086    3.6701 O.2       1 RES1    0.0000
      5 O5        -0.5729    2.1419    2.7529 O.3       1 RES1    0.0000
      6 N1         5.5786    3.5788    1.6882 N.2       1 RES1    0.0000
      7 C1         5.6823    4.4895    2.5395 C.2       1 RES1    0.0000
      8 C2         4.4919    5.2649    2.8517 C.3       1 RES1    0.0000
      9 C3         3.4839    4.5121    2.0356 C.3       1 RES1    0.0000
     10 C4         2.4821    3.7142    2.8484 C.3       1 RES1    0.0000
     11 C5         1.5480    2.8585    1.9970 C.3       1 RES1    0.0000
     12 C6         0.7220    1.9695    2.9006 C.2       1 RES1    0.0000
     13 C7        -1.4031    1.3575    3.6584 C.3       1 RES1    0.0000
     14 H1         1.1016    4.9282    3.1779 H         1 RES1    0.0000
     15 H2         1.0467    3.9985    0.4043 H         1 RES1    0.0000
     16 H3         6.4543    4.5762    3.0087 H         1 RES1    0.0000
     17 H4         4.3361    5.2351    3.7891 H         1 RES1    0.0000
     18 H5         4.6124    6.2099    2.4869 H         1 RES1    0.0000
     19 H6         3.0275    5.0816    1.3962 H         1 RES1    0.0000
     20 H7         2.9762    3.2133    3.4741 H         1 RES1    0.0000
     21 H8         2.0590    2.2836    1.4432 H         1 RES1    0.0000
     22 H9        -2.1241    1.3720    3.1591 H         1 RES1    0.0000
     23 H10       -1.3992    1.7420    4.5694 H         1 RES1    0.0000
     24 H11       -1.1349    0.3610    3.4882 H         1 RES1    0.0000
@<TRIPOS>BOND
     1    1    6 1
     2    2   10 1
     3    3   11 1
     4    4   12 2
     5    5   12 1
     6    6    7 2
     7    7    8 1
     8    8    9 1
     9    9    1 1
    10   10    9 1
    11   11   10 1
    12   12   11 1
    13   13    5 1
    14   14    2 1
    15   15    3 1
    16   16    7 1
    17   17    8 1
    18   18    8 1
    19   19    9 1
    20   20   10 1
    21   21   11 1
    22   22   13 1
    23   23   13 1
    24   24   13 1
@<TRIPOS>SUBSTRUCTURE
     1 RES1 1

@<TRIPOS>CRYSIN
  20.5520    9.0260    4.7080  90.0000  93.1100  90.0000 231 1

