# MOL2 file generated by ConQuest
# Please check atom types

@<TRIPOS>MOLECULE
DIFJOR
   168   178     2
SMALL
NO_CHARGES
****
Generated from CSD

@<TRIPOS>ATOM
      1 C1        10.6506   14.4050   12.6795 C.2       1 RES1    0.0000
      2 N1        10.0346   14.5104   13.7869 N.2       1 RES1    0.0000
      3 O1         9.9489   13.2383   14.4684 O.3       1 RES1    0.0000
      4 C2        10.8026   15.6594   11.8489 C.3       1 RES1    0.0000
      5 O2         9.8178   16.6328   12.1878 O.3       1 RES1    0.0000
      6 C3        10.6433   15.3527   10.3785 C.3       1 RES1    0.0000
      7 O3        11.0488   16.5221    9.6378 O.3       1 RES1    0.0000
      8 C4        11.5579   14.2039   10.0049 C.3       1 RES1    0.0000
      9 O4        11.2870   13.9169    8.6103 O.3       1 RES1    0.0000
     10 C5        11.2190   12.9753   10.8409 C.3       1 RES1    0.0000
     11 O5        11.2931   13.2982   12.2581 O.3       1 RES1    0.0000
     12 C6        12.2033   11.8408   10.6446 C.3       1 RES1    0.0000
     13 O6        11.8027   10.7079   11.4336 O.3       1 RES1    0.0000
     14 C7        10.7340   13.2256   15.5893 C.2       1 RES1    0.0000
     15 O7        11.6091   14.0107   15.7855 O.2       1 RES1    0.0000
     16 C8        10.3233   12.1152   16.4965 C.ar      1 RES1    0.0000
     17 C9         9.2299   11.3088   16.2452 C.ar      1 RES1    0.0000
     18 C10        8.8642   10.3242   17.1658 C.ar      1 RES1    0.0000
     19 C11        9.5888   10.1647   18.3270 C.ar      1 RES1    0.0000
     20 C12       10.6739   10.9726   18.5851 C.ar      1 RES1    0.0000
     21 C13       11.0471   11.9586   17.6765 C.ar      1 RES1    0.0000
     22 C14       10.1153   17.4291   13.2561 C.2       1 RES1    0.0000
     23 O8        11.1655   17.3686   13.8541 O.2       1 RES1    0.0000
     24 C15        8.9914   18.3236   13.5907 C.ar      1 RES1    0.0000
     25 C16        8.9752   18.8637   14.8743 C.ar      1 RES1    0.0000
     26 C17        7.9160   19.6660   15.2667 C.ar      1 RES1    0.0000
     27 C18        6.8851   19.9486   14.3837 C.ar      1 RES1    0.0000
     28 C19        6.9092   19.4232   13.0921 C.ar      1 RES1    0.0000
     29 C20        7.9551   18.6055   12.6969 C.ar      1 RES1    0.0000
     30 C21       10.1584   17.0372    8.7617 C.2       1 RES1    0.0000
     31 O9         9.0803   16.5468    8.5506 O.2       1 RES1    0.0000
     32 C22       10.6761   18.2660    8.0977 C.ar      1 RES1    0.0000
     33 C23       11.9343   18.7801    8.3759 C.ar      1 RES1    0.0000
     34 C24       12.3605   19.9345    7.7147 C.ar      1 RES1    0.0000
     35 C25       11.5229   20.5583    6.8007 C.ar      1 RES1    0.0000
     36 C26       10.2910   20.0395    6.5239 C.ar      1 RES1    0.0000
     37 C27        9.8514   18.8873    7.1690 C.ar      1 RES1    0.0000
     38 C28       12.3598   13.7522    7.7993 C.2       1 RES1    0.0000
     39 O10       13.4799   13.5973    8.2214 O.2       1 RES1    0.0000
     40 C29       11.9896   13.7881    6.3706 C.ar      1 RES1    0.0000
     41 C30       10.7184   14.1673    5.9486 C.ar      1 RES1    0.0000
     42 C31       10.4410   14.2303    4.5885 C.ar      1 RES1    0.0000
     43 C32       11.4257   13.9170    3.6571 C.ar      1 RES1    0.0000
     44 C33       12.6803   13.5394    4.0737 C.ar      1 RES1    0.0000
     45 C34       12.9779   13.4596    5.4312 C.ar      1 RES1    0.0000
     46 C35       10.9468    9.8365   10.8422 C.2       1 RES1    0.0000
     47 O11       10.6251    9.9181    9.6877 O.2       1 RES1    0.0000
     48 C36       10.4879    8.7981   11.8045 C.ar      1 RES1    0.0000
     49 C37        9.9257    7.6375   11.3099 C.ar      1 RES1    0.0000
     50 C38        9.5016    6.6394   12.1755 C.ar      1 RES1    0.0000
     51 C39        9.6068    6.8196   13.5343 C.ar      1 RES1    0.0000
     52 C40       10.1455    7.9776   14.0316 C.ar      1 RES1    0.0000
     53 C41       10.6004    8.9707   13.1727 C.ar      1 RES1    0.0000
     54 C42        5.8401   16.7071    8.8033 C.2       2 RES2    0.0000
     55 N2         5.9288   17.8351    9.3880 N.2       2 RES2    0.0000
     56 O12        6.1001   18.8363    8.3761 O.3       2 RES2    0.0000
     57 C43        5.6452   15.4538    9.6245 C.3       2 RES2    0.0000
     58 O13        5.9169   15.6643   11.0020 O.3       2 RES2    0.0000
     59 C44        6.5967   14.3708    9.1286 C.3       2 RES2    0.0000
     60 O14        6.2788   13.1437    9.8084 O.3       2 RES2    0.0000
     61 C45        6.3714   14.1502    7.6434 C.3       2 RES2    0.0000
     62 O15        7.4065   13.2355    7.2172 O.3       2 RES2    0.0000
     63 C46        6.5781   15.4648    6.8827 C.3       2 RES2    0.0000
     64 O16        5.7964   16.5437    7.4624 O.3       2 RES2    0.0000
     65 C47        6.1205   15.3974    5.4473 C.3       2 RES2    0.0000
     66 O17        6.7187   16.5118    4.7660 O.3       2 RES2    0.0000
     67 C48        6.4290   20.0536    8.8961 C.2       2 RES2    0.0000
     68 O18        6.4766   20.2953   10.0627 O.2       2 RES2    0.0000
     69 C49        6.7292   21.0113    7.8047 C.ar      2 RES2    0.0000
     70 C50        6.6930   20.6572    6.4540 C.ar      2 RES2    0.0000
     71 C51        7.0257   21.5961    5.4849 C.ar      2 RES2    0.0000
     72 C52        7.3985   22.8835    5.8626 C.ar      2 RES2    0.0000
     73 C53        7.4344   23.2374    7.2039 C.ar      2 RES2    0.0000
     74 C54        7.0954   22.3028    8.1770 C.ar      2 RES2    0.0000
     75 C55        4.8461   15.9014   11.7965 C.2       2 RES2    0.0000
     76 O19        3.7260   16.0208   11.3556 O.2       2 RES2    0.0000
     77 C56        5.2165   15.9598   13.2292 C.ar      2 RES2    0.0000
     78 C57        4.1965   16.1715   14.1606 C.ar      2 RES2    0.0000
     79 C58        4.5023   16.2025   15.5180 C.ar      2 RES2    0.0000
     80 C59        5.8096   16.0225   15.9333 C.ar      2 RES2    0.0000
     81 C60        6.8280   15.8073   15.0087 C.ar      2 RES2    0.0000
     82 C61        6.5334   15.7723   13.6512 C.ar      2 RES2    0.0000
     83 C62        7.1434   12.7520   10.7858 C.2       2 RES2    0.0000
     84 O20        8.1287   13.3763   11.0895 O.2       2 RES2    0.0000
     85 C63        6.7189   11.4877   11.4309 C.ar      2 RES2    0.0000
     86 C64        5.6289   10.7437   10.9712 C.ar      2 RES2    0.0000
     87 C65        5.2762    9.5615   11.6164 C.ar      2 RES2    0.0000
     88 C66        6.0021    9.1276   12.7131 C.ar      2 RES2    0.0000
     89 C67        7.0786    9.8587   13.1700 C.ar      2 RES2    0.0000
     90 C68        7.4428   11.0411   12.5343 C.ar      2 RES2    0.0000
     91 C69        7.0782   12.3302    6.2524 C.2       2 RES2    0.0000
     92 O21        5.9863   12.2679    5.7443 O.2       2 RES2    0.0000
     93 C70        8.2496   11.5011    5.8734 C.ar      2 RES2    0.0000
     94 C71        9.2522   11.1528    6.7792 C.ar      2 RES2    0.0000
     95 C72       10.3357   10.4019    6.3276 C.ar      2 RES2    0.0000
     96 C73       10.4239   10.0442    4.9957 C.ar      2 RES2    0.0000
     97 C74        9.4389   10.3998    4.0885 C.ar      2 RES2    0.0000
     98 C75        8.3307   11.1158    4.5347 C.ar      2 RES2    0.0000
     99 C76        6.2195   16.7643    3.5334 C.2       2 RES2    0.0000
    100 O22        5.2946   16.1512    3.0751 O.2       2 RES2    0.0000
    101 C77        6.9690   17.8447    2.8399 C.ar      2 RES2    0.0000
    102 C78        6.4989   18.2481    1.5886 C.ar      2 RES2    0.0000
    103 C79        7.1693   19.2552    0.9005 C.ar      2 RES2    0.0000
    104 C80        8.2800   19.8299    1.4327 C.ar      2 RES2    0.0000
    105 C81        8.7479   19.4457    2.6773 C.ar      2 RES2    0.0000
    106 C82        8.0884   18.4451    3.3896 C.ar      2 RES2    0.0000
    107 H1        11.6725   15.9671   11.9752 H         1 RES1    0.0000
    108 H2         9.7778   15.1482   10.1742 H         1 RES1    0.0000
    109 H3        12.4969   14.4469   10.1205 H         1 RES1    0.0000
    110 H4        10.3715   12.6270   10.6446 H         1 RES1    0.0000
    111 H5        13.0119   12.1611   10.9538 H         1 RES1    0.0000
    112 H6        12.1792   11.6302    9.7576 H         1 RES1    0.0000
    113 H7         8.6480   11.4612   15.5100 H         1 RES1    0.0000
    114 H8         8.0966    9.7415   16.9884 H         1 RES1    0.0000
    115 H9         9.3420    9.4887   18.9641 H         1 RES1    0.0000
    116 H10       11.1588   10.8223   19.3942 H         1 RES1    0.0000
    117 H11       11.7893   12.6011   17.7814 H         1 RES1    0.0000
    118 H12        9.6773   18.5811   15.4831 H         1 RES1    0.0000
    119 H13        7.8789   20.0426   16.2089 H         1 RES1    0.0000
    120 H14        6.1904   20.4888   14.6498 H         1 RES1    0.0000
    121 H15        6.1922   19.6257   12.4456 H         1 RES1    0.0000
    122 H16        7.9292   18.1977   11.8274 H         1 RES1    0.0000
    123 H17       12.4952   18.3404    9.0856 H         1 RES1    0.0000
    124 H18       13.1851   20.2910    7.9297 H         1 RES1    0.0000
    125 H19       11.8426   21.4123    6.4244 H         1 RES1    0.0000
    126 H20        9.7031   20.4913    5.8330 H         1 RES1    0.0000
    127 H21        8.9219   18.5524    7.0158 H         1 RES1    0.0000
    128 H22       10.0006   14.4405    6.6126 H         1 RES1    0.0000
    129 H23        9.5262   14.5333    4.3277 H         1 RES1    0.0000
    130 H24       11.1789   14.0552    2.7418 H         1 RES1    0.0000
    131 H25       13.3064   13.2627    3.4407 H         1 RES1    0.0000
    132 H26       13.8478   13.0786    5.7255 H         1 RES1    0.0000
    133 H27        9.8611    7.5997   10.2952 H         1 RES1    0.0000
    134 H28        9.1796    5.8874   11.8811 H         1 RES1    0.0000
    135 H29        9.2656    6.1219   14.1391 H         1 RES1    0.0000
    136 H30       10.2349    8.1283   14.9186 H         1 RES1    0.0000
    137 H31       10.9967    9.8235   13.5343 H         1 RES1    0.0000
    138 H32        4.7407   15.1585    9.4753 H         2 RES2    0.0000
    139 H33        7.5272   14.6265    9.3006 H         2 RES2    0.0000
    140 H34        5.5353   13.7438    7.4727 H         2 RES2    0.0000
    141 H35        7.5034   15.6448    6.8948 H         2 RES2    0.0000
    142 H36        5.2294   15.4305    5.3761 H         2 RES2    0.0000
    143 H37        6.4858   14.6520    5.0535 H         2 RES2    0.0000
    144 H38        6.4046   19.7489    6.1959 H         2 RES2    0.0000
    145 H39        7.0138   21.2944    4.5562 H         2 RES2    0.0000
    146 H40        7.5717   23.5322    5.1476 H         2 RES2    0.0000
    147 H41        7.7155   24.1697    7.5534 H         2 RES2    0.0000
    148 H42        7.0407   22.5717    9.0721 H         2 RES2    0.0000
    149 H43        3.3044   16.2589   13.8837 H         2 RES2    0.0000
    150 H44        3.7740   16.3297   16.1551 H         2 RES2    0.0000
    151 H45        6.0365   16.1036   16.8674 H         2 RES2    0.0000
    152 H46        7.6660   15.7182   15.2546 H         2 RES2    0.0000
    153 H47        7.1833   15.6127   13.0235 H         2 RES2    0.0000
    154 H48        5.1845   11.0269   10.2011 H         2 RES2    0.0000
    155 H49        4.5260    9.0211   11.2898 H         2 RES2    0.0000
    156 H50        5.7726    8.3365   13.1714 H         2 RES2    0.0000
    157 H51        7.5334    9.6127   13.9509 H         2 RES2    0.0000
    158 H52        8.1624   11.6027   12.9160 H         2 RES2    0.0000
    159 H53        9.1254   11.3917    7.7012 H         2 RES2    0.0000
    160 H54       10.9507   10.1054    6.9889 H         2 RES2    0.0000
    161 H55       11.2832    9.5985    4.7041 H         2 RES2    0.0000
    162 H56        9.5631   10.1607    3.1719 H         2 RES2    0.0000
    163 H57        7.6872   11.3920    3.9380 H         2 RES2    0.0000
    164 H58        5.7720   17.8101    1.2365 H         2 RES2    0.0000
    165 H59        6.7790   19.6273    0.0134 H         2 RES2    0.0000
    166 H60        8.7539   20.5431    0.9543 H         2 RES2    0.0000
    167 H61        9.5441   19.8501    2.9972 H         2 RES2    0.0000
    168 H62        8.3482   18.1691    4.2337 H         2 RES2    0.0000
@<TRIPOS>BOND
     1    1    2 2
     2    2    3 1
     3    3   14 1
     4    4    1 1
     5    5    4 1
     6    6    4 1
     7    7    6 1
     8    8    6 1
     9    9    8 1
    10   10    8 1
    11   11    1 1
    12   12   10 1
    13   13   12 1
    14   14   15 2
    15   16   14 1
    16   17   16 ar
    17   18   17 ar
    18   19   18 ar
    19   20   19 ar
    20   21   16 ar
    21   22    5 1
    22   23   22 2
    23   24   22 1
    24   25   24 ar
    25   26   25 ar
    26   27   26 ar
    27   28   27 ar
    28   29   24 ar
    29   30    7 1
    30   31   30 2
    31   32   30 1
    32   33   32 ar
    33   34   33 ar
    34   35   34 ar
    35   36   35 ar
    36   37   32 ar
    37   38    9 1
    38   39   38 2
    39   40   38 1
    40   41   40 ar
    41   42   41 ar
    42   43   42 ar
    43   44   43 ar
    44   45   40 ar
    45   46   13 1
    46   47   46 2
    47   48   46 1
    48   49   48 ar
    49   50   49 ar
    50   51   50 ar
    51   52   51 ar
    52   53   48 ar
    53   54   55 2
    54   55   56 1
    55   56   67 1
    56   57   54 1
    57   58   57 1
    58   59   57 1
    59   60   59 1
    60   61   59 1
    61   62   61 1
    62   63   61 1
    63   64   54 1
    64   65   63 1
    65   66   65 1
    66   67   68 2
    67   69   67 1
    68   70   69 ar
    69   71   70 ar
    70   72   71 ar
    71   73   72 ar
    72   74   69 ar
    73   75   58 1
    74   76   75 2
    75   77   75 1
    76   78   77 ar
    77   79   78 ar
    78   80   79 ar
    79   81   80 ar
    80   82   77 ar
    81   83   60 1
    82   84   83 2
    83   85   83 1
    84   86   85 ar
    85   87   86 ar
    86   88   87 ar
    87   89   88 ar
    88   90   85 ar
    89   91   62 1
    90   92   91 2
    91   93   91 1
    92   94   93 ar
    93   95   94 ar
    94   96   95 ar
    95   97   96 ar
    96   98   93 ar
    97   99   66 1
    98  100   99 2
    99  101   99 1
   100  102  101 ar
   101  103  102 ar
   102  104  103 ar
   103  105  104 ar
   104  106  101 ar
   105  107    4 1
   106  108    6 1
   107  109    8 1
   108  110   10 1
   109  111   12 1
   110  112   12 1
   111  113   17 1
   112  114   18 1
   113  115   19 1
   114  116   20 1
   115  117   21 1
   116  118   25 1
   117  119   26 1
   118  120   27 1
   119  121   28 1
   120  122   29 1
   121  123   33 1
   122  124   34 1
   123  125   35 1
   124  126   36 1
   125  127   37 1
   126  128   41 1
   127  129   42 1
   128  130   43 1
   129  131   44 1
   130  132   45 1
   131  133   49 1
   132  134   50 1
   133  135   51 1
   134  136   52 1
   135  137   53 1
   136  138   57 1
   137  139   59 1
   138  140   61 1
   139  141   63 1
   140  142   65 1
   141  143   65 1
   142  144   70 1
   143  145   71 1
   144  146   72 1
   145  147   73 1
   146  148   74 1
   147  149   78 1
   148  150   79 1
   149  151   80 1
   150  152   81 1
   151  153   82 1
   152  154   86 1
   153  155   87 1
   154  156   88 1
   155  157   89 1
   156  158   90 1
   157  159   94 1
   158  160   95 1
   159  161   96 1
   160  162   97 1
   161  163   98 1
   162  164  102 1
   163  165  103 1
   164  166  104 1
   165  167  105 1
   166  168  106 1
   167   10   11 1
   168   20   21 ar
   169   28   29 ar
   170   36   37 ar
   171   44   45 ar
   172   52   53 ar
   173   63   64 1
   174   73   74 ar
   175   81   82 ar
   176   89   90 ar
   177   97   98 ar
   178  105  106 ar
@<TRIPOS>SUBSTRUCTURE
     1 RES1 1
     2 RES2 54

@<TRIPOS>CRYSIN
  10.2410   13.5270   14.6530  66.9800  88.2200  74.5400   1 1

