# MOL2 file generated by ConQuest
# Please check atom types

@<TRIPOS>MOLECULE
DIFJIL
    30    30     1
SMALL
NO_CHARGES
****
Generated from CSD

@<TRIPOS>ATOM
      1 C1         4.1885    2.2463   13.4006 C.2       1 RES1    0.0000
      2 N1         3.9995    0.9936   13.3741 N.2       1 RES1    0.0000
      3 O1         3.1857    0.5584   14.4457 O.3       1 RES1    0.0000
      4 C2         5.0489    2.9629   12.3960 C.3       1 RES1    0.0000
      5 N2         6.4549    2.8577   12.7752 N.am      1 RES1    0.0000
      6 C3         4.4404    4.3704   12.4557 C.3       1 RES1    0.0000
      7 O2         3.3002    4.4038   11.6175 O.3       1 RES1    0.0000
      8 C4         3.9930    4.4816   13.9110 C.3       1 RES1    0.0000
      9 O3         3.6568    3.1023   14.3045 O.3       1 RES1    0.0000
     10 C5         2.7465    5.3153   14.1827 C.3       1 RES1    0.0000
     11 O4         2.9158    6.5937   13.5662 O.3       1 RES1    0.0000
     12 C6         2.4807    5.5222   15.6678 C.3       1 RES1    0.0000
     13 O5         3.3100    6.5509   16.1731 O.3       1 RES1    0.0000
     14 C7         7.4265    2.7030   11.8811 C.2       1 RES1    0.0000
     15 O6         7.1926    2.7406   10.6634 O.2       1 RES1    0.0000
     16 C8         8.8055    2.4687   12.4080 C.3       1 RES1    0.0000
     17 H1         3.1407   -0.3335   14.3140 H         1 RES1    0.0000
     18 H2         4.9238    2.6252   11.5229 H         1 RES1    0.0000
     19 H3         6.6741    2.9159   13.6424 H         1 RES1    0.0000
     20 H4         5.0301    5.0280   12.2244 H         1 RES1    0.0000
     21 H5         3.5742    4.5064   10.8363 H         1 RES1    0.0000
     22 H6         4.6947    4.7800   14.4484 H         1 RES1    0.0000
     23 H7         2.0284    4.8741   13.8066 H         1 RES1    0.0000
     24 H8         2.2901    6.6869   12.8811 H         1 RES1    0.0000
     25 H9         1.5540    5.8061   15.7469 H         1 RES1    0.0000
     26 H10        2.5927    4.6859   16.1350 H         1 RES1    0.0000
     27 H11        3.8114    6.2850   16.8067 H         1 RES1    0.0000
     28 H12        8.8742    2.5482   13.3140 H         1 RES1    0.0000
     29 H13        9.0051    1.5306   12.1498 H         1 RES1    0.0000
     30 H14        9.3650    3.0356   11.9259 H         1 RES1    0.0000
@<TRIPOS>BOND
     1    1    2 2
     2    2    3 1
     3    3   17 1
     4    4    1 1
     5    5    4 1
     6    6    4 1
     7    7    6 1
     8    8    6 1
     9    9    1 1
    10   10    8 1
    11   11   10 1
    12   12   10 1
    13   13   12 1
    14   14    5 1
    15   15   14 2
    16   16   14 1
    17   18    4 1
    18   19    5 1
    19   20    6 1
    20   21    7 1
    21   22    8 1
    22   23   10 1
    23   24   11 1
    24   25   12 1
    25   26   12 1
    26   27   13 1
    27   28   16 1
    28   29   16 1
    29   30   16 1
    30    8    9 1
@<TRIPOS>SUBSTRUCTURE
     1 RES1 1

@<TRIPOS>CRYSIN
   8.1790    8.5510   14.9260  90.0000  90.0000  90.0000  19 1

