# MOL2 file generated by ConQuest
# Please check atom types

@<TRIPOS>MOLECULE
DIFLIN
    53    57     1
SMALL
NO_CHARGES
****
Generated from CSD

@<TRIPOS>ATOM
      1 C1         1.4407    2.7726    5.7193 C.2       1 RES1    0.0000
      2 O1         1.1505    2.1550    4.7271 O.2       1 RES1    0.0000
      3 C2         2.6487    3.7065    5.8029 C.3       1 RES1    0.0000
      4 O2         2.3213    4.7810    6.7023 O.3       1 RES1    0.0000
      5 C3         3.8148    2.9875    6.4977 C.3       1 RES1    0.0000
      6 C4         4.5974    4.1524    7.0993 C.3       1 RES1    0.0000
      7 N1         3.5900    5.2449    7.3046 N.3       1 RES1    0.0000
      8 C5         5.2314    3.9274    8.4823 C.3       1 RES1    0.0000
      9 C6         4.8066    5.1596    9.2838 C.3       1 RES1    0.0000
     10 C7         3.4025    5.4106    8.7663 C.3       1 RES1    0.0000
     11 O3         2.9654    6.7442    9.0481 O.3       1 RES1    0.0000
     12 C8         2.2940    4.5259    9.3565 C.3       1 RES1    0.0000
     13 O4         2.5391    4.3512   10.7530 O.3       1 RES1    0.0000
     14 C9         1.0338    5.4096    9.3080 C.3       1 RES1    0.0000
     15 O5         0.6122    5.5241   10.6793 O.3       1 RES1    0.0000
     16 C10        1.5519    6.7573    8.8023 C.3       1 RES1    0.0000
     17 C11        0.9117    7.9523    9.4580 C.3       1 RES1    0.0000
     18 O6         1.2703    9.1352    8.6961 O.3       1 RES1    0.0000
     19 C12        1.3917    8.2897   10.8764 C.3       1 RES1    0.0000
     20 O7         1.8491    9.6564   10.7669 O.3       1 RES1    0.0000
     21 C13       -0.2225    1.6368    6.9291 C.3       1 RES1    0.0000
     22 O8         0.7942    2.6662    6.8794 O.3       1 RES1    0.0000
     23 C14        3.0120    4.2407    4.4243 C.3       1 RES1    0.0000
     24 C15        1.2734    4.4777   11.4061 C.3       1 RES1    0.0000
     25 C16        1.5208    4.9387   12.8212 C.3       1 RES1    0.0000
     26 C17        0.4776    3.1893   11.3291 C.3       1 RES1    0.0000
     27 C18        1.8110   10.0631    9.4941 C.2       1 RES1    0.0000
     28 O9         2.2193   11.1225    9.1150 O.2       1 RES1    0.0000
     29 H1         3.5317    2.4000    7.1789 H         1 RES1    0.0000
     30 H2         4.3640    2.5005    5.8745 H         1 RES1    0.0000
     31 H3         5.2742    4.4988    6.4725 H         1 RES1    0.0000
     32 H4         6.1843    3.8360    8.4126 H         1 RES1    0.0000
     33 H5         4.8930    3.1231    8.8506 H         1 RES1    0.0000
     34 H6         5.3753    5.9147    9.0813 H         1 RES1    0.0000
     35 H7         4.7996    5.0411   10.2538 H         1 RES1    0.0000
     36 H8         2.2092    3.6854    8.9353 H         1 RES1    0.0000
     37 H9         0.3112    5.0511    8.7893 H         1 RES1    0.0000
     38 H10        1.3847    6.8085    7.7793 H         1 RES1    0.0000
     39 H11       -0.0622    7.8830    9.4368 H         1 RES1    0.0000
     40 H12        2.1937    7.7625   11.1509 H         1 RES1    0.0000
     41 H13        0.6534    8.2847   11.5559 H         1 RES1    0.0000
     42 H14       -0.9957    1.8779    6.3878 H         1 RES1    0.0000
     43 H15        0.1245    0.8234    6.5691 H         1 RES1    0.0000
     44 H16       -0.5134    1.5364    7.9818 H         1 RES1    0.0000
     45 H17        3.2516    3.4846    3.8614 H         1 RES1    0.0000
     46 H18        3.7884    4.8804    4.4877 H         1 RES1    0.0000
     47 H19        2.2481    4.7398    3.9909 H         1 RES1    0.0000
     48 H20        2.0225    5.7541   12.8603 H         1 RES1    0.0000
     49 H21        2.1081    4.2277   13.2794 H         1 RES1    0.0000
     50 H22        0.7079    5.0310   13.3029 H         1 RES1    0.0000
     51 H23       -0.3501    3.3139   11.7654 H         1 RES1    0.0000
     52 H24        0.2800    2.9624   10.4281 H         1 RES1    0.0000
     53 H25        0.9413    2.4703   11.7960 H         1 RES1    0.0000
@<TRIPOS>BOND
     1    1    2 2
     2    3    1 1
     3    4    3 1
     4    5    3 1
     5    6    5 1
     6    7    4 1
     7    8    6 1
     8    9    8 1
     9   10    7 1
    10   11   10 1
    11   12   10 1
    12   13   12 1
    13   14   12 1
    14   15   14 1
    15   16   11 1
    16   17   16 1
    17   18   17 1
    18   19   17 1
    19   20   19 1
    20   21   22 1
    21   22    1 1
    22   23    3 1
    23   24   13 1
    24   25   24 1
    25   26   24 1
    26   27   18 1
    27   28   27 2
    28   29    5 1
    29   30    5 1
    30   31    6 1
    31   32    8 1
    32   33    8 1
    33   34    9 1
    34   35    9 1
    35   36   12 1
    36   37   14 1
    37   38   16 1
    38   39   17 1
    39   40   19 1
    40   41   19 1
    41   42   21 1
    42   43   21 1
    43   44   21 1
    44   45   23 1
    45   46   23 1
    46   47   23 1
    47   48   25 1
    48   49   25 1
    49   50   25 1
    50   51   26 1
    51   52   26 1
    52   53   26 1
    53    6    7 1
    54    9   10 1
    55   14   16 1
    56   15   24 1
    57   20   27 1
@<TRIPOS>SUBSTRUCTURE
     1 RES1 1

@<TRIPOS>CRYSIN
   7.7790   10.0420   23.5450  90.0000  90.0000  90.0000  19 1

