# MOL2 file generated by ConQuest
# Please check atom types

@<TRIPOS>MOLECULE
DIFPUF01
    58    62     2
SMALL
NO_CHARGES
****
Generated from CSD

@<TRIPOS>ATOM
      1 C1         3.9472    7.3129    6.7339 C.2       1 RES1    0.0000
      2 C2         4.2443    8.2885    7.7168 C.2       1 RES1    0.0000
      3 H1         4.5223    8.0392    8.5905 H         1 RES1    0.0000
      4 C3         4.1167    9.6064    7.3605 C.2       1 RES1    0.0000
      5 H2         4.2944   10.2791    8.0075 H         1 RES1    0.0000
      6 C4         3.7230    9.9944    6.0444 C.2       1 RES1    0.0000
      7 H3         3.6624   10.9197    5.8359 H         1 RES1    0.0000
      8 C5         3.4322    9.0809    5.0841 C.2       1 RES1    0.0000
      9 H4         3.1739    9.3518    4.2108 H         1 RES1    0.0000
     10 C6         3.5282    7.7045    5.4278 C.2       1 RES1    0.0000
     11 C7         3.2978    6.5159    4.7524 C.2       1 RES1    0.0000
     12 H5         3.0097    6.4160    3.8531 H         1 RES1    0.0000
     13 N1         3.5706    5.5222    5.6427 N.pl3     1 RES1    0.0000
     14 N2         3.9805    5.9702    6.8692 N.2       1 RES1    0.0000
     15 C8         3.5188    4.1364    5.3950 C.ar      1 RES1    0.0000
     16 C9         3.7212    3.6798    4.0949 C.ar      1 RES1    0.0000
     17 H6         3.8917    4.3062    3.4010 H         1 RES1    0.0000
     18 C10        3.6770    2.3236    3.7989 C.ar      1 RES1    0.0000
     19 H7         3.8133    2.0158    2.9109 H         1 RES1    0.0000
     20 C11        3.4295    1.4301    4.8232 C.ar      1 RES1    0.0000
     21 N3         3.3812   -0.0058    4.5231 N.pl3     1 RES1    0.0000
     22 O1         3.0611   -0.7794    5.4219 O.2       1 RES1    0.0000
     23 O2         3.6595   -0.3475    3.3834 O.2       1 RES1    0.0000
     24 C12        3.2519    1.8316    6.1310 C.ar      1 RES1    0.0000
     25 H8         3.0986    1.1994    6.8231 H         1 RES1    0.0000
     26 C13        3.3039    3.1921    6.4002 C.ar      1 RES1    0.0000
     27 N4         3.1244    3.5507    7.8273 N.pl3     1 RES1    0.0000
     28 O3         2.1335    4.1718    8.1548 O.2       1 RES1    0.0000
     29 O4         3.9751    3.1129    8.6008 O.2       1 RES1    0.0000
     30 C14        4.2289   21.1089    9.7203 C.2       2 RES2    0.0000
     31 C15        4.0279   22.1187   10.6965 C.2       2 RES2    0.0000
     32 H9         3.7418   21.8996   11.5761 H         2 RES2    0.0000
     33 C16        4.2575   23.4111   10.3365 C.2       2 RES2    0.0000
     34 H10        4.1385   24.0985   10.9818 H         2 RES2    0.0000
     35 C17        4.6710   23.7622    9.0232 C.2       2 RES2    0.0000
     36 H11        4.8020   24.6789    8.8074 H         2 RES2    0.0000
     37 C18        4.8836   22.8136    8.0637 C.2       2 RES2    0.0000
     38 H12        5.1666   23.0556    7.1893 H         2 RES2    0.0000
     39 C19        4.6700   21.4540    8.4104 C.2       2 RES2    0.0000
     40 C20        4.7830   20.2419    7.7485 C.2       2 RES2    0.0000
     41 H13        5.0671   20.1053    6.8527 H         2 RES2    0.0000
     42 N5         4.4080   19.2901    8.6346 N.pl3     2 RES2    0.0000
     43 N6         4.0549   19.7804    9.8636 N.2       2 RES2    0.0000
     44 C21        4.3254   17.8995    8.3810 C.ar      2 RES2    0.0000
     45 C22        4.0343   17.4696    7.0835 C.ar      2 RES2    0.0000
     46 H14        3.9064   18.1088    6.3936 H         2 RES2    0.0000
     47 C23        3.9310   16.1283    6.7971 C.ar      2 RES2    0.0000
     48 H15        3.7334   15.8400    5.9134 H         2 RES2    0.0000
     49 C24        4.1189   15.1987    7.8119 C.ar      2 RES2    0.0000
     50 N7         4.0373   13.7746    7.4969 N.pl3     2 RES2    0.0000
     51 O5         3.6399   13.4526    6.3812 O.2       2 RES2    0.0000
     52 O6         4.3699   12.9738    8.3627 O.2       2 RES2    0.0000
     53 C25        4.3804   15.5838    9.1091 C.ar      2 RES2    0.0000
     54 H16        4.4893   14.9393    9.7989 H         2 RES2    0.0000
     55 C26        4.4788   16.9347    9.3761 C.ar      2 RES2    0.0000
     56 N8         4.7497   17.2979   10.7814 N.pl3     2 RES2    0.0000
     57 O7         5.7878   17.8802   11.0387 O.2       2 RES2    0.0000
     58 O8         3.9039   16.9376   11.5944 O.2       2 RES2    0.0000
@<TRIPOS>BOND
     1    1    2 1
     2    2    3 1
     3    4    2 2
     4    5    4 1
     5    6    4 1
     6    7    6 1
     7    8    6 2
     8    9    8 1
     9   10    1 1
    10   11   10 2
    11   12   11 1
    12   13   11 1
    13   14    1 2
    14   15   13 1
    15   16   15 ar
    16   17   16 1
    17   18   16 ar
    18   19   18 1
    19   20   18 ar
    20   21   20 1
    21   22   21 2
    22   23   21 2
    23   24   20 ar
    24   25   24 1
    25   26   15 ar
    26   27   26 1
    27   28   27 2
    28   29   27 2
    29   30   31 1
    30   31   32 1
    31   33   31 2
    32   34   33 1
    33   35   33 1
    34   36   35 1
    35   37   35 2
    36   38   37 1
    37   39   30 1
    38   40   39 2
    39   41   40 1
    40   42   40 1
    41   43   30 2
    42   44   42 1
    43   45   44 ar
    44   46   45 1
    45   47   45 ar
    46   48   47 1
    47   49   47 ar
    48   50   49 1
    49   51   50 2
    50   52   50 2
    51   53   49 ar
    52   54   53 1
    53   55   44 ar
    54   56   55 1
    55   57   56 2
    56   58   56 2
    57    8   10 1
    58   13   14 1
    59   24   26 ar
    60   37   39 1
    61   42   43 1
    62   53   55 ar
@<TRIPOS>SUBSTRUCTURE
     1 RES1 1
     2 RES2 30

@<TRIPOS>CRYSIN
   7.0730   24.0840   14.3289  90.0000 100.6330  90.0000  14 1

