# MOL2 file generated by ConQuest
# Please check atom types

@<TRIPOS>MOLECULE
DIFPUF
    58    62     2
SMALL
NO_CHARGES
****
Generated from CSD

@<TRIPOS>ATOM
      1 C1         4.1027    7.2985    6.7511 C.2       1 RES1    0.0000
      2 C2         4.4057    8.2704    7.7234 C.2       1 RES1    0.0000
      3 H1         4.6825    8.0252    8.5781 H         1 RES1    0.0000
      4 C3         4.2796    9.5775    7.3747 C.2       1 RES1    0.0000
      5 H2         4.4773   10.2342    8.0026 H         1 RES1    0.0000
      6 C4         3.8502    9.9671    6.0679 C.2       1 RES1    0.0000
      7 H3         3.7688   10.8719    5.8737 H         1 RES1    0.0000
      8 C5         3.5589    9.0650    5.1069 C.2       1 RES1    0.0000
      9 H4         3.3018    9.3342    4.2550 H         1 RES1    0.0000
     10 C6         3.6608    7.6743    5.4456 C.2       1 RES1    0.0000
     11 C7         3.4209    6.5029    4.7922 C.2       1 RES1    0.0000
     12 H5         3.1174    6.4057    3.9177 H         1 RES1    0.0000
     13 N1         3.7111    5.5065    5.6639 N.pl3     1 RES1    0.0000
     14 N2         4.1332    5.9550    6.8843 N.2       1 RES1    0.0000
     15 C8         3.6481    4.1194    5.4244 C.ar      1 RES1    0.0000
     16 C9         3.8450    3.6545    4.1190 C.ar      1 RES1    0.0000
     17 H6         4.0127    4.2592    3.4329 H         1 RES1    0.0000
     18 C10        3.7913    2.3034    3.8440 C.ar      1 RES1    0.0000
     19 H7         3.9173    1.9973    2.9751 H         1 RES1    0.0000
     20 C11        3.5505    1.4183    4.8603 C.ar      1 RES1    0.0000
     21 N3         3.4953   -0.0099    4.5697 N.pl3     1 RES1    0.0000
     22 O1         3.1933   -0.7806    5.4669 O.2       1 RES1    0.0000
     23 O2         3.7403   -0.3614    3.4358 O.2       1 RES1    0.0000
     24 C12        3.3700    1.8389    6.1586 C.ar      1 RES1    0.0000
     25 H8         3.2080    1.2248    6.8375 H         1 RES1    0.0000
     26 C13        3.4329    3.1728    6.4307 C.ar      1 RES1    0.0000
     27 N4         3.2381    3.5482    7.8510 N.pl3     1 RES1    0.0000
     28 O3         2.2518    4.1897    8.1585 O.2       1 RES1    0.0000
     29 O4         4.0713    3.1131    8.6277 O.2       1 RES1    0.0000
     30 C14        4.3531   21.0868    9.7871 C.2       2 RES2    0.0000
     31 C15        4.1594   22.0965   10.7467 C.2       2 RES2    0.0000
     32 H9         3.8727   21.8858   11.6071 H         2 RES2    0.0000
     33 C16        4.3977   23.3832   10.3966 C.2       2 RES2    0.0000
     34 H10        4.2712   24.0539   11.0274 H         2 RES2    0.0000
     35 C17        4.8352   23.7336    9.0969 C.2       2 RES2    0.0000
     36 H11        4.9785   24.6290    8.8885 H         2 RES2    0.0000
     37 C18        5.0502   22.7821    8.1430 C.2       2 RES2    0.0000
     38 H12        5.3430   23.0191    7.2925 H         2 RES2    0.0000
     39 C19        4.8191   21.4300    8.4775 C.2       2 RES2    0.0000
     40 C20        4.9247   20.2174    7.8311 C.2       2 RES2    0.0000
     41 H13        5.2106   20.0810    6.9552 H         2 RES2    0.0000
     42 N5         4.5381   19.2631    8.7014 N.pl3     2 RES2    0.0000
     43 N6         4.1720   19.7653    9.9260 N.2       2 RES2    0.0000
     44 C21        4.4519   17.8775    8.4548 C.ar      2 RES2    0.0000
     45 C22        4.1612   17.4407    7.1579 C.ar      2 RES2    0.0000
     46 H14        4.0302   18.0645    6.4803 H         2 RES2    0.0000
     47 C23        4.0685   16.1108    6.8758 C.ar      2 RES2    0.0000
     48 H15        3.8853   15.8266    6.0098 H         2 RES2    0.0000
     49 C24        4.2451   15.1971    7.8765 C.ar      2 RES2    0.0000
     50 N7         4.1763   13.7583    7.5817 N.pl3     2 RES2    0.0000
     51 O5         3.7754   13.4337    6.4662 O.2       2 RES2    0.0000
     52 O6         4.4997   12.9645    8.4378 O.2       2 RES2    0.0000
     53 C25        4.5034   15.5727    9.1805 C.ar      2 RES2    0.0000
     54 H16        4.6034   14.9386    9.8538 H         2 RES2    0.0000
     55 C26        4.6083   16.9162    9.4512 C.ar      2 RES2    0.0000
     56 N8         4.8961   17.2817   10.8431 N.pl3     2 RES2    0.0000
     57 O7         5.9286   17.8657   11.0883 O.2       2 RES2    0.0000
     58 O8         4.0699   16.9349   11.6723 O.2       2 RES2    0.0000
@<TRIPOS>BOND
     1    1    2 1
     2    2    3 1
     3    4    2 2
     4    5    4 1
     5    6    4 1
     6    7    6 1
     7    8    6 2
     8    9    8 1
     9   10    1 1
    10   11   10 2
    11   12   11 1
    12   13   11 1
    13   14    1 2
    14   15   13 1
    15   16   15 ar
    16   17   16 1
    17   18   16 ar
    18   19   18 1
    19   20   18 ar
    20   21   20 1
    21   22   21 2
    22   23   21 2
    23   24   20 ar
    24   25   24 1
    25   26   15 ar
    26   27   26 1
    27   28   27 2
    28   29   27 2
    29   30   31 1
    30   31   32 1
    31   33   31 2
    32   34   33 1
    33   35   33 1
    34   36   35 1
    35   37   35 2
    36   38   37 1
    37   39   30 1
    38   40   39 2
    39   41   40 1
    40   42   40 1
    41   43   30 2
    42   44   42 1
    43   45   44 ar
    44   46   45 1
    45   47   45 ar
    46   48   47 1
    47   49   47 ar
    48   50   49 1
    49   51   50 2
    50   52   50 2
    51   53   49 ar
    52   54   53 1
    53   55   44 ar
    54   56   55 1
    55   57   56 2
    56   58   56 2
    57    8   10 1
    58   13   14 1
    59   24   26 ar
    60   37   39 1
    61   42   43 1
    62   53   55 ar
@<TRIPOS>SUBSTRUCTURE
     1 RES1 1
     2 RES2 30

@<TRIPOS>CRYSIN
   7.2107   24.0635   14.4077  90.0000 100.3340  90.0000  14 1

