# MOL2 file generated by ConQuest
# Please check atom types

@<TRIPOS>MOLECULE
DIFQUF
    38    39     1
SMALL
NO_CHARGES
****
Generated from CSD

@<TRIPOS>ATOM
      1 O1         6.8644    4.4615    6.5706 O.3       1 RES1    0.0000
      2 O2         7.3100    1.5333    0.3803 O.2       1 RES1    0.0000
      3 O3         5.3501    0.6605    0.6197 O.2       1 RES1    0.0000
      4 O4         9.0453    3.3249    7.6974 O.3       1 RES1    0.0000
      5 N1         6.3123    1.3045    1.0423 N.pl3     1 RES1    0.0000
      6 C1         6.1726    3.1976    6.4720 C.3       1 RES1    0.0000
      7 C2         6.1932    2.6883    5.0494 C.ar      1 RES1    0.0000
      8 C3         7.3145    2.8839    4.2536 C.ar      1 RES1    0.0000
      9 C4         7.3699    2.4300    2.9367 C.ar      1 RES1    0.0000
     10 C5         6.2575    1.7990    2.4367 C.ar      1 RES1    0.0000
     11 C6         5.1058    1.6034    3.1832 C.ar      1 RES1    0.0000
     12 C7         5.0873    2.0702    4.4931 C.ar      1 RES1    0.0000
     13 C8         6.8230    2.2086    7.5072 C.3       1 RES1    0.0000
     14 C9         8.3333    2.1163    7.3312 C.3       1 RES1    0.0000
     15 C10        6.2430    0.8174    7.2607 C.3       1 RES1    0.0000
     16 C11        6.5430    2.6330    8.9650 C.ar      1 RES1    0.0000
     17 C12        6.9261    1.7713   10.0002 C.ar      1 RES1    0.0000
     18 C13        6.7328    2.0923   11.3313 C.ar      1 RES1    0.0000
     19 C14        6.1431    3.2861   11.6622 C.ar      1 RES1    0.0000
     20 C15        5.7514    4.1681   10.6552 C.ar      1 RES1    0.0000
     21 C16        5.9447    3.8452    9.3242 C.ar      1 RES1    0.0000
     22 H1         5.1692    3.6533    7.0593 H         1 RES1    0.0000
     23 H2         6.4940    5.1294    5.9861 H         1 RES1    0.0000
     24 H3         8.0334    3.3452    4.6410 H         1 RES1    0.0000
     25 H4         8.1522    2.5536    2.4317 H         1 RES1    0.0000
     26 H5         4.3360    1.1606    2.8311 H         1 RES1    0.0000
     27 H6         4.2848    1.9650    5.0508 H         1 RES1    0.0000
     28 H7         6.5329    0.3321    6.4297 H         1 RES1    0.0000
     29 H8         5.1561    0.6347    7.2319 H         1 RES1    0.0000
     30 H9         6.5497    0.1292    8.0636 H         1 RES1    0.0000
     31 H10        8.8143    1.1108    7.8946 H         1 RES1    0.0000
     32 H11        8.7130    1.5554    6.4016 H         1 RES1    0.0000
     33 H12        8.5069    4.0980    7.2586 H         1 RES1    0.0000
     34 H13        7.3420    0.9428    9.8016 H         1 RES1    0.0000
     35 H14        6.9829    1.4724   12.0432 H         1 RES1    0.0000
     36 H15        5.9983    3.5260   12.6031 H         1 RES1    0.0000
     37 H16        5.3151    4.9892   10.9150 H         1 RES1    0.0000
     38 H17        5.6643    4.4393    8.6770 H         1 RES1    0.0000
@<TRIPOS>BOND
     1    1    6 1
     2    2    5 2
     3    3    5 2
     4    4   14 1
     5    5   10 1
     6    6    7 1
     7    7    8 ar
     8    8    9 ar
     9    9   10 ar
    10   10   11 ar
    11   11   12 ar
    12   12    7 ar
    13   13    6 1
    14   14   13 1
    15   15   13 1
    16   16   13 1
    17   17   16 ar
    18   18   17 ar
    19   19   18 ar
    20   20   19 ar
    21   21   16 ar
    22   22    6 1
    23   23    1 1
    24   24    8 1
    25   25    9 1
    26   26   11 1
    27   27   12 1
    28   28   15 1
    29   29   15 1
    30   30   15 1
    31   31   14 1
    32   32   14 1
    33   33    4 1
    34   34   17 1
    35   35   18 1
    36   36   19 1
    37   37   20 1
    38   38   21 1
    39   20   21 ar
@<TRIPOS>SUBSTRUCTURE
     1 RES1 1

@<TRIPOS>CRYSIN
  10.6920   18.4510    8.5300  90.0000 124.3500  90.0000   9 1

