# MOL2 file generated by ConQuest
# Please check atom types

@<TRIPOS>MOLECULE
DIFQEQ
    29    31     1
SMALL
NO_CHARGES
****
Generated from CSD

@<TRIPOS>ATOM
      1 C1         7.5152    6.8382   10.6009 C.2       1 RES1    0.0000
      2 H1         7.8054    6.7603   11.5027 H         1 RES1    0.0000
      3 C2         7.2826    8.0846    9.9488 C.ar      1 RES1    0.0000
      4 C3         7.3968    9.4328   10.3137 C.ar      1 RES1    0.0000
      5 H2         7.6645    9.6825   11.1904 H         1 RES1    0.0000
      6 C4         7.1079   10.3843    9.3590 C.ar      1 RES1    0.0000
      7 H3         7.1889   11.3043    9.5799 H         1 RES1    0.0000
      8 C5         6.6950   10.0199    8.0631 C.ar      1 RES1    0.0000
      9 H4         6.4984   10.7011    7.4314 H         1 RES1    0.0000
     10 C6         6.5682    8.6948    7.6872 C.ar      1 RES1    0.0000
     11 H5         6.2821    8.4495    6.8147 H         1 RES1    0.0000
     12 C7         6.8803    7.7342    8.6550 C.ar      1 RES1    0.0000
     13 N1         7.2841    5.8119    9.8208 N.2       1 RES1    0.0000
     14 N2         6.8845    6.3485    8.6123 N.pl3     1 RES1    0.0000
     15 C8         6.6887    5.4906    7.5300 C.ar      1 RES1    0.0000
     16 C9         6.1616    4.1998    7.6950 C.ar      1 RES1    0.0000
     17 N3         5.6663    3.7259    8.9973 N.pl3     1 RES1    0.0000
     18 O1         4.8349    4.4065    9.5783 O.2       1 RES1    0.0000
     19 O2         6.0792    2.6412    9.3941 O.2       1 RES1    0.0000
     20 C10        6.0285    3.3167    6.6452 C.ar      1 RES1    0.0000
     21 H6         5.6910    2.4383    6.7792 H         1 RES1    0.0000
     22 C11        6.4047    3.7578    5.3864 C.ar      1 RES1    0.0000
     23 N4         6.2723    2.8327    4.2582 N.pl3     1 RES1    0.0000
     24 O3         5.7579    1.7406    4.4618 O.2       1 RES1    0.0000
     25 O4         6.6844    3.2038    3.1666 O.2       1 RES1    0.0000
     26 C12        6.9254    5.0198    5.1678 C.ar      1 RES1    0.0000
     27 H7         7.1720    5.2953    4.2922 H         1 RES1    0.0000
     28 C13        7.0825    5.8750    6.2450 C.ar      1 RES1    0.0000
     29 H8         7.4637    6.7349    6.1084 H         1 RES1    0.0000
@<TRIPOS>BOND
     1    1    2 1
     2    3    1 1
     3    4    3 ar
     4    5    4 1
     5    6    4 ar
     6    7    6 1
     7    8    6 ar
     8    9    8 1
     9   10    8 ar
    10   11   10 1
    11   12    3 ar
    12   13    1 2
    13   14   12 1
    14   15   14 1
    15   16   15 ar
    16   17   16 1
    17   18   17 2
    18   19   17 2
    19   20   16 ar
    20   21   20 1
    21   22   20 ar
    22   23   22 1
    23   24   23 2
    24   25   23 2
    25   26   22 ar
    26   27   26 1
    27   28   15 ar
    28   29   28 1
    29   10   12 ar
    30   13   14 1
    31   26   28 ar
@<TRIPOS>SUBSTRUCTURE
     1 RES1 1

@<TRIPOS>CRYSIN
   7.0459   11.0480   15.4564  90.0000  90.0000  90.0000  19 1

