# MOL2 file generated by ConQuest
# Please check atom types

@<TRIPOS>MOLECULE
DIFRAM
   140   146     2
SMALL
NO_CHARGES
****
Generated from CSD

@<TRIPOS>ATOM
      1 O1         6.7029    2.3165    5.1858 O.3       1 RES1    0.0000
      2 O2         5.0218    3.7528    5.4904 O.2       1 RES1    0.0000
      3 O3         9.7271    8.8039    4.8774 O.2       1 RES1    0.0000
      4 O4        11.2258    7.3500    4.5309 O.2       1 RES1    0.0000
      5 O5         7.5570    0.7727    2.9949 O.3       1 RES1    0.0000
      6 O6         5.8669    1.9594    2.1105 O.2       1 RES1    0.0000
      7 O7        10.4754    7.0077    1.1353 O.2       1 RES1    0.0000
      8 O8        12.0613    5.6855    1.6930 O.2       1 RES1    0.0000
      9 N1        10.0806    7.6635    4.7245 N.pl3     1 RES1    0.0000
     10 N2        10.8911    5.9175    1.4728 N.pl3     1 RES1    0.0000
     11 C1         5.7803    1.2047    5.3346 C.3       1 RES1    0.0000
     12 C2         6.1856    3.5441    5.2935 C.2       1 RES1    0.0000
     13 C3         7.2225    4.5976    5.1555 C.ar      1 RES1    0.0000
     14 C4         8.5725    4.3071    5.1689 C.ar      1 RES1    0.0000
     15 C5         9.5068    5.3053    5.0294 C.ar      1 RES1    0.0000
     16 C6         9.0743    6.5986    4.8847 C.ar      1 RES1    0.0000
     17 C7         7.7481    6.9293    4.8832 C.ar      1 RES1    0.0000
     18 C8         6.8249    5.9231    5.0026 C.ar      1 RES1    0.0000
     19 C9         6.4805   -0.1166    5.0052 C.3       1 RES1    0.0000
     20 C10        7.8400   -0.1852    5.7015 C.3       1 RES1    0.0000
     21 C11        5.5168   -1.2024    5.5087 C.ar      1 RES1    0.0000
     22 C12        5.7442   -1.8844    6.6886 C.ar      1 RES1    0.0000
     23 C13        4.8445   -2.8283    7.1399 C.ar      1 RES1    0.0000
     24 C14        3.7288   -3.1284    6.4469 C.ar      1 RES1    0.0000
     25 C15        3.4732   -2.4790    5.2880 C.ar      1 RES1    0.0000
     26 C16        4.3567   -1.5143    4.8337 C.ar      1 RES1    0.0000
     27 C17        6.6652   -0.2792    3.4782 C.3       1 RES1    0.0000
     28 C18        7.0317    1.8272    2.3679 C.2       1 RES1    0.0000
     29 C19        8.0800    2.8489    2.0648 C.ar      1 RES1    0.0000
     30 C20        9.4288    2.5981    2.2258 C.ar      1 RES1    0.0000
     31 C21       10.3642    3.5887    2.0185 C.ar      1 RES1    0.0000
     32 C22        9.9156    4.8352    1.6467 C.ar      1 RES1    0.0000
     33 C23        8.5772    5.1098    1.4519 C.ar      1 RES1    0.0000
     34 C24        7.6629    4.1142    1.6630 C.ar      1 RES1    0.0000
     35 C25        7.3102   -1.5669    3.0342 C.3       1 RES1    0.0000
     36 C26        6.9830   -1.9092    1.5812 C.3       1 RES1    0.0000
     37 C27        5.5836   -2.4354    1.4420 C.ar      1 RES1    0.0000
     38 C28        5.3146   -3.7501    1.7792 C.ar      1 RES1    0.0000
     39 C29        4.0261   -4.2537    1.7151 C.ar      1 RES1    0.0000
     40 C30        2.9976   -3.4469    1.3103 C.ar      1 RES1    0.0000
     41 C31        3.2459   -2.1504    0.9755 C.ar      1 RES1    0.0000
     42 C32        4.5290   -1.6499    1.0334 C.ar      1 RES1    0.0000
     43 H1         5.4813    1.1499    6.2198 H         1 RES1    0.0000
     44 H2         4.9470    1.3024    4.7114 H         1 RES1    0.0000
     45 H3         5.9141    6.1167    5.0114 H         1 RES1    0.0000
     46 H4         7.4887    7.8168    4.7376 H         1 RES1    0.0000
     47 H5        10.4086    5.1479    5.0492 H         1 RES1    0.0000
     48 H6         8.8225    3.3921    5.2793 H         1 RES1    0.0000
     49 H7         7.7222    0.0606    6.5867 H         1 RES1    0.0000
     50 H8         8.5488    0.4126    5.2938 H         1 RES1    0.0000
     51 H9         8.2148   -1.0968    5.6607 H         1 RES1    0.0000
     52 H10        6.5011   -1.6718    7.1370 H         1 RES1    0.0000
     53 H11        4.9797   -3.1136    7.8912 H         1 RES1    0.0000
     54 H12        3.1759   -3.6865    6.6973 H         1 RES1    0.0000
     55 H13        2.7409   -2.6887    4.7173 H         1 RES1    0.0000
     56 H14        4.1418   -1.0858    4.0126 H         1 RES1    0.0000
     57 H15        5.7738   -0.1316    3.0546 H         1 RES1    0.0000
     58 H16        6.7401    4.2628    1.5579 H         1 RES1    0.0000
     59 H17        8.2577    5.9982    1.2288 H         1 RES1    0.0000
     60 H18       11.3085    3.3858    2.1344 H         1 RES1    0.0000
     61 H19        9.6572    1.7027    2.4605 H         1 RES1    0.0000
     62 H20        8.2440   -1.4750    3.1769 H         1 RES1    0.0000
     63 H21        7.0436   -2.2197    3.5874 H         1 RES1    0.0000
     64 H22        7.0927   -1.0825    0.9988 H         1 RES1    0.0000
     65 H23        7.5421   -2.5323    1.2841 H         1 RES1    0.0000
     66 H24        4.7115   -0.7973    0.7687 H         1 RES1    0.0000
     67 H25        2.4546   -1.5454    0.5940 H         1 RES1    0.0000
     68 H26        2.1039   -3.7951    1.2521 H         1 RES1    0.0000
     69 H27        3.8842   -5.0988    1.9189 H         1 RES1    0.0000
     70 H28        6.0296   -4.2369    2.0354 H         1 RES1    0.0000
     71 O9         5.6739    2.9101   13.3728 O.3       2 RES2    0.0000
     72 O10        3.9760    2.5287   14.7851 O.2       2 RES2    0.0000
     73 O11       10.1391    3.6426   18.4255 O.2       2 RES2    0.0000
     74 O12        8.6189    3.2672   19.8844 O.2       2 RES2    0.0000
     75 O13        6.9672    4.7778   11.6714 O.3       2 RES2    0.0000
     76 O14        5.4411    5.9571   12.8263 O.2       2 RES2    0.0000
     77 O15       11.7561    5.9557   16.3686 O.2       2 RES2    0.0000
     78 O16       10.3348    6.9803   17.5983 O.2       2 RES2    0.0000
     79 N3         8.9896    3.3689   18.7409 N.pl3     2 RES2    0.0000
     80 N4        10.6432    6.3840   16.5884 N.pl3     2 RES2    0.0000
     81 C33        4.7555    2.8031   12.2491 C.3       2 RES2    0.0000
     82 C34        5.1453    2.7430   14.5915 C.2       2 RES2    0.0000
     83 C35        6.1788    2.8548   15.6549 C.ar      2 RES2    0.0000
     84 C36        7.5332    2.7623   15.3777 C.ar      2 RES2    0.0000
     85 C37        8.4654    2.9225   16.3852 C.ar      2 RES2    0.0000
     86 C38        8.0057    3.1661   17.6539 C.ar      2 RES2    0.0000
     87 C39        6.6748    3.2379   17.9722 C.ar      2 RES2    0.0000
     88 C40        5.7593    3.0864   16.9568 C.ar      2 RES2    0.0000
     89 C41        5.5363    2.9303   10.9330 C.3       2 RES2    0.0000
     90 C42        6.7492    1.9913   10.9836 C.3       2 RES2    0.0000
     91 C43        4.5058    2.5305    9.8626 C.ar      2 RES2    0.0000
     92 C44        3.4925    3.3983    9.4840 C.ar      2 RES2    0.0000
     93 C45        2.5904    3.0709    8.5056 C.ar      2 RES2    0.0000
     94 C46        2.6231    1.8309    7.9058 C.ar      2 RES2    0.0000
     95 C47        3.5878    0.9480    8.2756 C.ar      2 RES2    0.0000
     96 C48        4.5308    1.2937    9.2336 C.ar      2 RES2    0.0000
     97 C49        5.9878    4.3761   10.6662 C.3       2 RES2    0.0000
     98 C50        6.5573    5.5308   12.7060 C.2       2 RES2    0.0000
     99 C51        7.6510    5.7658   13.6768 C.ar      2 RES2    0.0000
    100 C52        8.9656    5.3895   13.4325 C.ar      2 RES2    0.0000
    101 C53        9.9475    5.5927   14.3818 C.ar      2 RES2    0.0000
    102 C54        9.5906    6.1618   15.5769 C.ar      2 RES2    0.0000
    103 C55        8.3070    6.5636   15.8465 C.ar      2 RES2    0.0000
    104 C56        7.3329    6.3557   14.8879 C.ar      2 RES2    0.0000
    105 C57        6.6618    4.5835    9.3151 C.3       2 RES2    0.0000
    106 C58        6.8786    6.0524    8.9511 C.3       2 RES2    0.0000
    107 C59        5.5986    6.8387    8.9130 C.ar      2 RES2    0.0000
    108 C60        4.5603    6.4734    8.0805 C.ar      2 RES2    0.0000
    109 C61        3.3648    7.1642    8.0834 C.ar      2 RES2    0.0000
    110 C62        3.1932    8.2597    8.8813 C.ar      2 RES2    0.0000
    111 C63        4.2216    8.6388    9.6849 C.ar      2 RES2    0.0000
    112 C64        5.4008    7.9482    9.7228 C.ar      2 RES2    0.0000
    113 H29        4.0376    3.4740   12.3377 H         2 RES2    0.0000
    114 H30        4.2835    1.8440   12.3115 H         2 RES2    0.0000
    115 H31        7.7783    2.5652   14.4575 H         2 RES2    0.0000
    116 H32        9.3501    2.8640   16.2134 H         2 RES2    0.0000
    117 H33        6.3358    3.4713   18.9564 H         2 RES2    0.0000
    118 H34        4.8472    3.1032   17.1510 H         2 RES2    0.0000
    119 H35        7.4298    2.3817   11.5835 H         2 RES2    0.0000
    120 H36        6.4505    1.0546   11.2108 H         2 RES2    0.0000
    121 H37        7.1510    1.8340   10.0169 H         2 RES2    0.0000
    122 H38        5.2485    0.7106    9.3763 H         2 RES2    0.0000
    123 H39        3.5856   -0.0018    7.8912 H         2 RES2    0.0000
    124 H40        1.9910    1.4970    7.0176 H         2 RES2    0.0000
    125 H41        1.8706    3.6455    8.2115 H         2 RES2    0.0000
    126 H42        3.4750    4.2034    9.9179 H         2 RES2    0.0000
    127 H43        5.2562    4.9857   10.7420 H         2 RES2    0.0000
    128 H44        9.1956    4.9925   12.6347 H         2 RES2    0.0000
    129 H45       10.7888    5.3438   14.2100 H         2 RES2    0.0000
    130 H46        8.1172    6.9415   16.6706 H         2 RES2    0.0000
    131 H47        6.4480    6.5781   15.1098 H         2 RES2    0.0000
    132 H48        6.1586    4.0802    8.5901 H         2 RES2    0.0000
    133 H49        7.4913    4.1615    9.3442 H         2 RES2    0.0000
    134 H50        7.4943    6.4224    9.5597 H         2 RES2    0.0000
    135 H51        7.2947    6.1143    8.0368 H         2 RES2    0.0000
    136 H52        4.6803    5.7610    7.5127 H         2 RES2    0.0000
    137 H53        2.5893    6.8245    7.5127 H         2 RES2    0.0000
    138 H54        2.2400    8.7715    8.8230 H         2 RES2    0.0000
    139 H55        4.0553    9.3572   10.1916 H         2 RES2    0.0000
    140 H56        6.0998    8.1895   10.2033 H         2 RES2    0.0000
@<TRIPOS>BOND
     1    1   11 1
     2    2   12 2
     3    3    9 2
     4    4    9 2
     5    5   27 1
     6    6   28 2
     7    7   10 2
     8    8   10 2
     9    9   16 1
    10   10   32 1
    11   11   19 1
    12   12    1 1
    13   13   12 1
    14   14   13 ar
    15   15   14 ar
    16   16   15 ar
    17   17   16 ar
    18   18   13 ar
    19   19   20 1
    20   20   49 1
    21   21   19 1
    22   22   21 ar
    23   23   22 ar
    24   24   23 ar
    25   25   24 ar
    26   26   21 ar
    27   27   19 1
    28   28    5 1
    29   29   28 1
    30   30   29 ar
    31   31   30 ar
    32   32   31 ar
    33   33   32 ar
    34   34   29 ar
    35   35   27 1
    36   36   35 1
    37   37   36 1
    38   38   37 ar
    39   39   38 ar
    40   40   39 ar
    41   41   40 ar
    42   42   37 ar
    43   43   11 1
    44   44   11 1
    45   45   18 1
    46   46   17 1
    47   47   15 1
    48   48   14 1
    49   50   20 1
    50   51   20 1
    51   52   22 1
    52   53   23 1
    53   54   24 1
    54   55   25 1
    55   56   26 1
    56   57   27 1
    57   58   34 1
    58   59   33 1
    59   60   31 1
    60   61   30 1
    61   62   35 1
    62   63   35 1
    63   64   36 1
    64   65   36 1
    65   66   42 1
    66   67   41 1
    67   68   40 1
    68   69   39 1
    69   70   38 1
    70   71   81 1
    71   72   82 2
    72   73   79 2
    73   74   79 2
    74   75   97 1
    75   76   98 2
    76   77   80 2
    77   78   80 2
    78   79   86 1
    79   80  102 1
    80   81   89 1
    81   82   71 1
    82   83   82 1
    83   84   83 ar
    84   85   84 ar
    85   86   85 ar
    86   87   86 ar
    87   88   83 ar
    88   89   90 1
    89   90  119 1
    90   91   89 1
    91   92   91 ar
    92   93   92 ar
    93   94   93 ar
    94   95   94 ar
    95   96   91 ar
    96   97   89 1
    97   98   75 1
    98   99   98 1
    99  100   99 ar
   100  101  100 ar
   101  102  101 ar
   102  103  102 ar
   103  104   99 ar
   104  105   97 1
   105  106  105 1
   106  107  106 1
   107  108  107 ar
   108  109  108 ar
   109  110  109 ar
   110  111  110 ar
   111  112  107 ar
   112  113   81 1
   113  114   81 1
   114  115   84 1
   115  116   85 1
   116  117   87 1
   117  118   88 1
   118  120   90 1
   119  121   90 1
   120  122   96 1
   121  123   95 1
   122  124   94 1
   123  125   93 1
   124  126   92 1
   125  127   97 1
   126  128  100 1
   127  129  101 1
   128  130  103 1
   129  131  104 1
   130  132  105 1
   131  133  105 1
   132  134  106 1
   133  135  106 1
   134  136  108 1
   135  137  109 1
   136  138  110 1
   137  139  111 1
   138  140  112 1
   139   17   18 ar
   140   25   26 ar
   141   33   34 ar
   142   41   42 ar
   143   87   88 ar
   144   95   96 ar
   145  103  104 ar
   146  111  112 ar
@<TRIPOS>SUBSTRUCTURE
     1 RES1 1
     2 RES2 71

@<TRIPOS>CRYSIN
   7.4796   13.3074   29.2586  85.2803  86.2613  80.6356   2 1

