# MOL2 file generated by ConQuest
# Please check atom types

@<TRIPOS>MOLECULE
DIFTAO
    55    55     2
SMALL
NO_CHARGES
****
Generated from CSD

@<TRIPOS>ATOM
      1 C1         4.0012   -0.6210   11.2353 C.ar      1 RES1    0.0000
      2 C2         3.1163    0.2354   10.6028 C.ar      1 RES1    0.0000
      3 H1         2.3955    0.5584   11.0922 H         1 RES1    0.0000
      4 C3         3.2446    0.6425    9.2850 C.ar      1 RES1    0.0000
      5 C4         2.3143    1.6647    8.6825 C.3       1 RES1    0.0000
      6 H2         2.5446    2.5350    9.0697 H         1 RES1    0.0000
      7 N1         0.8762    1.3832    9.0337 N.3       1 RES1    0.0000
      8 O1         0.3282    0.8974    7.7651 O.3       1 RES1    0.0000
      9 C5         0.9139    1.7278    6.7503 C.3       1 RES1    0.0000
     10 H3         0.5036    2.6037    6.7383 H         1 RES1    0.0000
     11 H4         0.8218    1.3201    5.8737 H         1 RES1    0.0000
     12 C6         2.3701    1.8124    7.1543 C.3       1 RES1    0.0000
     13 H5         2.7454    2.6823    6.9054 H         1 RES1    0.0000
     14 C7         3.1637    0.6911    6.5339 C.3       1 RES1    0.0000
     15 H6         2.6521   -0.1302    6.5844 H         1 RES1    0.0000
     16 H7         3.3191    0.8904    5.5972 H         1 RES1    0.0000
     17 N2         4.4531    0.5048    7.2108 N.am      1 RES1    0.0000
     18 C8         4.3234    0.1322    8.5743 C.ar      1 RES1    0.0000
     19 C9         5.2314   -0.7512    9.1599 C.ar      1 RES1    0.0000
     20 H8         5.9342   -1.0988    8.6609 H         1 RES1    0.0000
     21 C10        5.0762   -1.1068   10.4850 C.ar      1 RES1    0.0000
     22 C11        3.8616   -1.0166   12.6697 C.3       1 RES1    0.0000
     23 H9         3.0690   -0.6135   13.0364 H         1 RES1    0.0000
     24 H10        4.6289   -0.7166   13.1615 H         1 RES1    0.0000
     25 H11        3.7908   -1.9711   12.7334 H         1 RES1    0.0000
     26 O2         5.9150   -1.9456   11.1655 O.3       1 RES1    0.0000
     27 C12        7.0350   -2.4639   10.4741 C.3       1 RES1    0.0000
     28 H12        7.5377   -3.0308   11.0609 H         1 RES1    0.0000
     29 H13        7.5907   -1.7378   10.1759 H         1 RES1    0.0000
     30 H14        6.7352   -2.9692    9.7154 H         1 RES1    0.0000
     31 C13        0.1437    2.6087    9.4328 C.3       1 RES1    0.0000
     32 H15        0.4365    3.3584    8.8737 H         1 RES1    0.0000
     33 C14        0.5125    2.8851   10.8805 C.3       1 RES1    0.0000
     34 H16        0.2223    2.1394   11.4288 H         1 RES1    0.0000
     35 H17        1.4782    2.9492   10.9539 H         1 RES1    0.0000
     36 O3        -0.0700    4.0805   11.3795 O.3       1 RES1    0.0000
     37 C15       -1.3691    2.4239    9.2838 C.ar      1 RES1    0.0000
     38 C16       -2.0950    3.2507    8.4854 C.ar      1 RES1    0.0000
     39 H18       -1.6721    3.9283    8.0104 H         1 RES1    0.0000
     40 C17       -3.4726    3.0849    8.3795 C.ar      1 RES1    0.0000
     41 H19       -3.9707    3.6629    7.8469 H         1 RES1    0.0000
     42 C18       -4.1036    2.0683    9.0589 C.ar      1 RES1    0.0000
     43 H20       -5.0237    1.9511    8.9747 H         1 RES1    0.0000
     44 C19       -3.3903    1.2570    9.8381 C.ar      1 RES1    0.0000
     45 H21       -3.8193    0.5839   10.3166 H         1 RES1    0.0000
     46 C20       -2.0156    1.4072    9.9415 C.ar      1 RES1    0.0000
     47 H22       -1.5255    0.8103   10.4609 H         1 RES1    0.0000
     48 C21        5.6071    1.0266    6.7335 C.2       1 RES1    0.0000
     49 O4         6.6410    1.0917    7.3575 O.2       1 RES1    0.0000
     50 O5         5.4812    1.4784    5.4914 O.3       1 RES1    0.0000
     51 C22        6.5435    2.4289    5.0946 Du        2 SUP2    0.0000
     52 C23        6.7304    1.8429    4.7880 C.3       1 RES1    0.0000
     53 C24        6.6534    2.2987    3.5639 Du        2 SUP2    0.0000
     54 C25        6.4028    3.1400    4.0256 C.3       1 RES1    0.0000
     55 H23       -1.3891    4.0565   12.0240 Du        2 SUP2    0.0000
@<TRIPOS>BOND
     1    1    2 ar
     2    2    3 1
     3    4    2 ar
     4    5    4 1
     5    6    5 1
     6    7    5 1
     7    8    7 1
     8    9    8 1
     9   10    9 1
    10   11    9 1
    11   12    5 1
    12   13   12 1
    13   14   12 1
    14   15   14 1
    15   16   14 1
    16   17   14 1
    17   18    4 ar
    18   19   18 ar
    19   20   19 1
    20   21    1 ar
    21   22    1 1
    22   23   22 1
    23   24   22 1
    24   25   22 1
    25   26   21 1
    26   27   26 1
    27   28   27 1
    28   29   27 1
    29   30   27 1
    30   31    7 1
    31   32   31 1
    32   33   31 1
    33   34   33 1
    34   35   33 1
    35   36   33 1
    36   37   31 1
    37   38   37 ar
    38   39   38 1
    39   40   38 ar
    40   41   40 1
    41   42   40 ar
    42   43   42 1
    43   44   42 ar
    44   45   44 1
    45   46   37 ar
    46   47   46 1
    47   48   17 1
    48   49   48 2
    49   50   48 1
    50   52   50 1
    51   54   52 1
    52    9   12 1
    53   17   18 1
    54   19   21 ar
    55   44   46 ar
@<TRIPOS>SUBSTRUCTURE
     1 RES1 1
     2 SUP2 51

@<TRIPOS>CRYSIN
  35.2200    5.0080   12.1040  90.0000  96.5900  90.0000   5 1

