# MOL2 file generated by ConQuest
# Please check atom types

@<TRIPOS>MOLECULE
DIFVOF
    40    42     1
SMALL
NO_CHARGES
****
Generated from CSD

@<TRIPOS>ATOM
      1 O1        -0.1383   13.3125    2.4469 O.2       1 RES1    0.0000
      2 O2         2.3681   10.1669    4.7371 O.2       1 RES1    0.0000
      3 N1        -1.0657    9.3593    1.2558 N.2       1 RES1    0.0000
      4 N2        -0.0278    8.6162    1.6489 N.pl3     1 RES1    0.0000
      5 N3         0.8476    9.2243    2.4507 N.2       1 RES1    0.0000
      6 N4         0.6790   12.7928    3.2796 N.3       1 RES1    0.0000
      7 N5         1.8709   11.2899    4.3544 N.pl3     1 RES1    0.0000
      8 C1         1.3115    6.6043    1.5277 C.ar      1 RES1    0.0000
      9 H1         1.9881    7.0428    1.9912 H         1 RES1    0.0000
     10 C2         1.4674    5.2746    1.1269 C.ar      1 RES1    0.0000
     11 H2         2.2588    4.8242    1.3147 H         1 RES1    0.0000
     12 C3         0.4519    4.6307    0.4525 C.ar      1 RES1    0.0000
     13 H3         0.5558    3.7442    0.1921 H         1 RES1    0.0000
     14 C4        -0.7044    5.2961    0.1665 C.ar      1 RES1    0.0000
     15 H4        -1.3846    4.8553   -0.2881 H         1 RES1    0.0000
     16 C5        -0.8844    6.6378    0.5508 C.ar      1 RES1    0.0000
     17 H5        -1.6704    7.0929    0.3521 H         1 RES1    0.0000
     18 C6         0.1359    7.2471    1.2238 C.ar      1 RES1    0.0000
     19 C7        -0.8476   10.5325    1.8414 C.2       1 RES1    0.0000
     20 H6        -1.3882   11.2851    1.7607 H         1 RES1    0.0000
     21 C8         0.3159   10.4536    2.5896 C.2       1 RES1    0.0000
     22 C9         0.9648   11.4763    3.3900 C.2       1 RES1    0.0000
     23 C10        1.6081   13.6339    4.1203 C.3       1 RES1    0.0000
     24 C11        2.1537   12.5623    5.1278 C.3       1 RES1    0.0000
     25 C12        0.8119   14.7808    4.7550 C.3       1 RES1    0.0000
     26 H7         0.5183   15.3853    4.0699 H         1 RES1    0.0000
     27 H8         1.3707   15.2515    5.3782 H         1 RES1    0.0000
     28 H9         0.0489   14.4248    5.2160 H         1 RES1    0.0000
     29 C13        2.6496   14.2050    3.1842 C.3       1 RES1    0.0000
     30 H10        2.2382   14.8489    2.6037 H         1 RES1    0.0000
     31 H11        3.0320   13.4977    2.6592 H         1 RES1    0.0000
     32 H12        3.3401   14.6327    3.6964 H         1 RES1    0.0000
     33 C14        1.3707   12.4619    6.4325 C.3       1 RES1    0.0000
     34 H13        1.7658   11.7893    6.9916 H         1 RES1    0.0000
     35 H14        0.4603   12.2254    6.2425 H         1 RES1    0.0000
     36 H15        1.3943   13.3078    6.8849 H         1 RES1    0.0000
     37 C15        3.6392   12.6626    5.4123 C.3       1 RES1    0.0000
     38 H16        3.8923   11.9781    6.0355 H         1 RES1    0.0000
     39 H17        3.8355   13.5240    5.7880 H         1 RES1    0.0000
     40 H18        4.1297   12.5503    4.5949 H         1 RES1    0.0000
@<TRIPOS>BOND
     1    1    6 1
     2    2    7 1
     3    3    4 1
     4    4    5 1
     5    5   21 2
     6    6   22 1
     7    7   22 2
     8    8    9 1
     9   10    8 ar
    10   11   10 1
    11   12   10 ar
    12   13   12 1
    13   14   12 ar
    14   15   14 1
    15   16   14 ar
    16   17   16 1
    17   18    4 1
    18   19    3 2
    19   20   19 1
    20   21   19 1
    21   22   21 1
    22   23    6 1
    23   24    7 1
    24   25   23 1
    25   26   25 1
    26   27   25 1
    27   28   25 1
    28   29   23 1
    29   30   29 1
    30   31   29 1
    31   32   29 1
    32   33   24 1
    33   34   33 1
    34   35   33 1
    35   36   33 1
    36   37   24 1
    37   38   37 1
    38   39   37 1
    39   40   37 1
    40    8   18 ar
    41   16   18 ar
    42   23   24 1
@<TRIPOS>SUBSTRUCTURE
     1 RES1 1

@<TRIPOS>CRYSIN
   6.0411   11.9470   21.3420  90.0000  90.0000  90.0000  19 1

