# MOL2 file generated by ConQuest
# Please check atom types

@<TRIPOS>MOLECULE
DIFZUO
   138   146     2
SMALL
NO_CHARGES
****
Generated from CSD

@<TRIPOS>ATOM
      1 O1         9.8444    0.2799   32.0070 O.3       1 RES1    0.0000
      2 H1         9.9409    0.1962   31.1981 H         1 RES1    0.0000
      3 O2         8.8232    0.6458   29.4943 O.3       1 RES1    0.0000
      4 O3         7.5091   -0.5753   28.1386 O.2       1 RES1    0.0000
      5 O4        11.9015   -1.7027   28.6548 O.3       1 RES1    0.0000
      6 O5         7.1609   -5.1237   24.0729 O.3       2 RES2    0.0000
      7 H2         7.0802   -5.1082   24.8875 H         2 RES2    0.0000
      8 O6         5.5718   -4.6332   26.2197 O.3       2 RES2    0.0000
      9 O7         4.7078   -3.3614   27.8575 O.2       2 RES2    0.0000
     10 O8         9.1363   -4.4955   27.9417 O.3       2 RES2    0.0000
     11 N1        10.8326   -0.9059   29.0486 N.2       1 RES1    0.0000
     12 N2         7.9167   -4.5429   27.2756 N.2       2 RES2    0.0000
     13 C1         8.4474    0.3946   32.3121 C.3       1 RES1    0.0000
     14 C2         7.8742    1.6498   31.5409 C.3       1 RES1    0.0000
     15 C3         7.7012    1.4283   30.0127 C.3       1 RES1    0.0000
     16 H3         6.8796    0.9544   29.8588 H         1 RES1    0.0000
     17 C4         7.6927    2.8478   29.4163 C.3       1 RES1    0.0000
     18 H4         8.4538    2.9580   28.8433 H         1 RES1    0.0000
     19 H5         6.8881    2.9823   28.9098 H         1 RES1    0.0000
     20 C5         7.7479    3.7427   30.6584 C.3       1 RES1    0.0000
     21 H6         7.9337    4.6685   30.4841 H         1 RES1    0.0000
     22 C6         6.3955    3.6127   31.3897 C.3       1 RES1    0.0000
     23 H7         6.3403    4.2883   32.0673 H         1 RES1    0.0000
     24 H8         5.6748    3.7262   30.7635 H         1 RES1    0.0000
     25 C7         6.4720    2.1789   31.9782 C.3       1 RES1    0.0000
     26 H9         5.7979    1.6036   31.6105 H         1 RES1    0.0000
     27 H10        6.4104    2.1711   32.9365 H         1 RES1    0.0000
     28 C8         8.7160    3.0010   31.6017 C.3       1 RES1    0.0000
     29 C9        10.1448    2.9735   31.0394 C.3       1 RES1    0.0000
     30 H11       10.5333    3.8474   31.1227 H         1 RES1    0.0000
     31 H12       10.1161    2.7244   30.1116 H         1 RES1    0.0000
     32 H13       10.6766    2.3387   31.5263 H         1 RES1    0.0000
     33 C10        8.7818    3.6744   32.9986 C.3       1 RES1    0.0000
     34 H14        9.2987    4.4800   32.9321 H         1 RES1    0.0000
     35 H15        9.2021    3.0749   33.6195 H         1 RES1    0.0000
     36 H16        7.8976    3.8860   33.3090 H         1 RES1    0.0000
     37 C11        8.3922    0.5466   33.8412 C.ar      1 RES1    0.0000
     38 C12        9.5355    0.8685   34.5738 C.ar      1 RES1    0.0000
     39 H17       10.3645    1.0194   34.1161 H         1 RES1    0.0000
     40 C13        9.5057    0.9930   35.9388 C.ar      1 RES1    0.0000
     41 H18       10.2987    1.2321   36.4266 H         1 RES1    0.0000
     42 C14        8.3190    0.7792   36.6417 C.ar      1 RES1    0.0000
     43 H19        8.2999    0.8541   37.5974 H         1 RES1    0.0000
     44 C15        7.1726    0.4464   35.9180 C.ar      1 RES1    0.0000
     45 H20        6.3478    0.2943   36.3867 H         1 RES1    0.0000
     46 C16        7.2235    0.3207   34.5494 C.ar      1 RES1    0.0000
     47 H21        6.4157    0.0838   34.0895 H         1 RES1    0.0000
     48 C17        7.7755   -0.9489   31.9507 C.ar      1 RES1    0.0000
     49 C18        6.4454   -1.1153   31.5724 C.ar      1 RES1    0.0000
     50 H22        5.8754   -0.3527   31.4509 H         1 RES1    0.0000
     51 C19        5.9009   -2.3717   31.3715 C.ar      1 RES1    0.0000
     52 H23        4.9880   -2.4577   31.0872 H         1 RES1    0.0000
     53 C20        6.6683   -3.4926   31.5542 C.ar      1 RES1    0.0000
     54 H24        6.2841   -4.3654   31.4420 H         1 RES1    0.0000
     55 C21        7.9888   -3.3537   31.9303 C.ar      1 RES1    0.0000
     56 H25        8.5175   -4.1450   32.0540 H         1 RES1    0.0000
     57 C22        8.5313   -2.0907   32.1086 C.ar      1 RES1    0.0000
     58 H26        9.4580   -2.0124   32.3467 H         1 RES1    0.0000
     59 C23        8.5801   -0.3262   28.6238 C.2       1 RES1    0.0000
     60 C24        9.8072   -1.0944   28.3218 C.2       1 RES1    0.0000
     61 H27        9.8507   -1.7314   27.6060 H         1 RES1    0.0000
     62 C25       13.0310   -1.4206   29.5231 C.3       1 RES1    0.0000
     63 H28       12.7391   -1.5000   30.4353 H         1 RES1    0.0000
     64 H29       13.7337   -2.0532   29.3533 H         1 RES1    0.0000
     65 C26       13.5776   -0.0463   29.3191 C.ar      1 RES1    0.0000
     66 C27       13.1923    0.9952   30.1116 C.ar      1 RES1    0.0000
     67 H30       12.5989    0.8431   30.8522 H         1 RES1    0.0000
     68 C28       13.6477    2.2670   29.8748 C.ar      1 RES1    0.0000
     69 H31       13.3717    2.9801   30.4575 H         1 RES1    0.0000
     70 C29       14.4820    2.4952   28.8335 C.ar      1 RES1    0.0000
     71 H32       14.7676    3.3901   28.6349 H         1 RES1    0.0000
     72 C30       14.9204    1.4603   28.0167 C.ar      1 RES1    0.0000
     73 H33       15.5446    1.6598   27.3133 H         1 RES1    0.0000
     74 C31       14.4608    0.1962   28.2646 C.ar      1 RES1    0.0000
     75 H34       14.7347   -0.5356   27.7080 H         1 RES1    0.0000
     76 C32        6.1323   -4.3136   23.4729 C.3       2 RES2    0.0000
     77 C33        4.7300   -4.8845   23.9283 C.3       2 RES2    0.0000
     78 C34        4.3659   -4.5109   25.3824 C.3       2 RES2    0.0000
     79 H35        4.0443   -3.6072   25.4153 H         2 RES2    0.0000
     80 C35        3.2747   -5.5292   25.7860 C.3       2 RES2    0.0000
     81 H36        3.5751   -6.0638   26.5239 H         2 RES2    0.0000
     82 H37        2.4882   -5.0432   26.0406 H         2 RES2    0.0000
     83 C36        3.0805   -6.3305   24.5212 C.3       2 RES2    0.0000
     84 H38        2.5954   -7.1493   24.6525 H         2 RES2    0.0000
     85 C37        2.3682   -5.4168   23.5008 C.3       2 RES2    0.0000
     86 H39        2.0784   -5.9591   22.7633 H         2 RES2    0.0000
     87 H40        1.6050   -5.0112   23.9208 H         2 RES2    0.0000
     88 C38        3.4817   -4.4150   23.1261 C.3       2 RES2    0.0000
     89 H41        3.2567   -3.5190   23.3842 H         2 RES2    0.0000
     90 H42        3.6877   -4.4349   22.1868 H         2 RES2    0.0000
     91 C39        4.4923   -6.4726   23.9350 C.3       2 RES2    0.0000
     92 C40        4.4753   -7.1207   22.5411 C.3       2 RES2    0.0000
     93 H43        4.3267   -8.0641   22.6391 H         2 RES2    0.0000
     94 H44        5.3266   -6.9730   22.1247 H         2 RES2    0.0000
     95 H45        3.7821   -6.7415   21.9961 H         2 RES2    0.0000
     96 C41        5.3882   -7.3587   24.8210 C.3       2 RES2    0.0000
     97 H46        5.1281   -8.2779   24.7235 H         2 RES2    0.0000
     98 H47        5.3022   -7.0964   25.7390 H         2 RES2    0.0000
     99 H48        6.3021   -7.2540   24.5416 H         2 RES2    0.0000
    100 C42        6.3945   -4.4315   21.9633 C.ar      2 RES2    0.0000
    101 C43        7.1864   -5.4653   21.4586 C.ar      2 RES2    0.0000
    102 H49        7.5568   -6.1133   22.0626 H         2 RES2    0.0000
    103 C44        7.4772   -5.5766   20.1078 C.ar      2 RES2    0.0000
    104 H50        7.9687   -6.3393   19.7965 H         2 RES2    0.0000
    105 C45        7.0059   -4.6454   19.2195 C.ar      2 RES2    0.0000
    106 H51        7.2426   -4.7038   18.2931 H         2 RES2    0.0000
    107 C46        6.2384   -3.6237   19.6994 C.ar      2 RES2    0.0000
    108 H52        5.8924   -2.9646   19.0914 H         2 RES2    0.0000
    109 C47        5.9264   -3.5036   21.0533 C.ar      2 RES2    0.0000
    110 H53        5.3616   -2.7872   21.3531 H         2 RES2    0.0000
    111 C48        6.3669   -2.8379   23.9110 C.ar      2 RES2    0.0000
    112 C49        5.4296   -1.8339   23.8188 C.ar      2 RES2    0.0000
    113 H54        4.5591   -2.0235   23.4596 H         2 RES2    0.0000
    114 C50        5.7215   -0.5422   24.2188 C.ar      2 RES2    0.0000
    115 H55        5.0538    0.1422   24.1381 H         2 RES2    0.0000
    116 C51        6.9496   -0.2182   24.7252 C.ar      2 RES2    0.0000
    117 H56        7.1290    0.6756   25.0250 H         2 RES2    0.0000
    118 C52        7.8891   -1.1826   24.7962 C.ar      2 RES2    0.0000
    119 H57        8.7691   -0.9698   25.1181 H         2 RES2    0.0000
    120 C53        7.6290   -2.4819   24.4077 C.ar      2 RES2    0.0000
    121 H58        8.3169   -3.1465   24.4840 H         2 RES2    0.0000
    122 C54        5.6334   -3.9411   27.3736 C.2       2 RES2    0.0000
    123 C55        6.9836   -4.0183   27.9617 C.2       2 RES2    0.0000
    124 H59        7.1927   -3.7031   28.8433 H         2 RES2    0.0000
    125 C56       10.1840   -4.8680   27.0153 C.3       2 RES2    0.0000
    126 H60       10.0556   -4.4117   26.1825 H         2 RES2    0.0000
    127 H61       11.0343   -4.6222   27.3887 H         2 RES2    0.0000
    128 C57       10.2414   -6.3448   26.7009 C.ar      2 RES2    0.0000
    129 C58        9.5705   -6.8440   25.5904 C.ar      2 RES2    0.0000
    130 H62        9.1045   -6.2478   24.9984 H         2 RES2    0.0000
    131 C59        9.6108   -8.2261   25.3235 C.ar      2 RES2    0.0000
    132 H63        9.1172   -8.5931   24.5860 H         2 RES2    0.0000
    133 C60       10.3114   -9.0703   26.1328 C.ar      2 RES2    0.0000
    134 H64       10.3252  -10.0148   25.9607 H         2 RES2    0.0000
    135 C61       11.0035   -8.5743   27.1945 C.ar      2 RES2    0.0000
    136 H65       11.5311   -9.1750   27.7257 H         2 RES2    0.0000
    137 C62       10.9515   -7.2232   27.4951 C.ar      2 RES2    0.0000
    138 H66       11.4111   -6.8980   28.2712 H         2 RES2    0.0000
@<TRIPOS>BOND
     1    1    2 1
     2    3   15 1
     3    4   59 2
     4    5   11 1
     5    6    7 1
     6    8   78 1
     7    9  122 2
     8   10   12 1
     9   11   60 2
    10   12  123 2
    11   13    1 1
    12   14   13 1
    13   15   14 1
    14   16   15 1
    15   17   15 1
    16   18   17 1
    17   19   17 1
    18   20   17 1
    19   21   20 1
    20   22   20 1
    21   23   22 1
    22   24   22 1
    23   25   14 1
    24   26   25 1
    25   27   25 1
    26   28   14 1
    27   29   28 1
    28   30   29 1
    29   31   29 1
    30   32   29 1
    31   33   28 1
    32   34   33 1
    33   35   33 1
    34   36   33 1
    35   37   13 1
    36   38   37 ar
    37   39   38 1
    38   40   38 ar
    39   41   40 1
    40   42   40 ar
    41   43   42 1
    42   44   42 ar
    43   45   44 1
    44   46   37 ar
    45   47   46 1
    46   48   13 1
    47   49   48 ar
    48   50   49 1
    49   51   49 ar
    50   52   51 1
    51   53   51 ar
    52   54   53 1
    53   55   53 ar
    54   56   55 1
    55   57   48 ar
    56   58   57 1
    57   59    3 1
    58   60   59 1
    59   61   60 1
    60   62    5 1
    61   63   62 1
    62   64   62 1
    63   65   62 1
    64   66   65 ar
    65   67   66 1
    66   68   66 ar
    67   69   68 1
    68   70   68 ar
    69   71   70 1
    70   72   70 ar
    71   73   72 1
    72   74   65 ar
    73   75   74 1
    74   76    6 1
    75   77   76 1
    76   78   77 1
    77   79   78 1
    78   80   78 1
    79   81   80 1
    80   82   80 1
    81   83   80 1
    82   84   83 1
    83   85   83 1
    84   86   85 1
    85   87   85 1
    86   88   77 1
    87   89   88 1
    88   90   88 1
    89   91   77 1
    90   92   91 1
    91   93   92 1
    92   94   92 1
    93   95   92 1
    94   96   91 1
    95   97   96 1
    96   98   96 1
    97   99   96 1
    98  100   76 1
    99  101  100 ar
   100  102  101 1
   101  103  101 ar
   102  104  103 1
   103  105  103 ar
   104  106  105 1
   105  107  105 ar
   106  108  107 1
   107  109  100 ar
   108  110  109 1
   109  111   76 1
   110  112  111 ar
   111  113  112 1
   112  114  112 ar
   113  115  114 1
   114  116  114 ar
   115  117  116 1
   116  118  116 ar
   117  119  118 1
   118  120  111 ar
   119  121  120 1
   120  122    8 1
   121  123  122 1
   122  124  123 1
   123  125   10 1
   124  126  125 1
   125  127  125 1
   126  128  125 1
   127  129  128 ar
   128  130  129 1
   129  131  129 ar
   130  132  131 1
   131  133  131 ar
   132  134  133 1
   133  135  133 ar
   134  136  135 1
   135  137  128 ar
   136  138  137 1
   137   20   28 1
   138   22   25 1
   139   44   46 ar
   140   55   57 ar
   141   72   74 ar
   142   83   91 1
   143   85   88 1
   144  107  109 ar
   145  118  120 ar
   146  135  137 ar
@<TRIPOS>SUBSTRUCTURE
     1 RES1 1
     2 RES2 6

@<TRIPOS>CRYSIN
  10.6150   11.0210   44.3470  90.0000  90.0000  90.0000  19 1

