# MOL2 file generated by ConQuest
# Please check atom types

@<TRIPOS>MOLECULE
DIFZEY
    67    71     1
SMALL
NO_CHARGES
****
Generated from CSD

@<TRIPOS>ATOM
      1 O1         2.7995    3.1214    3.1944 O.2       1 RES1    0.0000
      2 O2         5.7175    6.1279    5.6370 O.2       1 RES1    0.0000
      3 O3         8.5520    6.3968    3.8178 O.3       1 RES1    0.0000
      4 N1         4.3522    4.1200    4.5117 N.am      1 RES1    0.0000
      5 N2         5.7834    4.0820    4.6718 N.am      1 RES1    0.0000
      6 N3         8.5253    6.3144    5.2543 N.3       1 RES1    0.0000
      7 H1         8.8930    7.0180    5.7937 H         1 RES1    0.0000
      8 C1         3.9633    3.3654    3.4476 C.2       1 RES1    0.0000
      9 C2         5.1838    2.9599    2.7231 C.3       1 RES1    0.0000
     10 C3         5.3011    1.5352    2.1110 C.3       1 RES1    0.0000
     11 H2         5.4344    0.8457    2.7651 H         1 RES1    0.0000
     12 H3         4.5919    1.2804    1.5171 H         1 RES1    0.0000
     13 C4         6.5530    1.6664    1.2980 C.3       1 RES1    0.0000
     14 H4         7.2597    1.1167    1.6432 H         1 RES1    0.0000
     15 H5         6.4146    1.4648    0.3691 H         1 RES1    0.0000
     16 C5         6.9820    3.1669    1.4638 C.3       1 RES1    0.0000
     17 H6         7.4539    3.5963    0.7461 H         1 RES1    0.0000
     18 C6         7.5180    3.3632    2.8651 C.3       1 RES1    0.0000
     19 H7         8.2470    2.7712    3.0638 H         1 RES1    0.0000
     20 H8         7.7786    4.2674    3.0570 H         1 RES1    0.0000
     21 C7         6.3035    3.0585    3.7327 C.3       1 RES1    0.0000
     22 H9         6.4054    2.2074    4.1653 H         1 RES1    0.0000
     23 C8         5.6164    3.8348    1.5410 C.3       1 RES1    0.0000
     24 C9         5.6970    5.3549    1.8124 C.3       1 RES1    0.0000
     25 H10        6.0052    5.7918    1.0163 H         1 RES1    0.0000
     26 H11        4.8186    5.6725    2.0327 H         1 RES1    0.0000
     27 H12        6.2983    5.5468    2.5369 H         1 RES1    0.0000
     28 C10        4.7547    3.6809    0.2623 C.3       1 RES1    0.0000
     29 H13        4.6831    2.7463    0.0556 H         1 RES1    0.0000
     30 H14        3.8792    4.0452    0.4077 H         1 RES1    0.0000
     31 H15        5.1746    4.1395   -0.4701 H         1 RES1    0.0000
     32 C11        3.4895    4.3943    5.6177 C.ar      1 RES1    0.0000
     33 C12        2.3906    5.1879    5.4576 C.ar      1 RES1    0.0000
     34 H16        2.2495    5.5912    4.5980 H         1 RES1    0.0000
     35 C13        1.5534    5.3473    6.5523 C.ar      1 RES1    0.0000
     36 H17        0.7594    5.8818    6.4853 H         1 RES1    0.0000
     37 C14        1.8691    4.7553    7.7821 C.ar      1 RES1    0.0000
     38 H18        1.2246    4.8756    8.4828 H         1 RES1    0.0000
     39 C15        2.9542    3.9736    7.9048 C.ar      1 RES1    0.0000
     40 H19        3.1961    3.6050    8.7576 H         1 RES1    0.0000
     41 C16        3.7342    3.8023    6.8373 C.ar      1 RES1    0.0000
     42 H20        4.5091    3.2396    6.9123 H         1 RES1    0.0000
     43 C17        6.3483    5.1424    5.2918 C.2       1 RES1    0.0000
     44 C18        7.8427    5.0784    5.6155 C.3       1 RES1    0.0000
     45 H21        8.2602    4.3726    5.1158 H         1 RES1    0.0000
     46 C19        8.0126    4.8735    7.1156 C.3       1 RES1    0.0000
     47 H22        7.4603    5.5240    7.5562 H         1 RES1    0.0000
     48 H23        8.9266    4.9949    7.3836 H         1 RES1    0.0000
     49 C20        7.5621    3.6201    7.5959 C.2       1 RES1    0.0000
     50 H24        7.5039    2.9501    6.9111 H         1 RES1    0.0000
     51 C21        7.2790    3.2201    8.6611 C.2       1 RES1    0.0000
     52 H25        7.0067    2.3028    8.7394 H         1 RES1    0.0000
     53 H26        7.2921    3.7849    9.4367 H         1 RES1    0.0000
     54 C22        9.9131    6.4044    3.3954 C.3       1 RES1    0.0000
     55 H27       10.4340    5.7322    3.8417 H         1 RES1    0.0000
     56 H28       10.2440    7.2739    3.6316 H         1 RES1    0.0000
     57 C23        9.9397    6.3697    1.9180 C.ar      1 RES1    0.0000
     58 C24        9.3235    7.1308    1.1174 C.ar      1 RES1    0.0000
     59 H29        8.8543    7.8778    1.4967 H         1 RES1    0.0000
     60 C25        9.3339    7.0278   -0.2941 C.ar      1 RES1    0.0000
     61 H30        8.7016    7.4745   -0.8619 H         1 RES1    0.0000
     62 C26       10.0413    6.1040   -0.8642 C.ar      1 RES1    0.0000
     63 H31       10.4314    6.3079   -1.7147 H         1 RES1    0.0000
     64 C27       10.7768    5.3668   -0.0568 C.ar      1 RES1    0.0000
     65 H32       10.8464    4.4875   -0.4281 H         1 RES1    0.0000
     66 C28       10.6184    5.4535    1.3207 C.ar      1 RES1    0.0000
     67 H33       11.1855    4.8930    1.8510 H         1 RES1    0.0000
@<TRIPOS>BOND
     1    1    8 2
     2    2   43 2
     3    3    6 1
     4    4    5 1
     5    5   21 1
     6    6    7 1
     7    8    4 1
     8    9    8 1
     9   10    9 1
    10   11   10 1
    11   12   10 1
    12   13   10 1
    13   14   13 1
    14   15   13 1
    15   16   13 1
    16   17   16 1
    17   18   16 1
    18   19   18 1
    19   20   18 1
    20   21    9 1
    21   22   21 1
    22   23    9 1
    23   24   23 1
    24   25   24 1
    25   26   24 1
    26   27   24 1
    27   28   23 1
    28   29   28 1
    29   30   28 1
    30   31   28 1
    31   32    4 1
    32   33   32 ar
    33   34   33 1
    34   35   33 ar
    35   36   35 1
    36   37   35 ar
    37   38   37 1
    38   39   37 ar
    39   40   39 1
    40   41   32 ar
    41   42   41 1
    42   43    5 1
    43   44    6 1
    44   45   44 1
    45   46   44 1
    46   47   46 1
    47   48   46 1
    48   49   46 1
    49   50   49 1
    50   51   49 2
    51   52   51 1
    52   53   51 1
    53   54    3 1
    54   55   54 1
    55   56   54 1
    56   57   54 1
    57   58   57 ar
    58   59   58 1
    59   60   58 ar
    60   61   60 1
    61   62   60 ar
    62   63   62 1
    63   64   62 ar
    64   65   64 1
    65   66   57 ar
    66   67   66 1
    67   16   23 1
    68   18   21 1
    69   39   41 ar
    70   43   44 1
    71   64   66 ar
@<TRIPOS>SUBSTRUCTURE
     1 RES1 1

@<TRIPOS>CRYSIN
  10.4820   10.8420   11.3590  90.0000  91.3570  90.0000   4 1

