# MOL2 file generated by ConQuest
# Please check atom types

@<TRIPOS>MOLECULE
DIGPOZ
   116   121     1
SMALL
NO_CHARGES
****
Generated from CSD

@<TRIPOS>ATOM
      1 C1         5.9063   10.8274    7.7991 C.2       1 RES1    0.0000
      2 C2         5.2179   12.1394    8.0138 C.3       1 RES1    0.0000
      3 H1         5.5866   12.5730    8.8115 H         1 RES1    0.0000
      4 H2         4.2581   11.9891    8.1393 H         1 RES1    0.0000
      5 H3         5.3599   12.7155    7.2322 H         1 RES1    0.0000
      6 C3         6.8661   10.3812    8.5969 C.2       1 RES1    0.0000
      7 H4         7.1190   10.9260    9.3339 H         1 RES1    0.0000
      8 C4         7.5840    9.0646    8.4147 C.3       1 RES1    0.0000
      9 H5         7.2919    8.4321    9.1354 H         1 RES1    0.0000
     10 O1         9.0241    9.2650    8.5175 O.3       1 RES1    0.0000
     11 C5         9.5815    8.9206    9.7753 C.3       1 RES1    0.0000
     12 H6         9.3025    8.0016   10.0142 H         1 RES1    0.0000
     13 H7        10.5689    8.9315    9.7064 H         1 RES1    0.0000
     14 O2         9.1777    9.8067   10.7917 O.3       1 RES1    0.0000
     15 C6         9.7737   11.1123   10.6904 C.3       1 RES1    0.0000
     16 H8        10.7501   11.0262   10.6945 H         1 RES1    0.0000
     17 H9         9.4906   11.6619   11.4477 H         1 RES1    0.0000
     18 H10        9.4871   11.5382    9.8522 H         1 RES1    0.0000
     19 C7         7.3119    8.4305    7.0541 C.3       1 RES1    0.0000
     20 H11        7.9086    8.8689    6.3819 H         1 RES1    0.0000
     21 C8         5.8718    8.5840    6.5807 C.3       1 RES1    0.0000
     22 H12        5.2958    8.0799    7.2241 H         1 RES1    0.0000
     23 C9         5.4109   10.0478    6.6167 C.3       1 RES1    0.0000
     24 H13        5.7202   10.4955    5.7866 H         1 RES1    0.0000
     25 H14        4.4214   10.0681    6.6127 H         1 RES1    0.0000
     26 C10        7.6750    6.9386    7.1148 C.3       1 RES1    0.0000
     27 H15        8.6431    6.8587    7.3051 H         1 RES1    0.0000
     28 H16        7.1858    6.5253    7.8680 H         1 RES1    0.0000
     29 C11        7.3684    6.1620    5.8599 C.3       1 RES1    0.0000
     30 H17        8.0629    6.3343    5.1630 H         1 RES1    0.0000
     31 C12        5.9593    6.3906    5.2885 C.3       1 RES1    0.0000
     32 H18        5.3151    6.0290    5.9607 H         1 RES1    0.0000
     33 C13        5.6927    7.9186    5.1905 C.3       1 RES1    0.0000
     34 C14        6.6380    8.5652    4.1433 C.3       1 RES1    0.0000
     35 H19        7.5682    8.4572    4.4341 H         1 RES1    0.0000
     36 H20        6.4292    9.5186    4.0575 H         1 RES1    0.0000
     37 H21        6.5133    8.1253    3.2760 H         1 RES1    0.0000
     38 C15        4.2099    8.0720    4.7645 C.3       1 RES1    0.0000
     39 H22        4.0032    9.0364    4.6771 H         1 RES1    0.0000
     40 H23        3.6346    7.7057    5.4829 H         1 RES1    0.0000
     41 C16        3.8502    7.3644    3.4315 C.3       1 RES1    0.0000
     42 H24        2.8904    7.0920    3.5027 H         1 RES1    0.0000
     43 C17        3.9371    8.3757    2.2932 C.2       1 RES1    0.0000
     44 O3         4.8934    8.3648    1.4813 O.2       1 RES1    0.0000
     45 C18        2.8408    9.3683    2.1462 C.3       1 RES1    0.0000
     46 H25        3.1688   10.1480    1.6522 H         1 RES1    0.0000
     47 H26        2.5363    9.6517    3.0330 H         1 RES1    0.0000
     48 H27        2.0939    8.9613    1.6603 H         1 RES1    0.0000
     49 C19        4.6385    6.1088    3.1630 C.2       1 RES1    0.0000
     50 C20        5.6541    5.6877    3.9680 C.2       1 RES1    0.0000
     51 C21        8.5866    4.1096    6.2997 C.2       1 RES1    0.0000
     52 O4         7.3946    4.7390    6.2806 O.3       1 RES1    0.0000
     53 O5         9.6256    4.6294    5.9024 O.2       1 RES1    0.0000
     54 C22        8.5004    2.7507    6.8552 C.ar      1 RES1    0.0000
     55 C23        9.5836    1.9209    6.7018 C.ar      1 RES1    0.0000
     56 H28       10.3477    2.2200    6.2239 H         1 RES1    0.0000
     57 C24        9.5574    0.6294    7.2565 C.ar      1 RES1    0.0000
     58 H29       10.2953    0.0407    7.1472 H         1 RES1    0.0000
     59 C25        8.4488    0.2348    7.9571 C.ar      1 RES1    0.0000
     60 N1         8.4315   -1.0912    8.5888 N.pl3     1 RES1    0.0000
     61 O6         7.5613   -1.3464    9.4177 O.2       1 RES1    0.0000
     62 O7         9.2777   -1.8990    8.2365 O.2       1 RES1    0.0000
     63 C26        7.3326    1.0395    8.1134 C.ar      1 RES1    0.0000
     64 H30        6.5788    0.7342    8.6050 H         1 RES1    0.0000
     65 C27        7.3408    2.3108    7.5363 C.ar      1 RES1    0.0000
     66 H31        6.5774    2.8728    7.6007 H         1 RES1    0.0000
     67 C28        6.4038    4.4321    3.6121 C.3       1 RES1    0.0000
     68 H32        7.3257    4.4853    3.9684 H         1 RES1    0.0000
     69 H33        6.4603    4.3507    2.6240 H         1 RES1    0.0000
     70 C29        5.7065    3.2016    4.1830 C.3       1 RES1    0.0000
     71 H34        5.4550    3.3597    5.1265 H         1 RES1    0.0000
     72 H35        4.8852    3.0027    3.6688 H         1 RES1    0.0000
     73 O8         6.6470    2.0806    4.0899 O.3       1 RES1    0.0000
     74 C30        6.1791    0.9127    4.5596 C.2       1 RES1    0.0000
     75 O9         5.0505    0.7953    4.9832 O.2       1 RES1    0.0000
     76 C31        7.1706   -0.1785    4.5572 C.ar      1 RES1    0.0000
     77 C32        8.4867   -0.0235    4.1259 C.ar      1 RES1    0.0000
     78 H36        8.7802    0.8219    3.8064 H         1 RES1    0.0000
     79 C33        9.3734   -1.0912    4.1551 C.ar      1 RES1    0.0000
     80 H37       10.2636   -1.0082    3.8348 H         1 RES1    0.0000
     81 C34        8.8939   -2.2826    4.6771 C.ar      1 RES1    0.0000
     82 N2         9.7965   -3.4442    4.7082 N.pl3     1 RES1    0.0000
     83 O10       10.9933   -3.2705    4.3815 O.2       1 RES1    0.0000
     84 O11        9.3445   -4.5339    5.0638 O.2       1 RES1    0.0000
     85 C35        7.6137   -2.4814    5.1306 C.ar      1 RES1    0.0000
     86 H38        7.3319   -3.3237    5.4707 H         1 RES1    0.0000
     87 C36        6.7531   -1.3996    5.0779 C.ar      1 RES1    0.0000
     88 H39        5.8642   -1.4935    5.3979 H         1 RES1    0.0000
     89 C37        4.1403    5.3307    1.9498 C.3       1 RES1    0.0000
     90 H40        4.7990    4.6278    1.7169 H         1 RES1    0.0000
     91 H41        4.0625    5.9429    1.1743 H         1 RES1    0.0000
     92 C38        2.7761    4.6779    2.2231 C.3       1 RES1    0.0000
     93 H42        2.7747    4.2943    3.1342 H         1 RES1    0.0000
     94 H43        2.0698    5.3714    2.1826 H         1 RES1    0.0000
     95 C39        2.4577    3.5867    1.2229 C.3       1 RES1    0.0000
     96 H44        1.5269    3.2720    1.3444 H         1 RES1    0.0000
     97 H45        2.5542    3.9296    0.2997 H         1 RES1    0.0000
     98 O12        3.3769    2.5080    1.4469 O.3       1 RES1    0.0000
     99 C40        3.2281    1.4716    0.4697 C.3       1 RES1    0.0000
    100 H46        3.4423    1.8239   -0.4292 H         1 RES1    0.0000
    101 H47        2.2924    1.1491    0.4657 H         1 RES1    0.0000
    102 C41        4.1569    0.3382    0.8111 C.ar      1 RES1    0.0000
    103 C42        5.5328    0.5902    1.0043 C.ar      1 RES1    0.0000
    104 H48        5.8642    1.4779    0.9476 H         1 RES1    0.0000
    105 C43        6.3976   -0.4509    1.2808 C.ar      1 RES1    0.0000
    106 H49        7.3208   -0.2693    1.4132 H         1 RES1    0.0000
    107 C44        5.9338   -1.7597    1.3687 C.ar      1 RES1    0.0000
    108 O13        6.8840   -2.7147    1.6266 O.3       1 RES1    0.0000
    109 C45        6.4258   -4.0517    1.7736 C.3       1 RES1    0.0000
    110 H50        5.6500   -4.0673    2.3729 H         1 RES1    0.0000
    111 H51        7.1424   -4.6027    2.1543 H         1 RES1    0.0000
    112 H52        6.1695   -4.4086    0.8990 H         1 RES1    0.0000
    113 C46        4.5916   -2.0274    1.1703 C.ar      1 RES1    0.0000
    114 H53        4.2671   -2.9182    1.2189 H         1 RES1    0.0000
    115 C47        3.7214   -0.9738    0.8949 C.ar      1 RES1    0.0000
    116 H54        2.8002   -1.1616    0.7572 H         1 RES1    0.0000
@<TRIPOS>BOND
     1    1    2 1
     2    2    3 1
     3    4    2 1
     4    5    2 1
     5    6    1 2
     6    7    6 1
     7    8    6 1
     8    9    8 1
     9   10    8 1
    10   11   10 1
    11   12   11 1
    12   13   11 1
    13   14   11 1
    14   15   14 1
    15   16   15 1
    16   17   15 1
    17   18   15 1
    18   19    8 1
    19   20   19 1
    20   21   19 1
    21   22   21 1
    22   23    1 1
    23   24   23 1
    24   25   23 1
    25   26   19 1
    26   27   26 1
    27   28   26 1
    28   29   26 1
    29   30   29 1
    30   31   29 1
    31   32   31 1
    32   33   21 1
    33   34   33 1
    34   35   34 1
    35   36   34 1
    36   37   34 1
    37   38   33 1
    38   39   38 1
    39   40   38 1
    40   41   38 1
    41   42   41 1
    42   43   41 1
    43   44   43 2
    44   45   43 1
    45   46   45 1
    46   47   45 1
    47   48   45 1
    48   49   41 1
    49   50   31 1
    50   51   52 1
    51   52   29 1
    52   53   51 2
    53   54   51 1
    54   55   54 ar
    55   56   55 1
    56   57   55 ar
    57   58   57 1
    58   59   57 ar
    59   60   59 1
    60   61   60 2
    61   62   60 2
    62   63   59 ar
    63   64   63 1
    64   65   54 ar
    65   66   65 1
    66   67   50 1
    67   68   67 1
    68   69   67 1
    69   70   67 1
    70   71   70 1
    71   72   70 1
    72   73   70 1
    73   74   73 1
    74   75   74 2
    75   76   74 1
    76   77   76 ar
    77   78   77 1
    78   79   77 ar
    79   80   79 1
    80   81   79 ar
    81   82   81 1
    82   83   82 2
    83   84   82 2
    84   85   81 ar
    85   86   85 1
    86   87   76 ar
    87   88   87 1
    88   89   49 1
    89   90   89 1
    90   91   89 1
    91   92   89 1
    92   93   92 1
    93   94   92 1
    94   95   92 1
    95   96   95 1
    96   97   95 1
    97   98   95 1
    98   99   98 1
    99  100   99 1
   100  101   99 1
   101  102   99 1
   102  103  102 ar
   103  104  103 1
   104  105  103 ar
   105  106  105 1
   106  107  105 ar
   107  108  107 1
   108  109  108 1
   109  110  109 1
   110  111  109 1
   111  112  109 1
   112  113  107 ar
   113  114  113 1
   114  115  102 ar
   115  116  115 1
   116   21   23 1
   117   31   33 1
   118   49   50 2
   119   63   65 ar
   120   85   87 ar
   121  113  115 ar
@<TRIPOS>SUBSTRUCTURE
     1 RES1 1

@<TRIPOS>CRYSIN
   6.8902   15.6556   40.4940  90.0000  90.0000  90.0000  19 1

