# MOL2 file generated by ConQuest
# Please check atom types

@<TRIPOS>MOLECULE
DIGQAO
    53    56     1
SMALL
NO_CHARGES
****
Generated from CSD

@<TRIPOS>ATOM
      1 C1         8.2469    5.6384   11.0650 C.ar      1 RES1    0.0000
      2 C2         8.4671    5.0485    9.8143 C.ar      1 RES1    0.0000
      3 H1         9.3204    5.0375    9.4479 H         1 RES1    0.0000
      4 C3         7.4431    4.5004    9.1500 C.ar      1 RES1    0.0000
      5 H2         7.5829    4.1055    8.3194 H         1 RES1    0.0000
      6 C4         6.1598    4.5255    9.7178 C.ar      1 RES1    0.0000
      7 C5         5.9405    5.0627   10.9754 C.ar      1 RES1    0.0000
      8 C6         7.0025    5.6313   11.6758 C.ar      1 RES1    0.0000
      9 H3         6.8808    5.9931   12.5239 H         1 RES1    0.0000
     10 C7         4.9252    2.8511    8.4322 C.3       1 RES1    0.0000
     11 H4         5.8181    2.6010    8.1507 H         1 RES1    0.0000
     12 H5         4.3442    2.8731    7.6574 H         1 RES1    0.0000
     13 C8         4.3898    1.8766    9.4967 C.3       1 RES1    0.0000
     14 H6         3.5972    1.4236    9.1710 H         1 RES1    0.0000
     15 H7         5.0601    1.2096    9.7120 H         1 RES1    0.0000
     16 C9         3.9562    4.0237   10.2099 C.3       1 RES1    0.0000
     17 C10        4.4858    4.9589   11.3407 C.3       1 RES1    0.0000
     18 C11        3.8888    6.3887   11.2127 C.3       1 RES1    0.0000
     19 H8         4.3958    6.9967   11.7549 H         1 RES1    0.0000
     20 H9         2.9762    6.3824   11.5082 H         1 RES1    0.0000
     21 H10        3.9252    6.6703   10.2960 H         1 RES1    0.0000
     22 C12        4.2206    4.4366   12.7414 C.3       1 RES1    0.0000
     23 H11        4.6520    3.5857   12.8531 H         1 RES1    0.0000
     24 H12        3.2747    4.3352   12.8717 H         1 RES1    0.0000
     25 H13        4.5677    5.0580   13.3859 H         1 RES1    0.0000
     26 C13        2.5531    4.2502    9.7597 C.2       1 RES1    0.0000
     27 H14        1.8774    3.9231   10.3065 H         1 RES1    0.0000
     28 C14        2.1803    4.8771    8.6463 C.2       1 RES1    0.0000
     29 H15        2.8602    5.2389    8.1228 H         1 RES1    0.0000
     30 C15        0.8076    5.0548    8.1588 C.ar      1 RES1    0.0000
     31 C16        0.5824    5.7745    6.9745 C.ar      1 RES1    0.0000
     32 H16        1.3042    6.1756    6.5464 H         1 RES1    0.0000
     33 C17       -0.6751    5.9035    6.4300 C.ar      1 RES1    0.0000
     34 H17       -0.7872    6.3911    5.6459 H         1 RES1    0.0000
     35 C18       -1.7868    5.3120    7.0385 C.ar      1 RES1    0.0000
     36 C19       -1.5750    4.6002    8.2147 C.ar      1 RES1    0.0000
     37 H18       -2.2952    4.2117    8.6568 H         1 RES1    0.0000
     38 C20       -0.3031    4.4697    8.7277 C.ar      1 RES1    0.0000
     39 H19       -0.1885    3.9608    9.4979 H         1 RES1    0.0000
     40 C21       -4.1402    4.6498    7.0059 C.3       1 RES1    0.0000
     41 H20       -3.9893    3.7312    6.7686 H         1 RES1    0.0000
     42 H21       -4.9670    4.9479    6.6232 H         1 RES1    0.0000
     43 H22       -4.1816    4.7308    7.9611 H         1 RES1    0.0000
     44 C22       -3.2435    6.0553    5.2155 C.3       1 RES1    0.0000
     45 H23       -2.9626    6.9723    5.2539 H         1 RES1    0.0000
     46 H24       -4.1692    6.0136    4.9630 H         1 RES1    0.0000
     47 H25       -2.7132    5.5849    4.5675 H         1 RES1    0.0000
     48 N1         9.3494    6.3014   11.7432 N.pl3     1 RES1    0.0000
     49 N2         4.9351    4.1362    9.1117 N.3       1 RES1    0.0000
     50 N3        -3.0723    5.4473    6.5068 N.3       1 RES1    0.0000
     51 O1        10.4262    6.4218   11.1848 O.2       1 RES1    0.0000
     52 O2         9.1647    6.7529   12.8834 O.2       1 RES1    0.0000
     53 O3         4.0799    2.6521   10.6427 O.3       1 RES1    0.0000
@<TRIPOS>BOND
     1    1    2 ar
     2    2    3 1
     3    4    2 ar
     4    5    4 1
     5    6    4 ar
     6    7    6 ar
     7    8    1 ar
     8    9    8 1
     9   10   11 1
    10   12   10 1
    11   13   10 1
    12   14   13 1
    13   15   13 1
    14   16   17 1
    15   17    7 1
    16   18   17 1
    17   19   18 1
    18   20   18 1
    19   21   18 1
    20   22   17 1
    21   23   22 1
    22   24   22 1
    23   25   22 1
    24   26   16 1
    25   27   26 1
    26   28   26 2
    27   29   28 1
    28   30   28 1
    29   31   30 ar
    30   32   31 1
    31   33   31 ar
    32   34   33 1
    33   35   33 ar
    34   36   35 ar
    35   37   36 1
    36   38   30 ar
    37   39   38 1
    38   40   41 1
    39   42   40 1
    40   43   40 1
    41   44   45 1
    42   46   44 1
    43   47   44 1
    44   48    1 1
    45   49    6 1
    46   50   35 1
    47   51   48 2
    48   52   48 2
    49   53   13 1
    50    7    8 ar
    51   10   49 1
    52   16   49 1
    53   16   53 1
    54   36   38 ar
    55   40   50 1
    56   44   50 1
@<TRIPOS>SUBSTRUCTURE
     1 RES1 1

@<TRIPOS>CRYSIN
  21.3330    7.8650   11.8340  90.0000 100.5520  90.0000  14 1

