# MOL2 file generated by ConQuest
# Please check atom types

@<TRIPOS>MOLECULE
DIGYAU
    58    58     2
SMALL
NO_CHARGES
****
Generated from CSD

@<TRIPOS>ATOM
      1 O1         2.4847    4.1237    6.2273 O.2       1 RES1    0.0000
      2 O2         3.0510    2.3096    0.2654 O.3       1 RES1    0.0000
      3 O3         2.8079    3.5601   -1.5754 O.2       1 RES1    0.0000
      4 O4        -3.6149    0.9965    0.4983 O.2       1 RES1    0.0000
      5 O5        -3.9862    2.4682   -1.0219 O.2       1 RES1    0.0000
      6 N1         5.0071    2.5866    2.5680 N.3       1 RES1    0.0000
      7 N2        -3.2388    1.8335   -0.2963 N.pl3     1 RES1    0.0000
      8 C1         1.2185    3.1046    4.5316 C.3       1 RES1    0.0000
      9 H1         0.4835    3.3414    5.1356 H         1 RES1    0.0000
     10 H2         1.2382    2.1328    4.4072 H         1 RES1    0.0000
     11 H3         1.0830    3.5429    3.6665 H         1 RES1    0.0000
     12 C2         2.5263    3.5601    5.1273 C.2       1 RES1    0.0000
     13 C3         3.7758    3.3455    4.4623 C.2       1 RES1    0.0000
     14 C4         3.8612    2.7387    3.2372 C.2       1 RES1    0.0000
     15 H4         3.0629    2.4082    2.8416 H         1 RES1    0.0000
     16 C5         5.0276    3.7632    5.1668 C.3       1 RES1    0.0000
     17 H5         4.9253    3.5979    6.1378 H         1 RES1    0.0000
     18 H6         5.1661    4.7342    5.0355 H         1 RES1    0.0000
     19 C6         6.2563    3.0060    4.6543 C.3       1 RES1    0.0000
     20 H7         6.1730    2.0497    4.9337 H         1 RES1    0.0000
     21 C7         7.5719    3.5667    5.2360 C.3       1 RES1    0.0000
     22 H8         7.5195    3.5593    6.2255 H         1 RES1    0.0000
     23 H9         8.3226    2.9797    4.9671 H         1 RES1    0.0000
     24 C8         7.8461    4.9628    4.7681 C.3       1 RES1    0.0000
     25 H10        8.7205    5.2596    5.1251 H         1 RES1    0.0000
     26 H11        7.1503    5.5679    5.1268 H         1 RES1    0.0000
     27 C9         7.8645    5.0689    3.2532 C.3       1 RES1    0.0000
     28 H12        8.6552    4.5895    2.8995 H         1 RES1    0.0000
     29 H13        7.9426    6.0210    2.9925 H         1 RES1    0.0000
     30 C10        6.5970    4.4769    2.6382 C.3       1 RES1    0.0000
     31 H14        5.8284    5.0557    2.8697 H         1 RES1    0.0000
     32 H15        6.6882    4.4777    1.6516 H         1 RES1    0.0000
     33 C11        6.3043    3.0553    3.1063 C.3       1 RES1    0.0000
     34 C12        7.2518    2.0193    2.5216 C.3       1 RES1    0.0000
     35 H16        7.2808    1.2062    3.0856 H         1 RES1    0.0000
     36 H17        8.1685    2.3852    2.4362 H         1 RES1    0.0000
     37 C13        6.6489    1.7102    1.1379 C.3       1 RES1    0.0000
     38 H18        6.9472    2.3753    0.4686 H         1 RES1    0.0000
     39 H19        6.9173    0.8074    0.8319 H         1 RES1    0.0000
     40 C14        5.1264    1.7858    1.3402 C.3       1 RES1    0.0000
     41 H20        4.7499    0.8707    1.4849 H         1 RES1    0.0000
     42 C15        4.4882    2.4296    0.1416 C.3       1 RES1    0.0000
     43 H21        4.7460    3.3850    0.0930 H         1 RES1    0.0000
     44 H22        4.7945    1.9823   -0.6863 H         1 RES1    0.0000
     45 C16        2.3322    2.8835   -0.7047 C.2       1 RES1    0.0000
     46 C17        0.8888    2.5834   -0.5669 C.ar      1 RES1    0.0000
     47 C18        0.3984    1.7472    0.4269 C.ar      1 RES1    0.0000
     48 H23        0.9945    1.3427    1.0461 H         1 RES1    0.0000
     49 C19       -0.9572    1.5063    0.5122 C.ar      1 RES1    0.0000
     50 H24       -1.3049    0.9381    1.1900 H         1 RES1    0.0000
     51 C20       -1.7989    2.1007   -0.4009 C.ar      1 RES1    0.0000
     52 C21       -1.3375    2.9344   -1.3966 C.ar      1 RES1    0.0000
     53 H25       -1.9396    3.3340   -2.0132 H         1 RES1    0.0000
     54 C22        0.0156    3.1762   -1.4766 C.ar      1 RES1    0.0000
     55 H26        0.3549    3.7492   -2.1536 H         1 RES1    0.0000
     56 H27        1.3855    2.6697    3.6700 Du        2 SUP2    0.0000
     57 H28        0.6322    3.8783    4.3984 Du        2 SUP2    0.0000
     58 H29        0.7874    2.4682    5.1391 Du        2 SUP2    0.0000
@<TRIPOS>BOND
     1    1   12 2
     2    2   42 1
     3    3   45 2
     4    4    7 2
     5    5    7 2
     6    6   14 1
     7    7   51 1
     8    8    9 1
     9   10    8 1
    10   11    8 1
    11   12    8 1
    12   13   12 1
    13   14   13 2
    14   15   14 1
    15   16   13 1
    16   17   16 1
    17   18   16 1
    18   19   16 1
    19   20   19 1
    20   21   19 1
    21   22   21 1
    22   23   21 1
    23   24   21 1
    24   25   24 1
    25   26   24 1
    26   27   24 1
    27   28   27 1
    28   29   27 1
    29   30   27 1
    30   31   30 1
    31   32   30 1
    32   33    6 1
    33   34   33 1
    34   35   34 1
    35   36   34 1
    36   37   34 1
    37   38   37 1
    38   39   37 1
    39   40    6 1
    40   41   40 1
    41   42   40 1
    42   43   42 1
    43   44   42 1
    44   45    2 1
    45   46   45 1
    46   47   46 ar
    47   48   47 1
    48   49   47 ar
    49   50   49 1
    50   51   49 ar
    51   52   51 ar
    52   53   52 1
    53   54   46 ar
    54   55   54 1
    55   19   33 1
    56   30   33 1
    57   37   40 1
    58   52   54 ar
@<TRIPOS>SUBSTRUCTURE
     1 RES1 1
     2 SUP2 56

@<TRIPOS>CRYSIN
  13.7220    8.2220   17.9940  90.0000 102.7320  90.0000 231 1

