# MOL2 file generated by ConQuest
# Please check atom types

@<TRIPOS>MOLECULE
DIHNOY
    31    32     1
SMALL
NO_CHARGES
****
Generated from CSD

@<TRIPOS>ATOM
      1 O1         0.8654    1.4415    1.9639 O.3       1 RES1    0.0000
      2 C1         0.3430    1.0773    4.0879 C.2       1 RES1    0.0000
      3 N1         0.7358    1.9850    3.2869 N.2       1 RES1    0.0000
      4 C2         2.2514    3.9823   -0.9230 C.ar      1 RES1    0.0000
      5 C3         1.3560    2.3390    1.0608 C.ar      1 RES1    0.0000
      6 C4         0.1147    1.5073    5.4885 C.ar      1 RES1    0.0000
      7 O2         3.0741    5.9854   -1.7025 O.2       1 RES1    0.0000
      8 C5         1.8229    3.6019    1.3853 C.ar      1 RES1    0.0000
      9 H1         1.8314    3.8914    2.2694 H         1 RES1    0.0000
     10 O3         2.7616    4.4207   -3.1304 O.2       1 RES1    0.0000
     11 C6         1.8096    2.7148   -1.2504 C.ar      1 RES1    0.0000
     12 H2         1.8202    2.4215   -2.1327 H         1 RES1    0.0000
     13 N2         2.7234    4.8443   -1.9873 N.pl3     1 RES1    0.0000
     14 C7         2.2724    4.4194    0.3747 C.ar      1 RES1    0.0000
     15 H3         2.5919    5.2698    0.5733 H         1 RES1    0.0000
     16 C8         1.3566    1.8993   -0.2490 C.ar      1 RES1    0.0000
     17 H4         1.0483    1.0457   -0.4523 H         1 RES1    0.0000
     18 C9         0.4249    0.6750    6.5409 C.ar      1 RES1    0.0000
     19 H5         0.7793   -0.1676    6.3718 H         1 RES1    0.0000
     20 C10       -0.4347    2.7535    5.7604 C.ar      1 RES1    0.0000
     21 H6        -0.6582    3.3260    5.0622 H         1 RES1    0.0000
     22 C11       -0.6470    3.1410    7.0676 C.ar      1 RES1    0.0000
     23 H7        -1.0239    3.9720    7.2501 H         1 RES1    0.0000
     24 C12        0.0882   -0.3488    3.7163 C.3       1 RES1    0.0000
     25 H8         0.0290   -0.4249    2.7612 H         1 RES1    0.0000
     26 H9        -0.7367   -0.6402    4.1129 H         1 RES1    0.0000
     27 H10        0.8075   -0.8968    4.0366 H         1 RES1    0.0000
     28 C13        0.2179    1.0741    7.8373 C.ar      1 RES1    0.0000
     29 H11        0.4348    0.5029    8.5387 H         1 RES1    0.0000
     30 C14       -0.3055    2.3048    8.0998 C.ar      1 RES1    0.0000
     31 H12       -0.4316    2.5782    8.9805 H         1 RES1    0.0000
@<TRIPOS>BOND
     1    1    3 1
     2    2    3 2
     3    4   11 ar
     4    5    1 1
     5    6    2 1
     6    7   13 2
     7    8    5 ar
     8    9    8 1
     9   10   13 2
    10   11   12 1
    11   13    4 1
    12   14    4 ar
    13   15   14 1
    14   16    5 ar
    15   17   16 1
    16   18    6 ar
    17   19   18 1
    18   20    6 ar
    19   21   20 1
    20   22   20 ar
    21   23   22 1
    22   24    2 1
    23   25   24 1
    24   26   24 1
    25   27   24 1
    26   28   18 ar
    27   29   28 1
    28   30   22 ar
    29   31   30 1
    30    8   14 ar
    31   11   16 ar
    32   28   30 ar
@<TRIPOS>SUBSTRUCTURE
     1 RES1 1

@<TRIPOS>CRYSIN
   7.3560    6.4470   26.3030  90.0000  91.2140  90.0000 231 1

