# MOL2 file generated by ConQuest
# Please check atom types

@<TRIPOS>MOLECULE
DIHYAX
    46    47     1
SMALL
NO_CHARGES
****
Generated from CSD

@<TRIPOS>ATOM
      1 C1        -2.1351    4.5765    6.4300 C.ar      1 RES1    0.0000
      2 C2        -1.5241    3.4947    7.0721 C.ar      1 RES1    0.0000
      3 H1        -0.6271    3.5537    7.3110 H         1 RES1    0.0000
      4 C3        -2.2241    2.3442    7.3576 C.ar      1 RES1    0.0000
      5 C4        -3.5776    2.2462    7.0070 C.ar      1 RES1    0.0000
      6 C5        -4.1762    3.2947    6.3495 C.ar      1 RES1    0.0000
      7 H2        -5.0665    3.2252    6.0895 H         1 RES1    0.0000
      8 C6        -3.4654    4.4590    6.0684 C.ar      1 RES1    0.0000
      9 H3        -3.8891    5.1636    5.6333 H         1 RES1    0.0000
     10 C7        -1.3328    5.7912    6.1495 C.2       1 RES1    0.0000
     11 C8        -1.9682    7.1653    5.9799 C.3       1 RES1    0.0000
     12 H4        -1.2974    7.8412    6.2100 H         1 RES1    0.0000
     13 C9        -2.4138    7.4115    4.5532 C.3       1 RES1    0.0000
     14 H5        -1.7377    7.0919    3.9349 H         1 RES1    0.0000
     15 H6        -3.2385    6.9336    4.3763 H         1 RES1    0.0000
     16 C10       -2.8377    7.4921    8.1864 C.ar      1 RES1    0.0000
     17 C11       -3.9697    7.7223    8.9889 C.ar      1 RES1    0.0000
     18 C12       -3.8204    7.8695   10.3541 C.ar      1 RES1    0.0000
     19 H7        -4.5654    8.0179   10.8895 H         1 RES1    0.0000
     20 C13       -2.5574    7.7961   10.9279 C.ar      1 RES1    0.0000
     21 H8        -2.4614    7.8895   11.8483 H         1 RES1    0.0000
     22 C14       -1.4511    7.5875   10.1462 C.ar      1 RES1    0.0000
     23 H9        -0.6085    7.5484   10.5370 H         1 RES1    0.0000
     24 C15       -1.5845    7.4339    8.7672 C.ar      1 RES1    0.0000
     25 H10       -0.8324    7.2923    8.2392 H         1 RES1    0.0000
     26 C16       -6.3221    8.1653    9.0453 C.3       1 RES1    0.0000
     27 H11       -6.4914    7.5187    9.7352 H         1 RES1    0.0000
     28 H12       -7.0739    8.2025    8.4505 H         1 RES1    0.0000
     29 H13       -6.1849    9.0281    9.4419 H         1 RES1    0.0000
     30 C17       -0.3329    1.3090    8.3261 C.3       1 RES1    0.0000
     31 H14        0.1909    1.4380    7.5312 H         1 RES1    0.0000
     32 H15       -0.0757    0.4871    8.7487 H         1 RES1    0.0000
     33 H16       -0.1837    2.0394    8.9304 H         1 RES1    0.0000
     34 C18       -5.6013    1.0076    7.1935 C.3       1 RES1    0.0000
     35 H17       -6.0200    1.7184    7.6842 H         1 RES1    0.0000
     36 H18       -5.9209    0.1630    7.5184 H         1 RES1    0.0000
     37 H19       -5.8158    1.0941    6.2613 H         1 RES1    0.0000
     38 N1        -0.0599    5.6328    6.0798 N.2       1 RES1    0.0000
     39 O1        -1.6953    1.2546    7.9854 O.3       1 RES1    0.0000
     40 O2        -4.1963    1.0792    7.3644 O.3       1 RES1    0.0000
     41 O3         0.5871    6.8617    5.8733 O.3       1 RES1    0.0000
     42 H20        1.3973    6.7398    5.8308 H         1 RES1    0.0000
     43 O4        -2.6157    8.8166    4.3719 O.3       1 RES1    0.0000
     44 H21       -3.1121    8.9405    3.7315 H         1 RES1    0.0000
     45 O5        -3.1020    7.3486    6.8447 O.3       1 RES1    0.0000
     46 O6        -5.1515    7.7851    8.3126 O.3       1 RES1    0.0000
@<TRIPOS>BOND
     1    1    2 ar
     2    2    3 1
     3    4    2 ar
     4    5    4 ar
     5    6    5 ar
     6    7    6 1
     7    8    1 ar
     8    9    8 1
     9   10    1 1
    10   11   10 1
    11   12   11 1
    12   13   11 1
    13   14   13 1
    14   15   13 1
    15   16   17 ar
    16   17   18 ar
    17   18   19 1
    18   20   18 ar
    19   21   20 1
    20   22   20 ar
    21   23   22 1
    22   24   16 ar
    23   25   24 1
    24   26   27 1
    25   28   26 1
    26   29   26 1
    27   30   31 1
    28   32   30 1
    29   33   30 1
    30   34   35 1
    31   36   34 1
    32   37   34 1
    33   38   10 2
    34   39    4 1
    35   40    5 1
    36   41   38 1
    37   42   41 1
    38   43   13 1
    39   44   43 1
    40   45   11 1
    41   46   17 1
    42    6    8 ar
    43   16   45 1
    44   22   24 ar
    45   26   46 1
    46   30   39 1
    47   34   40 1
@<TRIPOS>SUBSTRUCTURE
     1 RES1 1

@<TRIPOS>CRYSIN
   8.9121   10.6028   10.6070 107.3620  95.4330 110.1760   2 1

