# MOL2 file generated by ConQuest
# Please check atom types

@<TRIPOS>MOLECULE
DIJJUE
   100   104     2
SMALL
NO_CHARGES
****
Generated from CSD

@<TRIPOS>ATOM
      1 O1        37.3290    4.2504   20.4280 O.2       1 RES1    0.0000
      2 O2        32.3737    5.0707   15.2952 O.3       1 RES1    0.0000
      3 O3        26.6001    3.8226    5.7747 O.3       1 RES1    0.0000
      4 O4        23.4870    4.7953    9.1831 O.3       1 RES1    0.0000
      5 O5        35.7239    5.4754   21.1912 O.2       1 RES1    0.0000
      6 N1        36.2554    4.8191   20.3087 N.pl3     1 RES1    0.0000
      7 C1        31.5168    4.9866   14.2322 C.ar      1 RES1    0.0000
      8 C2        27.3526    4.1131    7.9558 C.ar      1 RES1    0.0000
      9 H1        28.2072    3.9153    7.6451 H         1 RES1    0.0000
     10 C3        30.7883    4.3172   12.0686 C.ar      1 RES1    0.0000
     11 H2        30.9458    3.8686   11.2683 H         1 RES1    0.0000
     12 C4        25.8816    4.6580    9.7326 C.ar      1 RES1    0.0000
     13 H3        25.7430    4.8579   10.6301 H         1 RES1    0.0000
     14 C5        26.2777    4.1138    7.0665 C.ar      1 RES1    0.0000
     15 C6        25.5706    3.8715    4.8092 C.3       1 RES1    0.0000
     16 H4        25.9318    3.6630    3.9448 H         1 RES1    0.0000
     17 H5        25.1898    4.7522    4.7924 H         1 RES1    0.0000
     18 H6        24.8921    3.2316    5.0336 H         1 RES1    0.0000
     19 C7        24.7977    4.6192    8.8530 C.ar      1 RES1    0.0000
     20 C8        34.2503    4.4833   16.6034 C.ar      1 RES1    0.0000
     21 C9        33.6384    5.0836   17.6875 C.ar      1 RES1    0.0000
     22 H7        32.7751    5.4165   17.6001 H         1 RES1    0.0000
     23 C10       23.1618    4.9708   10.5602 C.3       1 RES1    0.0000
     24 H8        22.2098    5.0484   10.6569 H         1 RES1    0.0000
     25 H9        23.5823    5.7688   10.8897 H         1 RES1    0.0000
     26 H10       23.4735    4.2144   11.0623 H         1 RES1    0.0000
     27 C11       29.3729    5.6537   13.4288 C.ar      1 RES1    0.0000
     28 H11       28.5774    6.1160   13.5632 H         1 RES1    0.0000
     29 C12       35.5302    3.9851   16.7554 C.ar      1 RES1    0.0000
     30 H12       35.9526    3.5825   16.0322 H         1 RES1    0.0000
     31 C13       28.4493    4.9736   11.2894 C.2       1 RES1    0.0000
     32 H13       27.6953    5.4589   11.5397 H         1 RES1    0.0000
     33 C14       31.7701    4.3122   13.0593 C.ar      1 RES1    0.0000
     34 H14       32.5744    3.8643   12.9316 H         1 RES1    0.0000
     35 C15       33.5634    4.3194   15.2821 C.3       1 RES1    0.0000
     36 H15       34.1423    4.6285   14.5682 H         1 RES1    0.0000
     37 H16       33.3609    3.3833   15.1277 H         1 RES1    0.0000
     38 C16       27.1666    4.3978    9.2686 C.ar      1 RES1    0.0000
     39 C17       35.5628    4.6904   19.0120 C.ar      1 RES1    0.0000
     40 C18       30.3246    5.6588   14.4138 C.ar      1 RES1    0.0000
     41 H17       30.1677    6.1167   15.2081 H         1 RES1    0.0000
     42 C19       24.9970    4.3640    7.4994 C.ar      1 RES1    0.0000
     43 H18       24.2841    4.3632    6.9030 H         1 RES1    0.0000
     44 C20       34.2964    5.1965   18.9025 C.ar      1 RES1    0.0000
     45 H19       33.8853    5.6070   19.6286 H         1 RES1    0.0000
     46 C21       28.3784    4.3949   10.1741 C.2       1 RES1    0.0000
     47 H20       29.1286    3.9297    9.8847 H         1 RES1    0.0000
     48 C22       29.5676    4.9837   12.2534 C.ar      1 RES1    0.0000
     49 C23       36.1911    4.0764   17.9643 C.ar      1 RES1    0.0000
     50 H21       37.0464    3.7263   18.0641 H         1 RES1    0.0000
     51 O6        22.0150    4.3007    5.2301 O.2       2 RES2    0.0000
     52 O7         9.7205    3.8355   18.6832 O.3       2 RES2    0.0000
     53 O8         7.2321    5.1332   14.7359 O.3       2 RES2    0.0000
     54 O9        16.5224    5.1555    9.7827 O.3       2 RES2    0.0000
     55 O10       20.4676    5.4625    4.2723 O.2       2 RES2    0.0000
     56 N2        20.9042    4.8147    5.2172 N.pl3     2 RES2    0.0000
     57 C24       15.6260    4.3978   11.9199 C.ar      2 RES2    0.0000
     58 H22       16.4074    3.9419   12.1393 H         2 RES2    0.0000
     59 C25       17.9671    4.9578    7.4744 C.ar      2 RES2    0.0000
     60 H23       17.0756    5.2188    7.4407 H         2 RES2    0.0000
     61 C26       11.9944    4.4344   14.5029 C.2       2 RES2    0.0000
     62 H24       12.7063    3.9463   14.8496 H         2 RES2    0.0000
     63 C27       12.1935    5.0599   13.3595 C.2       2 RES2    0.0000
     64 H25       11.4780    5.5703   13.0573 H         2 RES2    0.0000
     65 C28       13.3185    5.7501   11.2886 C.ar      2 RES2    0.0000
     66 H26       12.5447    6.2145   11.0656 H         2 RES2    0.0000
     67 C29       19.8099    4.0685    8.6845 C.ar      2 RES2    0.0000
     68 H27       20.1717    3.7335    9.4743 H         2 RES2    0.0000
     69 C30       13.3716    5.0700   12.4960 C.ar      2 RES2    0.0000
     70 C31       20.0580    4.6674    6.4119 C.ar      2 RES2    0.0000
     71 C32       18.7480    5.0657    6.3461 C.ar      2 RES2    0.0000
     72 H28       18.3953    5.4028    5.5546 H         2 RES2    0.0000
     73 C33       20.6037    4.1576    7.5655 C.ar      2 RES2    0.0000
     74 H29       21.4914    3.8794    7.5881 H         2 RES2    0.0000
     75 C34        8.5933    3.9765   19.5162 C.3       2 RES2    0.0000
     76 H30        8.8297    3.7385   20.4159 H         2 RES2    0.0000
     77 H31        7.8919    3.3999   19.2048 H         2 RES2    0.0000
     78 H32        8.2900    4.8881   19.4946 H         2 RES2    0.0000
     79 C35       10.7461    4.4438   15.2734 C.ar      2 RES2    0.0000
     80 C36       15.5314    5.0743   10.7210 C.ar      2 RES2    0.0000
     81 C37       17.6618    4.3201    9.9021 C.3       2 RES2    0.0000
     82 H33       17.3856    3.3963   10.0103 H         2 RES2    0.0000
     83 H34       18.1811    4.5775   10.6787 H         2 RES2    0.0000
     84 C38       18.4902    4.4661    8.6587 C.ar      2 RES2    0.0000
     85 C39       10.7550    4.1095   16.6168 C.ar      2 RES2    0.0000
     86 H35       11.5501    3.8442   17.0222 H         2 RES2    0.0000
     87 C40        9.5924    4.1670   17.3591 C.ar      2 RES2    0.0000
     88 C41       14.5567    4.4014   12.7918 C.ar      2 RES2    0.0000
     89 H36       14.6305    3.9448   13.5983 H         2 RES2    0.0000
     90 C42        8.3905    4.5264   16.7798 C.ar      2 RES2    0.0000
     91 H37        7.6118    4.5717   17.2852 H         2 RES2    0.0000
     92 C43        5.9953    4.9025   15.3855 C.3       2 RES2    0.0000
     93 H38        5.9361    5.4546   16.1679 H         2 RES2    0.0000
     94 H39        5.9367    3.9786   15.6403 H         2 RES2    0.0000
     95 H40        5.2766    5.1167   14.7876 H         2 RES2    0.0000
     96 C44        8.3761    4.8162   15.4282 C.ar      2 RES2    0.0000
     97 C45        9.5306    4.7932   14.6858 C.ar      2 RES2    0.0000
     98 H41        9.5021    5.0124   13.7826 H         2 RES2    0.0000
     99 C46       14.3736    5.7573   10.4135 C.ar      2 RES2    0.0000
    100 H42       14.3083    6.2246    9.6116 H         2 RES2    0.0000
@<TRIPOS>BOND
     1    1    6 2
     2    2    7 1
     3    3   14 1
     4    4   19 1
     5    5    6 2
     6    6   39 1
     7    7   33 ar
     8    8    9 1
     9   10   11 1
    10   12   13 1
    11   14    8 ar
    12   15    3 1
    13   16   15 1
    14   17   15 1
    15   18   15 1
    16   19   12 ar
    17   20   21 ar
    18   21   22 1
    19   23    4 1
    20   24   23 1
    21   25   23 1
    22   26   23 1
    23   27   28 1
    24   29   20 ar
    25   30   29 1
    26   31   32 1
    27   33   10 ar
    28   34   33 1
    29   35    2 1
    30   36   35 1
    31   37   35 1
    32   38    8 ar
    33   39   44 ar
    34   40    7 ar
    35   41   40 1
    36   42   14 ar
    37   43   42 1
    38   44   21 ar
    39   45   44 1
    40   46   31 2
    41   47   46 1
    42   48   10 ar
    43   49   29 ar
    44   50   49 1
    45   51   56 2
    46   52   75 1
    47   53   92 1
    48   54   80 1
    49   55   56 2
    50   56   70 1
    51   57   58 1
    52   59   60 1
    53   61   62 1
    54   63   61 2
    55   64   63 1
    56   65   66 1
    57   67   68 1
    58   69   63 1
    59   70   71 ar
    60   71   59 ar
    61   72   71 1
    62   73   67 ar
    63   74   73 1
    64   75   76 1
    65   77   75 1
    66   78   75 1
    67   79   61 1
    68   80   57 ar
    69   81   54 1
    70   82   81 1
    71   83   81 1
    72   84   59 ar
    73   85   79 ar
    74   86   85 1
    75   87   52 1
    76   88   57 ar
    77   89   88 1
    78   90   87 ar
    79   91   90 1
    80   92   93 1
    81   94   92 1
    82   95   92 1
    83   96   53 1
    84   97   79 ar
    85   98   97 1
    86   99   65 ar
    87  100   99 1
    88   12   38 ar
    89   19   42 ar
    90   20   35 1
    91   27   40 ar
    92   27   48 ar
    93   31   48 1
    94   38   46 1
    95   39   49 ar
    96   65   69 ar
    97   67   84 ar
    98   69   88 ar
    99   70   73 ar
   100   80   99 ar
   101   81   84 1
   102   85   87 ar
   103   90   96 ar
   104   96   97 ar
@<TRIPOS>SUBSTRUCTURE
     1 RES1 1
     2 RES2 51

@<TRIPOS>CRYSIN
  32.6130    7.1894   16.7673  90.0000  92.5390  90.0000  14 1

