# MOL2 file generated by ConQuest
# Please check atom types

@<TRIPOS>MOLECULE
DIJNAM
    40    43     1
SMALL
NO_CHARGES
****
Generated from CSD

@<TRIPOS>ATOM
      1 O1        10.2012   -0.2091    6.2327 O.3       1 RES1    0.0000
      2 C1         7.4219    1.5359    4.4214 C.2       1 RES1    0.0000
      3 O2         7.7174    2.7007    4.1966 O.2       1 RES1    0.0000
      4 C2         9.4928    0.9697    5.8957 C.3       1 RES1    0.0000
      5 C3         9.3125    1.8101    7.1481 C.ar      1 RES1    0.0000
      6 C4         9.0734    3.2631    9.4682 C.ar      1 RES1    0.0000
      7 C5         9.6629    3.8541    8.3753 C.ar      1 RES1    0.0000
      8 C6         9.7771    3.1107    7.2142 C.ar      1 RES1    0.0000
      9 C7         8.6031    1.9714    9.4480 C.ar      1 RES1    0.0000
     10 C8         8.1795    0.6082    5.2665 C.2       1 RES1    0.0000
     11 C9         8.7234    1.2477    8.2790 C.ar      1 RES1    0.0000
     12 N1         8.9510    4.0396   10.7127 N.pl3     1 RES1    0.0000
     13 C10        7.4986   -0.5324    5.3720 C.2       1 RES1    0.0000
     14 O3         8.5220    3.4799   11.7018 O.2       1 RES1    0.0000
     15 C11        6.2328    0.7989    3.8312 C.3       1 RES1    0.0000
     16 C12        6.4860    0.4795    2.3032 C.3       1 RES1    0.0000
     17 C13        6.2018   -0.5075    4.6481 C.3       1 RES1    0.0000
     18 C14        4.9181    1.6073    3.7513 C.3       1 RES1    0.0000
     19 O4         9.2739    5.2115   10.6996 O.2       1 RES1    0.0000
     20 C15        4.5538    1.5856    2.2516 C.3       1 RES1    0.0000
     21 C16        6.7252    1.7744    1.5852 C.2       1 RES1    0.0000
     22 C17        5.0382    0.1951    1.8757 C.3       1 RES1    0.0000
     23 C18        5.5804    2.4298    1.5470 C.2       1 RES1    0.0000
     24 H1        11.1466   -0.1581    5.8449 H         1 RES1    0.0000
     25 H2         9.9999    1.4753    5.2575 H         1 RES1    0.0000
     26 H3         9.9701    4.7620    8.4377 H         1 RES1    0.0000
     27 H4        10.1922    3.5073    6.4452 H         1 RES1    0.0000
     28 H5         8.1956    1.6022   10.2350 H         1 RES1    0.0000
     29 H6         8.3981    0.3456    8.2425 H         1 RES1    0.0000
     30 H7         7.8754   -1.2656    5.8633 H         1 RES1    0.0000
     31 H8         7.1966   -0.1339    2.1030 H         1 RES1    0.0000
     32 H9         6.1187   -1.2834    4.0881 H         1 RES1    0.0000
     33 H10        5.4883   -0.4967    5.2906 H         1 RES1    0.0000
     34 H11        4.2577    1.1795    4.2999 H         1 RES1    0.0000
     35 H12        5.0732    2.4986    4.0734 H         1 RES1    0.0000
     36 H13        3.6303    1.6730    1.9999 H         1 RES1    0.0000
     37 H14        7.5995    1.9828    1.2485 H         1 RES1    0.0000
     38 H15        5.0189   -0.0427    0.9465 H         1 RES1    0.0000
     39 H16        4.7058   -0.5362    2.3995 H         1 RES1    0.0000
     40 H17        5.3261    3.2816    1.1841 H         1 RES1    0.0000
@<TRIPOS>BOND
     1    1    4 1
     2    2    3 2
     3    4    5 1
     4    5    8 ar
     5    6    7 ar
     6    7    8 ar
     7    8   27 1
     8    9    6 ar
     9   10    2 1
    10   11    5 ar
    11   12    6 1
    12   13   10 2
    13   14   12 2
    14   15    2 1
    15   16   15 1
    16   17   13 1
    17   18   15 1
    18   19   12 2
    19   20   18 1
    20   21   16 1
    21   22   16 1
    22   23   20 1
    23   24    1 1
    24   25    4 1
    25   26    7 1
    26   28    9 1
    27   29   11 1
    28   30   13 1
    29   31   16 1
    30   32   17 1
    31   33   17 1
    32   34   18 1
    33   35   18 1
    34   36   20 1
    35   37   21 1
    36   38   22 1
    37   39   22 1
    38   40   23 1
    39    4   10 1
    40    9   11 ar
    41   15   17 1
    42   20   22 1
    43   21   23 2
@<TRIPOS>SUBSTRUCTURE
     1 RES1 1

@<TRIPOS>CRYSIN
  13.1375    6.3757   21.8859  90.0000 122.7110  90.0000  14 1

