# MOL2 file generated by ConQuest
# Please check atom types

@<TRIPOS>MOLECULE
DIJNUG
    44    45     1
SMALL
NO_CHARGES
****
Generated from CSD

@<TRIPOS>ATOM
      1 C1        -2.1755    6.7207    7.0850 C.3       1 RES1    0.0000
      2 C2        -0.9263    5.9250    7.5112 C.3       1 RES1    0.0000
      3 H1        -0.9383    5.1041    6.9769 H         1 RES1    0.0000
      4 C3        -1.1981    5.4896    8.9488 C.3       1 RES1    0.0000
      5 C4        -2.6969    5.2120    8.9538 C.3       1 RES1    0.0000
      6 H2        -2.8610    4.2625    8.8432 H         1 RES1    0.0000
      7 H3        -3.0851    5.4929    9.7975 H         1 RES1    0.0000
      8 C5        -3.3188    5.9807    7.8156 C.3       1 RES1    0.0000
      9 H4        -3.9680    6.6174    8.1549 H         1 RES1    0.0000
     10 H5        -3.7699    5.3742    7.2080 H         1 RES1    0.0000
     11 C6        -2.1185    8.0979    7.5907 C.1       1 RES1    0.0000
     12 C7        -2.3539    6.7574    5.5554 C.3       1 RES1    0.0000
     13 H6        -1.5745    7.1778    5.1603 H         1 RES1    0.0000
     14 H7        -2.3954    5.8470    5.2237 H         1 RES1    0.0000
     15 C8        -3.5845    7.4936    5.0994 C.2       1 RES1    0.0000
     16 H8        -3.6499    8.3900    5.3380 H         1 RES1    0.0000
     17 C9        -4.5069    7.0281    4.4446 C.2       1 RES1    0.0000
     18 H9        -4.4867    6.1355    4.1812 H         1 RES1    0.0000
     19 H10       -5.2281    7.5648    4.2098 H         1 RES1    0.0000
     20 C10        0.4183    6.5791    7.2341 C.3       1 RES1    0.0000
     21 H11        0.5002    7.3786    7.7597 H         1 RES1    0.0000
     22 H12        0.4802    6.8018    6.3022 H         1 RES1    0.0000
     23 H13        1.1238    5.9712    7.4652 H         1 RES1    0.0000
     24 C11       -0.3187    4.3467    9.4359 C.3       1 RES1    0.0000
     25 H14        0.6008    4.6203    9.4185 H         1 RES1    0.0000
     26 H15       -0.4377    3.5853    8.8644 H         1 RES1    0.0000
     27 H16       -0.5660    4.1128   10.3343 H         1 RES1    0.0000
     28 C12       -1.0594    6.7704   11.0450 C.2       1 RES1    0.0000
     29 C13       -0.5021    8.0385   11.5918 C.ar      1 RES1    0.0000
     30 C14       -0.4344    8.1983   12.9586 C.ar      1 RES1    0.0000
     31 H17       -0.7638    7.5301   13.5165 H         1 RES1    0.0000
     32 C15        0.1111    9.3264   13.5053 C.ar      1 RES1    0.0000
     33 H18        0.1650    9.4268   14.4285 H         1 RES1    0.0000
     34 C16        0.5742   10.2980   12.6753 C.ar      1 RES1    0.0000
     35 C17        0.5029   10.1935   11.3109 C.ar      1 RES1    0.0000
     36 H19        0.8111   10.8799   10.7642 H         1 RES1    0.0000
     37 C18       -0.0373    9.0484   10.7704 C.ar      1 RES1    0.0000
     38 H20       -0.0895    8.9540    9.8460 H         1 RES1    0.0000
     39 N1        -2.1146    9.1694    7.9734 N.1       1 RES1    0.0000
     40 N2         1.2314   11.5006   13.2443 N.pl3     1 RES1    0.0000
     41 O1        -0.8770    6.6974    9.7266 O.3       1 RES1    0.0000
     42 O2        -1.5972    5.9363   11.7217 O.2       1 RES1    0.0000
     43 O3         1.3862   11.5402   14.4471 O.2       1 RES1    0.0000
     44 O4         1.6146   12.3593   12.4864 O.2       1 RES1    0.0000
@<TRIPOS>BOND
     1    1    2 1
     2    2    3 1
     3    4    2 1
     4    5    4 1
     5    6    5 1
     6    7    5 1
     7    8    1 1
     8    9    8 1
     9   10    8 1
    10   11    1 1
    11   12    1 1
    12   13   12 1
    13   14   12 1
    14   15   12 1
    15   16   15 1
    16   17   15 2
    17   18   17 1
    18   19   17 1
    19   20    2 1
    20   21   20 1
    21   22   20 1
    22   23   20 1
    23   24    4 1
    24   25   24 1
    25   26   24 1
    26   27   24 1
    27   28   29 1
    28   29   30 ar
    29   30   31 1
    30   32   30 ar
    31   33   32 1
    32   34   32 ar
    33   35   34 ar
    34   36   35 1
    35   37   29 ar
    36   38   37 1
    37   39   11 3
    38   40   34 1
    39   41    4 1
    40   42   28 2
    41   43   40 2
    42   44   40 2
    43    5    8 1
    44   28   41 1
    45   35   37 ar
@<TRIPOS>SUBSTRUCTURE
     1 RES1 1

@<TRIPOS>CRYSIN
   7.7823   18.2549   12.5769  90.0000  98.8990  90.0000  14 1

