# MOL2 file generated by ConQuest
# Please check atom types

@<TRIPOS>MOLECULE
DIJSIA
    39    41     1
SMALL
NO_CHARGES
****
Generated from CSD

@<TRIPOS>ATOM
      1 O1         3.5120    3.4250    3.6046 O.3       1 RES1    0.0000
      2 O2         5.6679    5.0644    4.2417 O.3       1 RES1    0.0000
      3 O3         4.7086    6.7888    3.3371 O.2       1 RES1    0.0000
      4 O4         1.0738    4.5978    3.8057 O.3       1 RES1    0.0000
      5 H1         0.7004    4.8411    3.1169 H         1 RES1    0.0000
      6 O5         3.6225    4.2223   10.1470 O.2       1 RES1    0.0000
      7 O6         4.0779    6.3186   10.0783 O.2       1 RES1    0.0000
      8 N1         3.6745    5.2881    9.5578 N.pl3     1 RES1    0.0000
      9 C1         2.8894    3.7566    0.9662 C.ar      1 RES1    0.0000
     10 H2         2.9020    2.9287    1.3880 H         1 RES1    0.0000
     11 C2         2.6027    3.8293   -0.3955 C.ar      1 RES1    0.0000
     12 H3         2.4188    3.0531   -0.8728 H         1 RES1    0.0000
     13 C3         2.5910    5.0360   -1.0296 C.ar      1 RES1    0.0000
     14 H4         2.4158    5.0866   -1.9412 H         1 RES1    0.0000
     15 C4         2.8395    6.1645   -0.3135 C.ar      1 RES1    0.0000
     16 H5         2.8214    6.9913   -0.7389 H         1 RES1    0.0000
     17 C5         3.1189    6.0984    1.0393 C.ar      1 RES1    0.0000
     18 H6         3.2859    6.8812    1.5122 H         1 RES1    0.0000
     19 C6         3.1529    4.8873    1.6937 C.ar      1 RES1    0.0000
     20 C7         3.4283    4.7871    3.2059 C.3       1 RES1    0.0000
     21 C8         4.6572    5.6140    3.5811 C.2       1 RES1    0.0000
     22 C9         5.6718    3.6520    4.5323 C.3       1 RES1    0.0000
     23 H7         5.3335    3.5067    5.4298 H         1 RES1    0.0000
     24 H8         6.5819    3.3184    4.4971 H         1 RES1    0.0000
     25 C10        4.8401    2.9132    3.5679 C.3       1 RES1    0.0000
     26 H9         5.2062    3.0101    2.6748 H         1 RES1    0.0000
     27 H10        4.8348    1.9697    3.7934 H         1 RES1    0.0000
     28 C11        2.2241    5.3828    4.0188 C.3       1 RES1    0.0000
     29 H11        2.0528    6.3010    3.7238 H         1 RES1    0.0000
     30 C12        2.5393    5.3784    5.5029 C.ar      1 RES1    0.0000
     31 C13        2.3327    4.2411    6.2594 C.ar      1 RES1    0.0000
     32 H12        1.9416    3.4913    5.8728 H         1 RES1    0.0000
     33 C14        2.7089    4.2157    7.5990 C.ar      1 RES1    0.0000
     34 H13        2.5816    3.4505    8.1116 H         1 RES1    0.0000
     35 C15        3.2640    5.3299    8.1460 C.ar      1 RES1    0.0000
     36 C16        3.4572    6.4882    7.4352 C.ar      1 RES1    0.0000
     37 H14        3.8285    7.2391    7.8386 H         1 RES1    0.0000
     38 C17        3.0830    6.5069    6.0983 C.ar      1 RES1    0.0000
     39 H15        3.1969    7.2831    5.5980 H         1 RES1    0.0000
@<TRIPOS>BOND
     1    1   20 1
     2    2   21 1
     3    3   21 2
     4    4    5 1
     5    6    8 2
     6    7    8 2
     7    8   35 1
     8    9   10 1
     9   11    9 ar
    10   12   11 1
    11   13   11 ar
    12   14   13 1
    13   15   13 ar
    14   16   15 1
    15   17   15 ar
    16   18   17 1
    17   19    9 ar
    18   20   19 1
    19   21   20 1
    20   22    2 1
    21   23   22 1
    22   24   22 1
    23   25    1 1
    24   26   25 1
    25   27   25 1
    26   28    4 1
    27   29   28 1
    28   30   28 1
    29   31   30 ar
    30   32   31 1
    31   33   31 ar
    32   34   33 1
    33   35   33 ar
    34   36   35 ar
    35   37   36 1
    36   38   30 ar
    37   39   38 1
    38   17   19 ar
    39   20   28 1
    40   22   25 1
    41   36   38 ar
@<TRIPOS>SUBSTRUCTURE
     1 RES1 1

@<TRIPOS>CRYSIN
   7.7590   11.0100    9.4700  90.0000 111.5600  90.0000   4 1

