# MOL2 file generated by ConQuest
# Please check atom types

@<TRIPOS>MOLECULE
DIJVEY
   126   156     1
SMALL
NO_CHARGES
****
Generated from CSD

@<TRIPOS>ATOM
      1 O1         5.8170   12.5918    6.4859 O.3       1 RES1    0.0000
      2 H1         6.5272   12.1459    7.0421 H         1 RES1    0.0000
      3 O2         6.3612   10.0255    9.1045 O.3       1 RES1    0.0000
      4 O3         7.2265   10.5672    8.0322 O.3       1 RES1    0.0000
      5 O4         3.3270   12.4510   10.9124 O.3       1 RES1    0.0000
      6 O5         4.7433   12.0666   11.1424 O.3       1 RES1    0.0000
      7 O6         1.3228   14.6466    7.8815 O.3       1 RES1    0.0000
      8 O7         1.9157   14.9284    9.1666 O.3       1 RES1    0.0000
      9 O8         3.0126   13.6961    4.1178 O.3       1 RES1    0.0000
     10 O9         2.5243   14.9075    4.8090 O.3       1 RES1    0.0000
     11 O10        6.2521   10.6042    4.8570 O.3       1 RES1    0.0000
     12 O11        7.7034   11.8560    3.7969 O.2       1 RES1    0.0000
     13 O12        5.5934   12.4073    3.6521 O.2       1 RES1    0.0000
     14 C1        -1.4258    7.7931    6.0815 C.2       1 RES1    0.0000
     15 C2        -0.4166    7.0039    5.4020 C.2       1 RES1    0.0000
     16 C3         0.2928    6.2305    6.3968 C.2       1 RES1    0.0000
     17 C4        -0.2930    6.5413    7.6961 C.2       1 RES1    0.0000
     18 C5        -1.3476    7.5053    7.4873 C.2       1 RES1    0.0000
     19 C6        -1.5442    8.5222    8.4199 C.2       1 RES1    0.0000
     20 C7        -1.8320    9.8657    7.9566 C.2       1 RES1    0.0000
     21 C8        -1.9160   10.1478    6.5990 C.2       1 RES1    0.0000
     22 C9        -1.6991    9.0822    5.6422 C.2       1 RES1    0.0000
     23 C10       -0.9888    9.6594    4.5117 C.2       1 RES1    0.0000
     24 C11       -0.0122    8.8946    3.8660 C.2       1 RES1    0.0000
     25 C12        0.2769    7.5425    4.3193 C.2       1 RES1    0.0000
     26 C13        1.7124    7.3362    4.2115 C.2       1 RES1    0.0000
     27 C14        2.3822    6.5943    5.1613 C.2       1 RES1    0.0000
     28 C15        1.6653    6.0218    6.2911 C.2       1 RES1    0.0000
     29 C16        2.5152    6.1245    7.4522 C.2       1 RES1    0.0000
     30 C17        1.9632    6.4196    8.7033 C.2       1 RES1    0.0000
     31 C18        0.5302    6.6401    8.8155 C.2       1 RES1    0.0000
     32 C19        0.3199    7.6943    9.7793 C.2       1 RES1    0.0000
     33 C20       -0.6893    8.6310    9.5742 C.2       1 RES1    0.0000
     34 C21       -0.4513   10.0232    9.8231 C.2       1 RES1    0.0000
     35 C22       -1.1426   10.7909    8.8396 C.2       1 RES1    0.0000
     36 C23       -0.5486   11.9382    8.3231 C.2       1 RES1    0.0000
     37 C24       -0.6425   12.2284    6.9173 C.2       1 RES1    0.0000
     38 C25       -1.3209   11.3567    6.0664 C.2       1 RES1    0.0000
     39 C26       -0.7469   11.0502    4.7958 C.2       1 RES1    0.0000
     40 C27        0.4652   11.6446    4.4286 C.2       1 RES1    0.0000
     41 C28        1.4785   10.8540    3.7771 C.2       1 RES1    0.0000
     42 C29        1.2420    9.5162    3.4822 C.2       1 RES1    0.0000
     43 C30        2.2947    8.5637    3.6853 C.2       1 RES1    0.0000
     44 C31        3.5267    9.0049    4.1786 C.2       1 RES1    0.0000
     45 C32        4.2231    8.2400    5.1658 C.2       1 RES1    0.0000
     46 C33        3.6758    7.0426    5.6509 C.2       1 RES1    0.0000
     47 C34        3.7544    6.7590    7.0602 C.2       1 RES1    0.0000
     48 C35        4.3836    7.6642    7.8983 C.2       1 RES1    0.0000
     49 C36        3.8186    7.9679    9.2023 C.2       1 RES1    0.0000
     50 C37        2.6298    7.3434    9.5782 C.2       1 RES1    0.0000
     51 C38        1.6146    8.1355   10.2522 C.2       1 RES1    0.0000
     52 C39        1.8579    9.4747   10.4742 C.2       1 RES1    0.0000
     53 C40        0.8102   10.4501   10.2535 C.2       1 RES1    0.0000
     54 C41        1.3831   11.6675    9.7479 C.2       1 RES1    0.0000
     55 C42        0.7241   12.3921    8.8011 C.2       1 RES1    0.0000
     56 C43        1.4119   13.2193    7.7080 C.3       1 RES1    0.0000
     57 C44        0.5675   12.8928    6.4908 C.2       1 RES1    0.0000
     58 C45        1.1133   12.6045    5.2738 C.2       1 RES1    0.0000
     59 C46        2.6251   12.6219    4.9946 C.3       1 RES1    0.0000
     60 C47        2.7819   11.3195    4.2187 C.2       1 RES1    0.0000
     61 C48        3.7845   10.4028    4.4131 C.2       1 RES1    0.0000
     62 C49        4.9013    9.1409    6.0555 C.2       1 RES1    0.0000
     63 C50        4.9931    8.8573    7.3855 C.2       1 RES1    0.0000
     64 C51        5.0561    9.9215    8.4785 C.3       1 RES1    0.0000
     65 C52        4.0929    9.3357    9.5272 C.2       1 RES1    0.0000
     66 C53        3.1252   10.0820   10.1297 C.2       1 RES1    0.0000
     67 C54        2.9113   11.5701    9.8589 C.3       1 RES1    0.0000
     68 C55        3.5065   11.8855    8.5170 C.2       1 RES1    0.0000
     69 C56        2.8023   12.6938    7.4865 C.2       1 RES1    0.0000
     70 C57        3.3867   12.5083    6.2854 C.2       1 RES1    0.0000
     71 C58        4.6904   11.6873    6.4908 C.3       1 RES1    0.0000
     72 C59        4.5012   11.1884    7.9274 C.2       1 RES1    0.0000
     73 C60        4.9004   10.5503    5.4400 C.3       1 RES1    0.0000
     74 C61        8.5060    9.8399    8.0578 C.3       1 RES1    0.0000
     75 C62        9.1755   10.0576    9.4002 C.3       1 RES1    0.0000
     76 H2         9.2332   11.0001    9.5795 H         1 RES1    0.0000
     77 H3        10.0581    9.6823    9.3813 H         1 RES1    0.0000
     78 H4         8.6599    9.6322   10.0874 H         1 RES1    0.0000
     79 C63        9.2383   10.5518    6.9307 C.3       1 RES1    0.0000
     80 H5         8.7233   10.4887    6.1227 H         1 RES1    0.0000
     81 H6        10.0963   10.1393    6.7948 H         1 RES1    0.0000
     82 H7         9.3621   11.4756    7.1610 H         1 RES1    0.0000
     83 C64        8.2849    8.3804    7.7369 C.3       1 RES1    0.0000
     84 H8         7.7701    7.9736    8.4373 H         1 RES1    0.0000
     85 H9         9.1330    7.9364    7.6614 H         1 RES1    0.0000
     86 H10        7.8092    8.3045    6.9062 H         1 RES1    0.0000
     87 C65        5.5152   13.2960   11.3591 C.3       1 RES1    0.0000
     88 C66        6.9193   12.6959   11.5222 C.3       1 RES1    0.0000
     89 H11        6.9272   12.1001   12.2755 H         1 RES1    0.0000
     90 H12        7.5539   13.4020   11.6657 H         1 RES1    0.0000
     91 H13        7.1537   12.2104   10.7274 H         1 RES1    0.0000
     92 C67        5.0445   13.9864   12.6229 C.3       1 RES1    0.0000
     93 H14        4.1681   14.3516   12.4813 H         1 RES1    0.0000
     94 H15        5.6541   14.6925   12.8476 H         1 RES1    0.0000
     95 H16        5.0137   13.3505   13.3422 H         1 RES1    0.0000
     96 C68        5.4479   14.1841   10.1412 C.3       1 RES1    0.0000
     97 H17        5.7247   13.6885    9.3681 H         1 RES1    0.0000
     98 H18        6.0288   14.9389   10.2630 H         1 RES1    0.0000
     99 H19        4.5476   14.4920   10.0175 H         1 RES1    0.0000
    100 C69        1.0277   15.8957    9.8476 C.3       1 RES1    0.0000
    101 C70       -0.3177   15.3013   10.1044 C.3       1 RES1    0.0000
    102 H20       -0.7737   15.1724    9.2699 H         1 RES1    0.0000
    103 H21       -0.8284   15.8942   10.6613 H         1 RES1    0.0000
    104 H22       -0.2159   14.4562   10.5481 H         1 RES1    0.0000
    105 C71        0.9885   17.1733    9.0698 C.3       1 RES1    0.0000
    106 H23        1.8838   17.4798    8.9112 H         1 RES1    0.0000
    107 H24        0.5077   17.8379    9.5701 H         1 RES1    0.0000
    108 H25        0.5466   17.0243    8.2315 H         1 RES1    0.0000
    109 C72        1.7781   15.9988   11.1862 C.3       1 RES1    0.0000
    110 H26        1.8452   15.1265   11.5827 H         1 RES1    0.0000
    111 H27        1.2976   16.5817   11.7771 H         1 RES1    0.0000
    112 H28        2.6570   16.3497   11.0333 H         1 RES1    0.0000
    113 C73        3.5156   15.9558    4.6419 C.3       1 RES1    0.0000
    114 C74        3.6855   16.2280    3.1672 C.3       1 RES1    0.0000
    115 H29        4.1223   15.4803    2.7527 H         1 RES1    0.0000
    116 H30        4.2163   17.0172    3.0472 H         1 RES1    0.0000
    117 H31        2.8231   16.3583    2.7640 H         1 RES1    0.0000
    118 C75        4.8185   15.5648    5.3222 C.3       1 RES1    0.0000
    119 H32        4.6378   15.2927    6.2265 H         1 RES1    0.0000
    120 H33        5.4149   16.3182    5.3297 H         1 RES1    0.0000
    121 H34        5.2241   14.8386    4.8445 H         1 RES1    0.0000
    122 C76        2.8562   17.1317    5.3448 C.3       1 RES1    0.0000
    123 H35        2.0881   17.4139    4.8426 H         1 RES1    0.0000
    124 H36        3.4818   17.8579    5.4071 H         1 RES1    0.0000
    125 H37        2.5826   16.8653    6.2246 H         1 RES1    0.0000
    126 N1         6.5255   11.7420    4.0259 N.pl3     1 RES1    0.0000
@<TRIPOS>BOND
     1    1    2 1
     2    3    4 1
     3    4   74 1
     4    5    6 1
     5    6   87 1
     6    7    8 1
     7    8  100 1
     8    9   10 1
     9   10  113 1
    10   11   73 1
    11   12  126 2
    12   13  126 2
    13   14   15 1
    14   15   16 1
    15   16   17 1
    16   17   18 1
    17   18   14 1
    18   19   18 2
    19   20   19 1
    20   21   20 2
    21   22   14 2
    22   23   22 1
    23   24   23 2
    24   25   15 2
    25   26   25 1
    26   27   26 2
    27   28   16 2
    28   29   28 1
    29   30   29 2
    30   31   17 2
    31   32   31 1
    32   33   19 1
    33   34   33 1
    34   35   20 1
    35   36   35 2
    36   37   36 1
    37   38   21 1
    38   39   23 1
    39   40   39 2
    40   41   40 1
    41   42   24 1
    42   43   26 1
    43   44   43 2
    44   45   44 1
    45   46   27 1
    46   47   29 1
    47   48   47 2
    48   49   48 1
    49   50   30 1
    50   51   32 1
    51   52   51 2
    52   53   34 2
    53   54   53 1
    54   55   36 1
    55   56    7 1
    56   57   37 1
    57   58   40 1
    58   59    9 1
    59   60   41 1
    60   61   44 1
    61   62   45 1
    62   63   48 1
    63   64    3 1
    64   65   49 1
    65   66   52 1
    66   67    5 1
    67   68   67 1
    68   69   56 1
    69   70   59 1
    70   71    1 1
    71   72   64 1
    72   73   61 1
    73   74   75 1
    74   75   76 1
    75   77   75 1
    76   78   75 1
    77   79   74 1
    78   80   79 1
    79   81   79 1
    80   82   79 1
    81   83   74 1
    82   84   83 1
    83   85   83 1
    84   86   83 1
    85   87   88 1
    86   88   89 1
    87   90   88 1
    88   91   88 1
    89   92   87 1
    90   93   92 1
    91   94   92 1
    92   95   92 1
    93   96   87 1
    94   97   96 1
    95   98   96 1
    96   99   96 1
    97  100  101 1
    98  101  102 1
    99  103  101 1
   100  104  101 1
   101  105  100 1
   102  106  105 1
   103  107  105 1
   104  108  105 1
   105  109  100 1
   106  110  109 1
   107  111  109 1
   108  112  109 1
   109  113  114 1
   110  114  115 1
   111  116  114 1
   112  117  114 1
   113  118  113 1
   114  119  118 1
   115  120  118 1
   116  121  118 1
   117  122  113 1
   118  123  122 1
   119  124  122 1
   120  125  122 1
   121  126   11 1
   122   21   22 1
   123   24   25 1
   124   27   28 1
   125   30   31 1
   126   32   33 2
   127   34   35 1
   128   37   38 2
   129   38   39 1
   130   41   42 2
   131   42   43 1
   132   45   46 2
   133   46   47 1
   134   49   50 2
   135   50   51 1
   136   52   53 1
   137   54   55 2
   138   54   67 1
   139   55   56 1
   140   56   57 1
   141   57   58 2
   142   58   59 1
   143   59   60 1
   144   60   61 2
   145   62   63 2
   146   62   73 1
   147   63   64 1
   148   64   65 1
   149   65   66 2
   150   66   67 1
   151   68   69 1
   152   68   72 2
   153   69   70 2
   154   70   71 1
   155   71   72 1
   156   71   73 1
@<TRIPOS>SUBSTRUCTURE
     1 RES1 1

@<TRIPOS>CRYSIN
  18.9280   14.3230   19.3600  90.0000 102.7900  90.0000  14 1

