# MOL2 file generated by ConQuest
# Please check atom types

@<TRIPOS>MOLECULE
DIKSOG
    39    41     1
SMALL
NO_CHARGES
****
Generated from CSD

@<TRIPOS>ATOM
      1 N1        12.0823    4.0728   10.7694 N.2       1 RES1    0.0000
      2 N2        12.3589    4.2978   12.0846 N.3       1 RES1    0.0000
      3 C1        13.1327    3.3350   12.6447 C.2       1 RES1    0.0000
      4 C2        13.5457    3.3572   14.0540 C.ar      1 RES1    0.0000
      5 C3        14.3229    2.3180   14.5636 C.ar      1 RES1    0.0000
      6 C4        14.6994    2.2974   15.8991 C.ar      1 RES1    0.0000
      7 C5        14.2980    3.3182   16.7483 C.ar      1 RES1    0.0000
      8 C6        13.5404    4.3639   16.2468 C.ar      1 RES1    0.0000
      9 C7        13.1704    4.3948   14.9155 C.ar      1 RES1    0.0000
     10 C8        13.4009    2.4313   11.6383 C.2       1 RES1    0.0000
     11 C9        12.7255    2.9344   10.5099 C.2       1 RES1    0.0000
     12 C10       12.1078    2.5864    8.1050 C.ar      1 RES1    0.0000
     13 C11       12.2759    1.7954    6.9315 C.ar      1 RES1    0.0000
     14 N3        12.7474    2.2893    9.2729 N.pl3     1 RES1    0.0000
     15 N4        13.1511    0.6429    6.8962 N.pl3     1 RES1    0.0000
     16 O1        13.7336    0.2835    7.9449 O.2       1 RES1    0.0000
     17 O2        13.3017    0.0369    5.8408 O.2       1 RES1    0.0000
     18 C12       11.6319    2.1033    5.7370 C.ar      1 RES1    0.0000
     19 C13       10.8124    3.2076    5.6505 C.ar      1 RES1    0.0000
     20 C14       10.1729    3.6023    4.3816 C.2       1 RES1    0.0000
     21 O3         9.4609    4.5829    4.2522 O.2       1 RES1    0.0000
     22 O4        10.4505    2.7799    3.3689 O.3       1 RES1    0.0000
     23 C15        9.9153    3.1707    2.0805 C.3       1 RES1    0.0000
     24 C16       10.6157    3.9904    6.7994 C.ar      1 RES1    0.0000
     25 C17       11.2298    3.6955    7.9873 C.ar      1 RES1    0.0000
     26 H1        11.9667    4.9656   12.4865 H         1 RES1    0.0000
     27 H2        14.5985    1.6138   13.9883 H         1 RES1    0.0000
     28 H3        15.2306    1.5846   16.2321 H         1 RES1    0.0000
     29 H4        14.5403    3.3003   17.6664 H         1 RES1    0.0000
     30 H5        13.2712    5.0681   16.8250 H         1 RES1    0.0000
     31 H6        12.6597    5.1234   14.5830 H         1 RES1    0.0000
     32 H7        13.9249    1.6415   11.6948 H         1 RES1    0.0000
     33 H8        13.1817    1.5358    9.2539 H         1 RES1    0.0000
     34 H9        11.7571    1.5482    4.9758 H         1 RES1    0.0000
     35 H10        8.9411    3.2624    2.1462 H         1 RES1    0.0000
     36 H11       10.1332    2.4861    1.4148 H         1 RES1    0.0000
     37 H12       10.3077    4.0273    1.8107 H         1 RES1    0.0000
     38 H13       10.0416    4.7455    6.7509 H         1 RES1    0.0000
     39 H14       11.0657    4.2430    8.7462 H         1 RES1    0.0000
@<TRIPOS>BOND
     1    1    2 1
     2    2    3 1
     3    3    4 1
     4    4    5 ar
     5    5    6 ar
     6    6    7 ar
     7    7    8 ar
     8    8    9 ar
     9    9    4 ar
    10   10    3 2
    11   11    1 2
    12   12   13 ar
    13   13   15 1
    14   14   11 1
    15   15   16 2
    16   17   15 2
    17   18   13 ar
    18   19   18 ar
    19   20   19 1
    20   21   20 2
    21   22   20 1
    22   23   22 1
    23   24   19 ar
    24   25   12 ar
    25   26    2 1
    26   27    5 1
    27   28    6 1
    28   29    7 1
    29   30    8 1
    30   31    9 1
    31   32   10 1
    32   33   14 1
    33   34   18 1
    34   35   23 1
    35   36   23 1
    36   37   23 1
    37   38   24 1
    38   39   25 1
    39   10   11 1
    40   12   14 1
    41   24   25 ar
@<TRIPOS>SUBSTRUCTURE
     1 RES1 1

@<TRIPOS>CRYSIN
  31.0506    5.4210   20.7251  90.0000 121.0710  90.0000  15 1

