# MOL2 file generated by ConQuest
# Please check atom types

@<TRIPOS>MOLECULE
DIKSIA
    39    41     1
SMALL
NO_CHARGES
****
Generated from CSD

@<TRIPOS>ATOM
      1 N1         7.9063    4.5497    3.9642 N.pl3     1 RES1    0.0000
      2 C1         7.9783    4.2737    5.3501 C.ar      1 RES1    0.0000
      3 C2         6.9203    3.6661    6.0356 C.ar      1 RES1    0.0000
      4 N2         5.7176    3.1713    5.3585 N.pl3     1 RES1    0.0000
      5 O1         5.8212    2.7396    4.2129 O.2       1 RES1    0.0000
      6 O2         4.6637    3.1901    5.9902 O.2       1 RES1    0.0000
      7 C3         6.9731    3.4615    7.4110 C.ar      1 RES1    0.0000
      8 C4         8.2384    3.5781    9.5692 C.2       1 RES1    0.0000
      9 O3         9.2403    3.8278   10.2042 O.2       1 RES1    0.0000
     10 O4         7.1340    3.0622   10.0911 O.3       1 RES1    0.0000
     11 C5         7.1734    2.8148   11.5146 C.3       1 RES1    0.0000
     12 C6         8.1137    3.8165    8.1030 C.ar      1 RES1    0.0000
     13 C7         9.1782    4.4008    7.4253 C.ar      1 RES1    0.0000
     14 C8         9.1107    4.6309    6.0634 C.ar      1 RES1    0.0000
     15 N3         8.7955    3.9601    3.0889 N.2       1 RES1    0.0000
     16 C9         8.2989    4.2670    1.8782 C.2       1 RES1    0.0000
     17 C10        8.9737    3.8097    0.6586 C.ar      1 RES1    0.0000
     18 C11       10.2822    3.3232    0.6758 C.ar      1 RES1    0.0000
     19 C12       10.8702    2.8502   -0.4813 C.ar      1 RES1    0.0000
     20 C13       10.1747    2.8622   -1.6838 C.ar      1 RES1    0.0000
     21 C14        8.8893    3.3570   -1.7249 C.ar      1 RES1    0.0000
     22 C15        8.2905    3.8308   -0.5626 C.ar      1 RES1    0.0000
     23 C16        7.1297    5.0408    1.9749 C.2       1 RES1    0.0000
     24 C17        6.9119    5.2273    3.3098 C.2       1 RES1    0.0000
     25 N4         5.9436    5.9094    4.0350 N.3       1 RES1    0.0000
     26 H1         6.2317    3.0818    7.8694 H         1 RES1    0.0000
     27 H2         7.9486    2.2531   11.7265 H         1 RES1    0.0000
     28 H3         6.3533    2.3553   11.7889 H         1 RES1    0.0000
     29 H4         7.2473    3.6668   11.9929 H         1 RES1    0.0000
     30 H5         9.9614    4.6452    7.9048 H         1 RES1    0.0000
     31 H6         9.8443    5.0355    5.6155 H         1 RES1    0.0000
     32 H7        10.7719    3.3164    1.4903 H         1 RES1    0.0000
     33 H8        11.7583    2.5140   -0.4552 H         1 RES1    0.0000
     34 H9        10.5835    2.5305   -2.4748 H         1 RES1    0.0000
     35 H10        8.4135    3.3751   -2.5473 H         1 RES1    0.0000
     36 H11        7.4042    4.1730   -0.5985 H         1 RES1    0.0000
     37 H12        6.5990    5.3679    1.2576 H         1 RES1    0.0000
     38 H13        6.3393    6.4523    4.5871 H         1 RES1    0.0000
     39 H14        5.4254    6.3455    3.4880 H         1 RES1    0.0000
@<TRIPOS>BOND
     1    1    2 1
     2    2    3 ar
     3    3    4 1
     4    4    5 2
     5    6    4 2
     6    7    3 ar
     7    8    9 2
     8   10    8 1
     9   11   10 1
    10   12    7 ar
    11   13   12 ar
    12   14    2 ar
    13   15    1 1
    14   16   15 2
    15   17   16 1
    16   18   17 ar
    17   19   18 ar
    18   20   19 ar
    19   21   20 ar
    20   22   17 ar
    21   23   16 1
    22   24    1 1
    23   25   24 1
    24   26    7 1
    25   27   11 1
    26   28   11 1
    27   29   11 1
    28   30   13 1
    29   31   14 1
    30   32   18 1
    31   33   19 1
    32   34   20 1
    33   35   21 1
    34   36   22 1
    35   37   23 1
    36   38   25 1
    37   39   25 1
    38    8   12 1
    39   13   14 ar
    40   21   22 ar
    41   23   24 2
@<TRIPOS>SUBSTRUCTURE
     1 RES1 1

@<TRIPOS>CRYSIN
  12.3516    7.5202   17.1564  90.0000 100.6990  90.0000 231 1

