# MOL2 file generated by ConQuest
# Please check atom types

@<TRIPOS>MOLECULE
DIKWID
    38    41     1
SMALL
NO_CHARGES
****
Generated from CSD

@<TRIPOS>ATOM
      1 C1         0.5783    3.2216    4.3221 C.3       1 RES1    0.0000
      2 C2         0.2876    1.7898    4.7307 C.3       1 RES1    0.0000
      3 C3         0.7934    0.8064    3.6783 C.3       1 RES1    0.0000
      4 C4         2.2790    0.9911    3.4356 C.3       1 RES1    0.0000
      5 C5         2.5730    2.4172    2.9766 C.3       1 RES1    0.0000
      6 C6         2.0650    3.4545    3.9818 C.3       1 RES1    0.0000
      7 C7         1.5529    5.8332    4.1457 C.3       1 RES1    0.0000
      8 C8         1.6149    7.1360    3.3590 C.3       1 RES1    0.0000
      9 C9         0.8520    8.2561    4.0700 C.3       1 RES1    0.0000
     10 C10       -0.5981    7.8462    4.2664 C.3       1 RES1    0.0000
     11 C11       -0.6950    6.5587    5.0825 C.3       1 RES1    0.0000
     12 C12        0.0884    5.4213    4.4460 C.3       1 RES1    0.0000
     13 N1         2.2849    4.7939    3.4136 N.3       1 RES1    0.0000
     14 N2         0.2015    4.2243    5.3157 N.3       1 RES1    0.0000
     15 N3        -0.5880    4.9440    3.2203 N.3       1 RES1    0.0000
     16 O1        -0.2023    3.5315    3.1247 O.3       1 RES1    0.0000
     17 O2        -1.1393    3.8894    5.7758 O.3       1 RES1    0.0000
     18 H1         0.8371    1.6551    5.6718 H         1 RES1    0.0000
     19 H2        -0.6872    1.7128    4.8105 H         1 RES1    0.0000
     20 H3         0.2004    0.9238    2.7624 H         1 RES1    0.0000
     21 H4         0.5991   -0.0962    3.9072 H         1 RES1    0.0000
     22 H5         2.8504    0.7698    4.3799 H         1 RES1    0.0000
     23 H6         2.6097    0.4234    2.8149 H         1 RES1    0.0000
     24 H7         3.5656    2.5403    2.8884 H         1 RES1    0.0000
     25 H8         2.0315    2.6558    2.0061 H         1 RES1    0.0000
     26 H9         2.5893    3.3679    4.8630 H         1 RES1    0.0000
     27 H10        2.0676    5.9082    5.0731 H         1 RES1    0.0000
     28 H11        1.2268    7.0437    2.3317 H         1 RES1    0.0000
     29 H12        2.6000    7.3708    3.2560 H         1 RES1    0.0000
     30 H13        1.3779    8.3908    5.1046 H         1 RES1    0.0000
     31 H14        0.8427    9.0644    3.4766 H         1 RES1    0.0000
     32 H15       -1.0970    7.7172    3.3085 H         1 RES1    0.0000
     33 H16       -1.2363    8.5063    4.5899 H         1 RES1    0.0000
     34 H17       -0.2441    6.6780    6.0499 H         1 RES1    0.0000
     35 H18       -1.7289    6.2354    5.1571 H         1 RES1    0.0000
     36 H19        1.9527    4.8113    2.4158 H         1 RES1    0.0000
     37 H20       -1.5179    4.9267    3.4766 H         1 RES1    0.0000
     38 H21       -1.0257    4.1377    6.7326 H         1 RES1    0.0000
@<TRIPOS>BOND
     1    1    2 1
     2    2    3 1
     3    3    4 1
     4    4    5 1
     5    5    6 1
     6    6    1 1
     7    7    8 1
     8    8    9 1
     9    9   10 1
    10   10   11 1
    11   11   12 1
    12   12    7 1
    13   13    6 1
    14   14    1 1
    15   15   12 1
    16   16    1 1
    17   17   14 1
    18   18    2 1
    19   19    2 1
    20   20    3 1
    21   21    3 1
    22   22    4 1
    23   23    4 1
    24   24    5 1
    25   25    5 1
    26   26    6 1
    27   27    7 1
    28   28    8 1
    29   29    8 1
    30   30    9 1
    31   31    9 1
    32   32   10 1
    33   33   10 1
    34   34   11 1
    35   35   11 1
    36   36   13 1
    37   37   15 1
    38   38   17 1
    39    7   13 1
    40   12   14 1
    41   15   16 1
@<TRIPOS>SUBSTRUCTURE
     1 RES1 1

@<TRIPOS>CRYSIN
   6.0220   19.2450   10.5600  90.0000  95.9400  90.0000  14 1

