# MOL2 file generated by ConQuest
# Please check atom types

@<TRIPOS>MOLECULE
DIKXEB
    30    28     2
SMALL
NO_CHARGES
****
Generated from CSD

@<TRIPOS>ATOM
      1 O1         3.8090    9.5755    7.4845 O.3       1 RES1    0.0000
      2 O2         1.5164    9.8239   10.9379 O.2       1 RES1    0.0000
      3 O3         4.4777    7.3791    5.8076 O.3       2 RES2    0.0000
      4 O4         0.5361    9.3812    6.6616 O.2       1 RES1    0.0000
      5 O5         1.4834   11.2459    7.2664 O.2       1 RES1    0.0000
      6 O6        -0.0085   10.7155    9.6637 O.2       1 RES1    0.0000
      7 O7         2.6530    4.9232    4.0379 O.2       2 RES2    0.0000
      8 O8         2.4982    5.2110    6.1894 O.2       2 RES2    0.0000
      9 O9         0.1853    7.7200    9.0988 O.2       1 RES1    0.0000
     10 N1         0.9936   10.0692    9.8671 N.pl3     1 RES1    0.0000
     11 O10        5.2284    5.9817    3.3270 O.2       2 RES2    0.0000
     12 O11        5.9251    3.6395    6.6529 O.2       2 RES2    0.0000
     13 O12        2.0644    7.2298    8.1358 O.2       1 RES1    0.0000
     14 O13        4.1174    2.7695    5.8159 O.2       2 RES2    0.0000
     15 O14        5.7057    3.8864    3.5872 O.2       2 RES2    0.0000
     16 N2         3.1064    5.0591    5.1508 N.pl3     2 RES2    0.0000
     17 N3         5.2381    4.9407    3.9461 N.pl3     2 RES2    0.0000
     18 N4         4.9099    3.6769    5.9944 N.pl3     2 RES2    0.0000
     19 N5         1.1756   10.0808    7.4148 N.pl3     1 RES1    0.0000
     20 C1         5.1461    6.1923    6.1420 C.3       2 RES2    0.0000
     21 C2         1.7102    9.4488    8.6842 C.3       1 RES1    0.0000
     22 C3         3.2326    9.6285    8.7647 C.3       1 RES1    0.0000
     23 C4         4.6142    5.0065    5.3250 C.3       2 RES2    0.0000
     24 N6         1.2747    7.9933    8.6502 N.pl3     1 RES1    0.0000
     25 H1         3.5420    8.9161    9.3647 H         1 RES1    0.0000
     26 H2         6.0920    6.2302    6.0101 H         2 RES2    0.0000
     27 H3         3.3833   10.4916    9.1105 H         1 RES1    0.0000
     28 H4         4.9789    5.9911    7.0587 H         2 RES2    0.0000
     29 H5         4.8331    7.7266    5.1749 H         2 RES2    0.0000
     30 H6         3.8497    8.8051    7.2278 H         1 RES1    0.0000
@<TRIPOS>BOND
     1    1   22 1
     2    2   10 2
     3    3   20 1
     4    4   19 2
     5    5   19 2
     6    6   10 2
     7    7   16 2
     8    8   16 2
     9    9   24 2
    10   10   21 1
    11   11   17 2
    12   12   18 2
    13   13   24 2
    14   14   18 2
    15   15   17 2
    16   16   23 1
    17   17   23 1
    18   18   23 1
    19   19   21 1
    20   20   23 1
    21   21   22 1
    22   22   25 1
    23   24   21 1
    24   26   20 1
    25   27   22 1
    26   28   20 1
    27   29    3 1
    28   30    1 1
@<TRIPOS>SUBSTRUCTURE
     1 RES1 1
     2 RES2 3

@<TRIPOS>CRYSIN
   6.1242   18.8223   11.7466  90.0000 104.9620  90.0000  14 1

