# MOL2 file generated by ConQuest
# Please check atom types

@<TRIPOS>MOLECULE
DILFUZ
    40    39     1
SMALL
NO_CHARGES
****
Generated from CSD

@<TRIPOS>ATOM
      1 C1        -0.5842    9.5872    1.4229 C.3       1 RES1    0.0000
      2 C2        -0.4415    8.2232    2.0785 C.3       1 RES1    0.0000
      3 C3        -0.1718    6.0602    0.7355 C.3       1 RES1    0.0000
      4 N1         0.7589   10.2649    1.2302 N.pl3     1 RES1    0.0000
      5 N2        -1.4345   10.5149    2.3076 N.pl3     1 RES1    0.0000
      6 N3        -1.2799    9.5487    0.0634 N.pl3     1 RES1    0.0000
      7 N4         0.3777    7.2931    1.3230 N.pl3     1 RES1    0.0000
      8 N5         1.7039    7.2414    1.6919 N.pl3     1 RES1    0.0000
      9 O1         1.3566    9.9729    0.2209 O.2       1 RES1    0.0000
     10 O2         1.1449   10.9631    2.1372 O.2       1 RES1    0.0000
     11 O3        -1.7963   10.0474    3.3545 O.2       1 RES1    0.0000
     12 O4        -1.6540   11.6180    1.8987 O.2       1 RES1    0.0000
     13 O5        -1.8497    8.5237   -0.2127 O.2       1 RES1    0.0000
     14 O6        -1.2361   10.5437   -0.6028 O.2       1 RES1    0.0000
     15 O7         2.1420    8.1571    2.3734 O.2       1 RES1    0.0000
     16 O8         2.3574    6.3053    1.2889 O.2       1 RES1    0.0000
     17 H1        -1.2984    7.8832    2.1737 H         1 RES1    0.0000
     18 H2        -0.0979    8.3398    2.9374 H         1 RES1    0.0000
     19 H3        -1.0670    6.1527    0.8460 H         1 RES1    0.0000
     20 H4         0.1341    5.3716    1.2220 H         1 RES1    0.0000
     21 C3B        0.1718    5.9568   -0.7355 C.3       1 RES1    0.0000
     22 N4B       -0.3777    4.7239   -1.3230 N.pl3     1 RES1    0.0000
     23 H3B        1.0670    5.8643   -0.8460 H         1 RES1    0.0000
     24 H4B       -0.1341    6.6454   -1.2220 H         1 RES1    0.0000
     25 C2B        0.4415    3.7938   -2.0785 C.3       1 RES1    0.0000
     26 N5B       -1.7039    4.7756   -1.6919 N.pl3     1 RES1    0.0000
     27 C1B        0.5842    2.4298   -1.4229 C.3       1 RES1    0.0000
     28 H1B        1.2984    4.1338   -2.1737 H         1 RES1    0.0000
     29 H2B        0.0979    3.6772   -2.9374 H         1 RES1    0.0000
     30 O7B       -2.1420    3.8599   -2.3734 O.2       1 RES1    0.0000
     31 O8B       -2.3574    5.7117   -1.2889 O.2       1 RES1    0.0000
     32 N1B       -0.7589    1.7521   -1.2302 N.pl3     1 RES1    0.0000
     33 N2B        1.4345    1.5021   -2.3076 N.pl3     1 RES1    0.0000
     34 N3B        1.2799    2.4683   -0.0634 N.pl3     1 RES1    0.0000
     35 O1B       -1.3566    2.0441   -0.2209 O.2       1 RES1    0.0000
     36 O2B       -1.1449    1.0539   -2.1372 O.2       1 RES1    0.0000
     37 O3B        1.7963    1.9696   -3.3545 O.2       1 RES1    0.0000
     38 O4B        1.6540    0.3990   -1.8987 O.2       1 RES1    0.0000
     39 O5B        1.8497    3.4933    0.2127 O.2       1 RES1    0.0000
     40 O6B        1.2361    1.4733    0.6028 O.2       1 RES1    0.0000
@<TRIPOS>BOND
     1    1    2 1
     2    2    7 1
     3    3    7 1
     4    4    1 1
     5    5    1 1
     6    6    1 1
     7    7    8 1
     8    8   15 2
     9    9    4 2
    10   10    4 2
    11   11    5 2
    12   12    5 2
    13   13    6 2
    14   14    6 2
    15   16    8 2
    16   17    2 1
    17   18    2 1
    18   19    3 1
    19   20    3 1
    20   21    3 1
    21   22   21 1
    22   23   21 1
    23   24   21 1
    24   25   22 1
    25   26   22 1
    26   27   25 1
    27   28   25 1
    28   29   25 1
    29   30   26 2
    30   31   26 2
    31   32   27 1
    32   33   27 1
    33   34   27 1
    34   35   32 2
    35   36   32 2
    36   37   33 2
    37   38   33 2
    38   39   34 2
    39   40   34 2
@<TRIPOS>SUBSTRUCTURE
     1 RES1 1

@<TRIPOS>CRYSIN
   5.9716   12.0170   11.8407  90.0000  97.1140  90.0000 231 1

