# MOL2 file generated by ConQuest
# Please check atom types

@<TRIPOS>MOLECULE
DIOXAZ10
    28    30     2
SMALL
NO_CHARGES
****
Generated from CSD

@<TRIPOS>ATOM
      1 C1         0.0980    0.7319    0.0443 C.2       1 RES1    0.0000
      2 C2         1.1988    1.4736    0.2809 C.2       1 RES1    0.0000
      3 C3         0.6676    2.7821    0.1961 C.2       1 RES1    0.0000
      4 C4         5.3259    3.7779   -0.0049 C.2       2 RES2    0.0000
      5 C5         6.4075    3.0863    0.1886 C.2       2 RES2    0.0000
      6 C6         5.9334    1.7361    0.0999 C.2       2 RES2    0.0000
      7 H1         2.2267    1.1541    0.4514 H         1 RES1    0.0000
      8 H2         1.2698    3.6778    0.3462 H         1 RES1    0.0000
      9 H3         7.4177    3.4261    0.3285 H         2 RES2    0.0000
     10 H4         6.5771    0.8872    0.2017 H         2 RES2    0.0000
     11 N1        -0.5939    2.8174   -0.0289 N.2       1 RES1    0.0000
     12 N2         4.6428    1.6679   -0.0486 N.2       2 RES2    0.0000
     13 O1        -0.9901    1.4588   -0.1350 O.3       1 RES1    0.0000
     14 O2         4.2019    3.0098   -0.1432 O.3       2 RES2    0.0000
     15 C1A       -0.0980   -0.7319   -0.0443 C.2       1 RES1    0.0000
     16 C2A       -1.1988   -1.4736   -0.2809 C.2       1 RES1    0.0000
     17 O1A        0.9901   -1.4588    0.1350 O.3       1 RES1    0.0000
     18 C3A       -0.6676   -2.7821   -0.1961 C.2       1 RES1    0.0000
     19 H1A       -2.2267   -1.1541   -0.4514 H         1 RES1    0.0000
     20 N1A        0.5939   -2.8174    0.0289 N.2       1 RES1    0.0000
     21 H2A       -1.2698   -3.6778   -0.3462 H         1 RES1    0.0000
     22 C4A        5.0105    5.2311    0.0049 C.2       2 RES2    0.0000
     23 C5A        3.9288    5.9227   -0.1886 C.2       2 RES2    0.0000
     24 O2A        6.1345    5.9993    0.1432 O.3       2 RES2    0.0000
     25 C6A        4.4029    7.2729   -0.0999 C.2       2 RES2    0.0000
     26 H3A        2.9186    5.5829   -0.3285 H         2 RES2    0.0000
     27 N2A        5.6935    7.3411    0.0486 N.2       2 RES2    0.0000
     28 H4A        3.7593    8.1218   -0.2017 H         2 RES2    0.0000
@<TRIPOS>BOND
     1    1    2 2
     2    2    3 1
     3    3    8 1
     4    4    5 2
     5    5    6 1
     6    6   10 1
     7    7    2 1
     8    9    5 1
     9   11    3 2
    10   12    6 2
    11   13    1 1
    12   14    4 1
    13   15    1 1
    14   16   15 2
    15   17   15 1
    16   18   16 1
    17   19   16 1
    18   20   17 1
    19   21   18 1
    20   22    4 1
    21   23   22 2
    22   24   22 1
    23   25   23 1
    24   26   23 1
    25   27   24 1
    26   28   25 1
    27   11   13 1
    28   12   14 1
    29   18   20 2
    30   25   27 2
@<TRIPOS>SUBSTRUCTURE
     1 RES1 1
     2 RES2 4

@<TRIPOS>CRYSIN
  10.4700    9.0100    3.7800  75.9700 115.7700  90.8500   2 1

