# MOL2 file generated by ConQuest
# Please check atom types

@<TRIPOS>MOLECULE
DIPGEQ
    42    43     1
SMALL
NO_CHARGES
****
Generated from CSD

@<TRIPOS>ATOM
      1 C1         7.5967    3.9926    1.0987 C.2       1 RES1    0.0000
      2 N1         7.3588    3.4163    2.3332 N.pl3     1 RES1    0.0000
      3 H1         7.6493    3.7323    3.1076 H         1 RES1    0.0000
      4 C2         8.3744    5.1645    0.8516 C.2       1 RES1    0.0000
      5 H2         8.4157    5.5309   -0.0344 H         1 RES1    0.0000
      6 C3         9.7470    7.1724    1.2329 C.2       1 RES1    0.0000
      7 C4         9.1261    5.9154    1.6861 C.2       1 RES1    0.0000
      8 O1        10.4281    7.8819    1.9351 O.2       1 RES1    0.0000
      9 O2         9.4925    7.4567   -0.0532 O.3       1 RES1    0.0000
     10 C5         9.4803    5.5070    3.0734 C.ar      1 RES1    0.0000
     11 C6         6.8409    3.2782    0.1713 C.2       1 RES1    0.0000
     12 C7         9.1071    6.1799    4.2418 C.ar      1 RES1    0.0000
     13 N2         8.2123    7.3475    4.1869 N.pl3     1 RES1    0.0000
     14 C8         6.7896    3.5114   -1.3077 C.3       1 RES1    0.0000
     15 H3         5.9879    3.1226   -1.6654 H         1 RES1    0.0000
     16 H4         7.5545    3.1064   -1.7217 H         1 RES1    0.0000
     17 H5         6.7935    4.4559   -1.4829 H         1 RES1    0.0000
     18 C9        10.2997    4.4003    3.2348 C.ar      1 RES1    0.0000
     19 H6        10.5893    3.9043    2.4663 H         1 RES1    0.0000
     20 C10        6.1507    2.2916    0.8854 C.2       1 RES1    0.0000
     21 H7         5.5605    1.6917    0.4244 H         1 RES1    0.0000
     22 C11        9.5344    5.7812    5.4957 C.ar      1 RES1    0.0000
     23 H8         9.2548    6.2766    6.2694 H         1 RES1    0.0000
     24 C12        6.4753    2.3858    2.2097 C.2       1 RES1    0.0000
     25 O3         7.5968    7.5884    3.1921 O.2       1 RES1    0.0000
     26 C13       10.1884    8.5952   -0.6257 C.3       1 RES1    0.0000
     27 H9        10.2543    9.2889    0.0334 H         1 RES1    0.0000
     28 H10       11.0685    8.3227   -0.8947 H         1 RES1    0.0000
     29 C14       10.3564    4.6834    5.6229 C.ar      1 RES1    0.0000
     30 H11       10.6628    4.4225    6.4936 H         1 RES1    0.0000
     31 C15       10.7311    3.9864    4.4935 C.ar      1 RES1    0.0000
     32 H12       11.2826    3.2053    4.5801 H         1 RES1    0.0000
     33 C16        6.0648    1.5554    3.3829 C.3       1 RES1    0.0000
     34 H13        5.5724    0.7899    3.0774 H         1 RES1    0.0000
     35 H14        5.5125    2.0793    3.9679 H         1 RES1    0.0000
     36 H15        6.8476    1.2646    3.8574 H         1 RES1    0.0000
     37 C17        9.4158    9.0429   -1.8009 C.2       1 RES1    0.0000
     38 H16        8.5163    9.3566   -1.6821 H         1 RES1    0.0000
     39 O4         8.1037    8.0244    5.1766 O.2       1 RES1    0.0000
     40 C18        9.7768    9.0884   -2.9939 C.2       1 RES1    0.0000
     41 H17        9.1802    9.4090   -3.6749 H         1 RES1    0.0000
     42 H18       10.6608    8.7985   -3.2286 H         1 RES1    0.0000
@<TRIPOS>BOND
     1    1    2 1
     2    2    3 1
     3    4    1 1
     4    5    4 1
     5    6    7 1
     6    7    4 2
     7    8    6 2
     8    9    6 1
     9   10    7 1
    10   11    1 2
    11   12   10 ar
    12   13   12 1
    13   14   11 1
    14   15   14 1
    15   16   14 1
    16   17   14 1
    17   18   10 ar
    18   19   18 1
    19   20   11 1
    20   21   20 1
    21   22   12 ar
    22   23   22 1
    23   24    2 1
    24   25   13 2
    25   26    9 1
    26   27   26 1
    27   28   26 1
    28   29   22 ar
    29   30   29 1
    30   31   18 ar
    31   32   31 1
    32   33   24 1
    33   34   33 1
    34   35   33 1
    35   36   33 1
    36   37   26 1
    37   38   37 1
    38   39   13 2
    39   40   37 2
    40   41   40 1
    41   42   40 1
    42   20   24 2
    43   29   31 ar
@<TRIPOS>SUBSTRUCTURE
     1 RES1 1

@<TRIPOS>CRYSIN
   8.4326   10.2147   11.0598  72.4850  76.6050  71.3120   2 1

