# MOL2 file generated by ConQuest
# Please check atom types

@<TRIPOS>MOLECULE
DIPGIU
    95    86     3
SMALL
NO_CHARGES
****
Generated from CSD

@<TRIPOS>ATOM
      1 O1         3.6838    1.6054    3.2304 O.2       1 RES1    0.0000
      2 O2         4.6769    2.2117    5.1259 O.3       1 RES1    0.0000
      3 O3         2.9033    0.0917    6.2795 O.2       1 RES1    0.0000
      4 O4         1.7041   -0.0158    8.0699 O.2       1 RES1    0.0000
      5 N1         1.3405    2.0349    1.9679 N.3       1 RES1    0.0000
      6 N2         2.3643    0.6145    7.2608 N.pl3     1 RES1    0.0000
      7 C1         0.5165    2.0056    0.8894 C.2       1 RES1    0.0000
      8 C2         1.0074    1.6039   -0.4609 C.3       1 RES1    0.0000
      9 C3        -0.7268    2.3995    1.3166 C.2       1 RES1    0.0000
     10 C4        -0.6675    2.6858    2.6864 C.2       1 RES1    0.0000
     11 C5        -1.7926    3.1318    3.5596 C.3       1 RES1    0.0000
     12 C6         0.6476    2.4548    3.0885 C.2       1 RES1    0.0000
     13 C7         1.1600    2.6454    4.4010 C.2       1 RES1    0.0000
     14 C8         2.3658    2.5054    5.0153 C.2       1 RES1    0.0000
     15 C9         3.5905    2.0539    4.3524 C.2       1 RES1    0.0000
     16 C10        5.9489    1.7771    4.5800 C.3       1 RES1    0.0000
     17 C11        6.7992    1.3097    5.6765 C.2       1 RES1    0.0000
     18 C12        7.9682    1.8253    5.9634 C.2       1 RES1    0.0000
     19 C13        2.4600    2.9072    6.4516 C.ar      1 RES1    0.0000
     20 C14        2.2744    4.2358    6.7982 C.ar      1 RES1    0.0000
     21 C15        2.3118    4.6629    8.1148 C.ar      1 RES1    0.0000
     22 C16        2.5351    3.7771    9.1315 C.ar      1 RES1    0.0000
     23 C17        2.7129    2.4572    8.8364 C.ar      1 RES1    0.0000
     24 C18        2.6770    2.0380    7.5145 C.ar      1 RES1    0.0000
     25 H1         2.2394    1.8190    2.0112 H         1 RES1    0.0000
     26 H2         1.4964    2.3299   -0.8575 H         1 RES1    0.0000
     27 H3         1.5745    0.8146   -0.4159 H         1 RES1    0.0000
     28 H4         0.2635    1.4077   -1.0167 H         1 RES1    0.0000
     29 H5        -1.4956    2.4833    0.7720 H         1 RES1    0.0000
     30 H6        -2.5528    3.3722    3.0365 H         1 RES1    0.0000
     31 H7        -2.0463    2.4683    4.1730 H         1 RES1    0.0000
     32 H8        -1.5302    3.9021    4.0977 H         1 RES1    0.0000
     33 H9         0.4616    2.9752    4.9878 H         1 RES1    0.0000
     34 H10        6.3714    2.5031    4.1354 H         1 RES1    0.0000
     35 H11        5.8054    1.0685    3.9625 H         1 RES1    0.0000
     36 H12        6.4845    0.5924    6.2133 H         1 RES1    0.0000
     37 H13        8.4757    1.4797    6.6891 H         1 RES1    0.0000
     38 H14        8.3098    2.5442    5.4448 H         1 RES1    0.0000
     39 H15        2.1297    4.8290    6.1226 H         1 RES1    0.0000
     40 H16        2.1984    5.5748    8.3049 H         1 RES1    0.0000
     41 H17        2.5552    4.0626   10.0234 H         1 RES1    0.0000
     42 H18        2.8691    1.8308    9.5099 H         1 RES1    0.0000
     43 O5         3.8751    0.0348    8.0619 Du        3 SUP3    0.0000
     44 O6         2.7832   -0.1400    8.3546 Du        3 SUP3    0.0000
     45 N3         3.2109    0.6185    7.2728 Du        3 SUP3    0.0000
     46 N4         2.8167    0.5544    7.3635 Du        3 SUP3    0.0000
     47 C19        7.0681    2.1274    5.3061 Du        3 SUP3    0.0000
     48 C20        7.7961    1.3761    6.1020 Du        3 SUP3    0.0000
     49 H19        5.9280    0.8288    4.5153 Du        3 SUP3    0.0000
     50 H20        6.0361    2.1519    3.7126 Du        3 SUP3    0.0000
     51 H21        7.3600    3.0266    5.2068 Du        3 SUP3    0.0000
     52 H22        8.5490    1.7478    6.5436 Du        3 SUP3    0.0000
     53 H23        7.5573    0.4690    6.2458 Du        3 SUP3    0.0000
     54 O1B        4.7011   -1.6054   13.8861 O.2       2 RES2    0.0000
     55 O2B        3.7080   -2.2117   11.9906 O.3       2 RES2    0.0000
     56 O3B        5.4817   -0.0917   10.8370 O.2       2 RES2    0.0000
     57 O4B        6.6808    0.0158    9.0466 O.2       2 RES2    0.0000
     58 N1B        7.0444   -2.0349   15.1486 N.3       2 RES2    0.0000
     59 N2B        6.0206   -0.6145    9.8557 N.pl3     2 RES2    0.0000
     60 C1B        7.8684   -2.0056   16.2271 C.2       2 RES2    0.0000
     61 C2B        7.3775   -1.6039   17.5775 C.3       2 RES2    0.0000
     62 C3B        9.1117   -2.3995   15.7999 C.2       2 RES2    0.0000
     63 C4B        9.0525   -2.6858   14.4301 C.2       2 RES2    0.0000
     64 C5B       10.1775   -3.1318   13.5570 C.3       2 RES2    0.0000
     65 C6B        7.7373   -2.4548   14.0280 C.2       2 RES2    0.0000
     66 C7B        7.2249   -2.6454   12.7155 C.2       2 RES2    0.0000
     67 C8B        6.0192   -2.5054   12.1012 C.2       2 RES2    0.0000
     68 C9B        4.7944   -2.0539   12.7641 C.2       2 RES2    0.0000
     69 C10B       2.4361   -1.7771   12.5365 C.3       2 RES2    0.0000
     70 C11B       1.5857   -1.3097   11.4400 C.2       2 RES2    0.0000
     71 C12B       0.4167   -1.8253   11.1531 C.2       2 RES2    0.0000
     72 C13B       5.9249   -2.9072   10.6650 C.ar      2 RES2    0.0000
     73 C14B       6.1105   -4.2358   10.3184 C.ar      2 RES2    0.0000
     74 C15B       6.0731   -4.6629    9.0018 C.ar      2 RES2    0.0000
     75 C16B       5.8498   -3.7771    7.9850 C.ar      2 RES2    0.0000
     76 C17B       5.6721   -2.4572    8.2801 C.ar      2 RES2    0.0000
     77 C18B       5.7079   -2.0380    9.6020 C.ar      2 RES2    0.0000
     78 H1B        6.1455   -1.8190   15.1053 H         2 RES2    0.0000
     79 H2B        6.8885   -2.3299   17.9741 H         2 RES2    0.0000
     80 H3B        6.8104   -0.8146   17.5325 H         2 RES2    0.0000
     81 H4B        8.1214   -1.4077   18.1332 H         2 RES2    0.0000
     82 H5B        9.8805   -2.4833   16.3446 H         2 RES2    0.0000
     83 H6B       10.9377   -3.3722   14.0801 H         2 RES2    0.0000
     84 H7B       10.4312   -2.4683   12.9435 H         2 RES2    0.0000
     85 H8B        9.9151   -3.9021   13.0188 H         2 RES2    0.0000
     86 H9B        7.9233   -2.9752   12.1288 H         2 RES2    0.0000
     87 H10B       2.0135   -2.5031   12.9812 H         2 RES2    0.0000
     88 H11B       2.5795   -1.0685   13.1540 H         2 RES2    0.0000
     89 H12B       1.9004   -0.5924   10.9032 H         2 RES2    0.0000
     90 H13B      -0.0908   -1.4797   10.4274 H         2 RES2    0.0000
     91 H14B       0.0751   -2.5442   11.6718 H         2 RES2    0.0000
     92 H15B       6.2553   -4.8290   10.9939 H         2 RES2    0.0000
     93 H16B       6.1865   -5.5748    8.8116 H         2 RES2    0.0000
     94 H17B       5.8297   -4.0626    7.0931 H         2 RES2    0.0000
     95 H18B       5.5158   -1.8308    7.6066 H         2 RES2    0.0000
@<TRIPOS>BOND
     1    1   15 2
     2    2   15 1
     3    3    6 2
     4    4    6 2
     5    5    7 1
     6    6   24 1
     7    7    8 1
     8    8   26 1
     9    9    7 2
    10   10    9 1
    11   11   10 1
    12   12    5 1
    13   13   12 1
    14   14   13 2
    15   15   14 1
    16   16    2 1
    17   17   16 1
    18   18   17 2
    19   19   14 1
    20   20   19 ar
    21   21   20 ar
    22   22   21 ar
    23   23   22 ar
    24   24   19 ar
    25   25    5 1
    26   27    8 1
    27   28    8 1
    28   29    9 1
    29   30   11 1
    30   31   11 1
    31   32   11 1
    32   33   13 1
    33   34   16 1
    34   35   16 1
    35   36   17 1
    36   37   18 1
    37   38   18 1
    38   39   20 1
    39   40   21 1
    40   41   22 1
    41   42   23 1
    42   54   68 2
    43   55   68 1
    44   56   59 2
    45   57   59 2
    46   58   60 1
    47   59   77 1
    48   60   61 1
    49   61   79 1
    50   62   60 2
    51   63   62 1
    52   64   63 1
    53   65   58 1
    54   66   65 1
    55   67   66 2
    56   68   67 1
    57   69   55 1
    58   70   69 1
    59   71   70 2
    60   72   67 1
    61   73   72 ar
    62   74   73 ar
    63   75   74 ar
    64   76   75 ar
    65   77   72 ar
    66   78   58 1
    67   80   61 1
    68   81   61 1
    69   82   62 1
    70   83   64 1
    71   84   64 1
    72   85   64 1
    73   86   66 1
    74   87   69 1
    75   88   69 1
    76   89   70 1
    77   90   71 1
    78   91   71 1
    79   92   73 1
    80   93   74 1
    81   94   75 1
    82   95   76 1
    83   10   12 2
    84   23   24 ar
    85   63   65 2
    86   76   77 ar
@<TRIPOS>SUBSTRUCTURE
     1 RES1 1
     2 RES2 54
     3 SUP3 43

@<TRIPOS>CRYSIN
  12.5669    7.9086   17.6200  90.0000 103.7298  90.0000  14 1

