# MOL2 file generated by ConQuest
# Please check atom types

@<TRIPOS>MOLECULE
DIRRUR
    66    67     1
SMALL
NO_CHARGES
****
Generated from CSD

@<TRIPOS>ATOM
      1 O1        11.7946   24.3337    2.2024 O.3       1 RES1    0.0000
      2 C1        10.6146   23.9627    2.8525 C.2       1 RES1    0.0000
      3 N1        10.1003   22.8382    2.7556 N.2       1 RES1    0.0000
      4 O2        10.8610   22.0201    1.9082 O.3       1 RES1    0.0000
      5 C2        10.0438   25.1799    3.5853 C.3       1 RES1    0.0000
      6 C3        11.1022   27.6285    3.5229 C.2       1 RES1    0.0000
      7 O3        10.3159   28.1626    4.2759 O.2       1 RES1    0.0000
      8 C4        12.1733   28.3959    2.7665 C.3       1 RES1    0.0000
      9 C5        13.4269   27.6257    2.4546 C.3       1 RES1    0.0000
     10 C6        13.1314   26.3128    1.7640 C.3       1 RES1    0.0000
     11 C7        12.0058   25.6747    2.4537 C.2       1 RES1    0.0000
     12 C8        11.0968   26.2004    3.2328 C.2       1 RES1    0.0000
     13 C9         9.7621   25.0618    5.0946 C.3       1 RES1    0.0000
     14 C10        8.3570   24.5896    5.4117 C.3       1 RES1    0.0000
     15 C11        8.0156   24.7329    6.9016 C.3       1 RES1    0.0000
     16 C12        6.6361   24.1735    7.2397 C.3       1 RES1    0.0000
     17 C13        6.2243   24.4743    8.6673 C.3       1 RES1    0.0000
     18 O4        10.7074   24.1679    5.7220 O.3       1 RES1    0.0000
     19 O5        11.5887   25.8546    6.8991 O.2       1 RES1    0.0000
     20 C14       11.5289   24.6795    6.6554 C.2       1 RES1    0.0000
     21 C15       12.2982   23.6309    7.3535 C.3       1 RES1    0.0000
     22 O6         8.2055   23.1952    5.1064 O.3       1 RES1    0.0000
     23 O7         6.8570   23.6984    3.3854 O.2       1 RES1    0.0000
     24 C16        7.4299   22.8916    4.0313 C.2       1 RES1    0.0000
     25 C17        7.3659   21.4185    3.8357 C.3       1 RES1    0.0000
     26 O8         8.0764   26.1723    7.1326 O.3       1 RES1    0.0000
     27 O9         9.1391   25.8799    9.0762 O.2       1 RES1    0.0000
     28 C18        8.7646   26.5827    8.2026 C.2       1 RES1    0.0000
     29 C19        8.9577   28.0642    8.1419 C.3       1 RES1    0.0000
     30 O10        5.6812   24.7554    6.3139 O.3       1 RES1    0.0000
     31 O11        4.7509   22.7510    5.9319 O.2       1 RES1    0.0000
     32 C20        3.9966   24.6374    4.6966 C.3       1 RES1    0.0000
     33 C21        4.8181   23.9458    5.7085 C.2       1 RES1    0.0000
     34 O12        5.0123   23.7631    9.0071 O.3       1 RES1    0.0000
     35 O13        6.2328   21.8908    9.1226 O.2       1 RES1    0.0000
     36 C22        5.1947   22.4362    9.2626 C.2       1 RES1    0.0000
     37 C23        3.9049   21.7756    9.6605 C.3       1 RES1    0.0000
     38 H1         9.8582   26.0036    5.4892 H         1 RES1    0.0000
     39 H2         6.1667   25.4695    8.8536 H         1 RES1    0.0000
     40 H3         6.9775   24.2607    9.3427 H         1 RES1    0.0000
     41 H4         9.0687   25.3851    3.2716 H         1 RES1    0.0000
     42 H5         6.6575   23.1643    7.1756 H         1 RES1    0.0000
     43 H6         8.6739   24.2325    7.4708 H         1 RES1    0.0000
     44 H7        11.6826   22.9394    7.7827 H         1 RES1    0.0000
     45 H8        12.8668   23.0800    6.6697 H         1 RES1    0.0000
     46 H9        12.9308   23.9514    8.0441 H         1 RES1    0.0000
     47 H10        8.3005   21.0278    3.6764 H         1 RES1    0.0000
     48 H11        6.9882   20.9434    4.6376 H         1 RES1    0.0000
     49 H12        6.8068   21.1683    3.0271 H         1 RES1    0.0000
     50 H13        3.4568   25.3851    5.1098 H         1 RES1    0.0000
     51 H14        4.5770   25.0478    3.9715 H         1 RES1    0.0000
     52 H15        3.3181   24.0358    4.2076 H         1 RES1    0.0000
     53 H16       13.8804   25.6944    1.7033 H         1 RES1    0.0000
     54 H17       12.9948   26.4253    0.7673 H         1 RES1    0.0000
     55 H18       13.9551   27.4935    3.3559 H         1 RES1    0.0000
     56 H19       14.1258   28.1963    2.0237 H         1 RES1    0.0000
     57 H20        7.7457   25.1602    4.8400 H         1 RES1    0.0000
     58 H21        9.4207   28.3650    7.2684 H         1 RES1    0.0000
     59 H22        8.0124   28.5618    8.0863 H         1 RES1    0.0000
     60 H23        9.4207   28.4493    8.9042 H         1 RES1    0.0000
     61 H24       11.8213   28.7867    1.9141 H         1 RES1    0.0000
     62 H25       12.3974   29.2927    3.2463 H         1 RES1    0.0000
     63 H26        3.4674   22.2085   10.4641 H         1 RES1    0.0000
     64 H27        3.1687   21.8711    8.8958 H         1 RES1    0.0000
     65 H28        3.9689   20.8029    9.8233 H         1 RES1    0.0000
     66 H29       11.3945   21.9274    2.6982 H         1 RES1    0.0000
@<TRIPOS>BOND
     1    1    2 1
     2    2    3 2
     3    3    4 1
     4    4   66 1
     5    5    2 1
     6    6    7 2
     7    8    6 1
     8    9    8 1
     9   10    9 1
    10   11    1 1
    11   12    5 1
    12   13    5 1
    13   14   13 1
    14   15   14 1
    15   16   15 1
    16   17   16 1
    17   18   13 1
    18   19   20 2
    19   20   18 1
    20   21   20 1
    21   22   14 1
    22   23   24 2
    23   24   22 1
    24   25   24 1
    25   26   15 1
    26   27   28 2
    27   28   26 1
    28   29   28 1
    29   30   16 1
    30   31   33 2
    31   32   33 1
    32   33   30 1
    33   34   17 1
    34   35   36 2
    35   36   34 1
    36   37   36 1
    37   38   13 1
    38   39   17 1
    39   40   17 1
    40   41    5 1
    41   42   16 1
    42   43   15 1
    43   44   21 1
    44   45   21 1
    45   46   21 1
    46   47   25 1
    47   48   25 1
    48   49   25 1
    49   50   32 1
    50   51   32 1
    51   52   32 1
    52   53   10 1
    53   54   10 1
    54   55    9 1
    55   56    9 1
    56   57   14 1
    57   58   29 1
    58   59   29 1
    59   60   29 1
    60   61    8 1
    61   62    8 1
    62   63   37 1
    63   64   37 1
    64   65   37 1
    65    6   12 1
    66   10   11 1
    67   11   12 2
@<TRIPOS>SUBSTRUCTURE
     1 RES1 1

@<TRIPOS>CRYSIN
  10.6690   28.1120    8.4320  90.0000  90.0000  90.0000  19 1

