# MOL2 file generated by ConQuest
# Please check atom types

@<TRIPOS>MOLECULE
DISKIA
    82    85     1
SMALL
NO_CHARGES
****
Generated from CSD

@<TRIPOS>ATOM
      1 O1         2.1731   -9.6381    5.0467 O.3       1 RES1    0.0000
      2 O2         3.7715   -5.0347    7.6296 O.3       1 RES1    0.0000
      3 O3         1.0037  -11.9660    4.7966 O.2       1 RES1    0.0000
      4 O4         3.6867   -1.2307   14.9904 O.3       1 RES1    0.0000
      5 O5         6.3953    4.1459   14.7500 O.3       1 RES1    0.0000
      6 O6         5.5909    3.2768   16.6567 O.2       1 RES1    0.0000
      7 O7         5.1902   -1.0814   10.4207 O.2       1 RES1    0.0000
      8 O8         1.5427   -7.8553   10.7541 O.2       1 RES1    0.0000
      9 O9        -0.9202  -12.0094    5.7818 O.2       1 RES1    0.0000
     10 N1         4.4040   -1.4537   12.5121 N.am      1 RES1    0.0000
     11 N2         0.2279  -11.5750    5.6610 N.pl3     1 RES1    0.0000
     12 N3         2.2370   -6.4972    9.0582 N.am      1 RES1    0.0000
     13 C1         4.4217   -0.1708   14.5236 C.ar      1 RES1    0.0000
     14 C2         5.8335    1.8956   13.3111 C.ar      1 RES1    0.0000
     15 H1         6.3167    2.6036   12.9001 H         1 RES1    0.0000
     16 C3         1.9694   -8.6624    7.2533 C.ar      1 RES1    0.0000
     17 H2         2.6293   -8.0078    7.0551 H         1 RES1    0.0000
     18 C4         4.5833   -1.8015   11.2075 C.2       1 RES1    0.0000
     19 C5         0.0521  -10.5673    7.8672 C.ar      1 RES1    0.0000
     20 H3        -0.6097  -11.2183    8.0687 H         1 RES1    0.0000
     21 C6         0.4143   -9.6264    8.8195 C.ar      1 RES1    0.0000
     22 H4         0.0168   -9.6424    9.6828 H         1 RES1    0.0000
     23 C7         1.3624   -8.6592    8.5020 C.ar      1 RES1    0.0000
     24 C8         3.7531   -1.5929   16.3930 C.3       1 RES1    0.0000
     25 H5         3.5163   -0.7997   16.9544 H         1 RES1    0.0000
     26 C9         4.2127   -3.4519    9.4368 C.ar      1 RES1    0.0000
     27 H6         4.7831   -2.9175    8.8967 H         1 RES1    0.0000
     28 C10        0.6568  -10.5556    6.6240 C.ar      1 RES1    0.0000
     29 C11        3.1459   -3.8873   11.5553 C.ar      1 RES1    0.0000
     30 H7         2.9924   -3.6506   12.4615 H         1 RES1    0.0000
     31 C12        2.7877   -5.3835    9.7154 C.ar      1 RES1    0.0000
     32 C13        1.7181   -7.6450    9.5609 C.2       1 RES1    0.0000
     33 C14        2.9311   -9.7661    2.4290 C.ar      1 RES1    0.0000
     34 H8         2.4119  -10.4592    2.8188 H         1 RES1    0.0000
     35 C15        3.0550   -8.5748    4.6745 C.3       1 RES1    0.0000
     36 H9         3.8890   -8.6246    5.2062 H         1 RES1    0.0000
     37 H10        2.6248   -7.7009    4.8496 H         1 RES1    0.0000
     38 C16        4.6408   -4.3138    6.7350 C.3       1 RES1    0.0000
     39 H11        5.5673   -4.3087    7.0842 H         1 RES1    0.0000
     40 H12        4.3347   -3.3769    6.6366 H         1 RES1    0.0000
     41 C17        3.6275   -4.5834    8.9149 C.ar      1 RES1    0.0000
     42 C18        1.6308   -9.6073    6.2819 C.ar      1 RES1    0.0000
     43 C19        5.4803    1.9871   14.6439 C.ar      1 RES1    0.0000
     44 C20        3.3716   -8.7074    3.2093 C.ar      1 RES1    0.0000
     45 C21        2.5487   -5.0299   11.0281 C.ar      1 RES1    0.0000
     46 H13        1.9796   -5.5639   11.5698 H         1 RES1    0.0000
     47 C22        4.7667    0.9468   15.2533 C.ar      1 RES1    0.0000
     48 H14        4.5213    1.0115   16.1683 H         1 RES1    0.0000
     49 C23        5.8133    3.1757   15.4764 C.2       1 RES1    0.0000
     50 C24        4.5832   -5.0258    5.4079 C.3       1 RES1    0.0000
     51 H15        3.6378   -5.1624    5.1498 H         1 RES1    0.0000
     52 H16        5.0074   -5.9159    5.4956 H         1 RES1    0.0000
     53 C25        5.4848    0.7715   12.5678 C.ar      1 RES1    0.0000
     54 H17        5.7274    0.7161   11.6517 H         1 RES1    0.0000
     55 C26        3.9652   -3.0913   10.7639 C.ar      1 RES1    0.0000
     56 C27        5.2957   -4.2323    4.3160 C.3       1 RES1    0.0000
     57 H18        4.8106   -3.3974    4.1490 H         1 RES1    0.0000
     58 H19        5.3243   -4.7624    3.4921 H         1 RES1    0.0000
     59 H20        6.2095   -4.0266    4.6039 H         1 RES1    0.0000
     60 C28        4.7844   -0.2689   13.1632 C.ar      1 RES1    0.0000
     61 C29        3.9991   -8.8194    0.4988 C.ar      1 RES1    0.0000
     62 H21        4.2082   -8.8575   -0.4276 H         1 RES1    0.0000
     63 C30        3.2475   -9.8137    1.0787 C.ar      1 RES1    0.0000
     64 H22        2.9420  -10.5412    0.5496 H         1 RES1    0.0000
     65 C31        4.4481   -7.7635    1.2705 C.ar      1 RES1    0.0000
     66 H23        4.9720   -7.0764    0.8771 H         1 RES1    0.0000
     67 C32        4.1323   -7.7094    2.6168 C.ar      1 RES1    0.0000
     68 H24        4.4398   -6.9804    3.1427 H         1 RES1    0.0000
     69 C33        6.7856    5.3218   15.4950 C.3       1 RES1    0.0000
     70 H25        5.9851    5.7677   15.8444 H         1 RES1    0.0000
     71 H26        7.2711    5.9358   14.9054 H         1 RES1    0.0000
     72 H27        7.3637    5.0592   16.2411 H         1 RES1    0.0000
     73 C34        5.1297   -2.0699   16.7541 C.3       1 RES1    0.0000
     74 H28        5.3676   -2.8359   16.1920 H         1 RES1    0.0000
     75 H29        5.1458   -2.3382   17.6969 H         1 RES1    0.0000
     76 H30        5.7744   -1.3456   16.6087 H         1 RES1    0.0000
     77 C35        2.7023   -2.6615   16.5632 C.3       1 RES1    0.0000
     78 H31        1.8232   -2.2947   16.3357 H         1 RES1    0.0000
     79 H32        2.6973   -2.9690   17.4931 H         1 RES1    0.0000
     80 H33        2.9055   -3.4166   15.9718 H         1 RES1    0.0000
     81 H34        4.0419   -1.9969   13.0074 H         1 RES1    0.0000
     82 H35        2.3121   -6.4367    8.2998 H         1 RES1    0.0000
@<TRIPOS>BOND
     1    1   35 1
     2    2   38 1
     3    3   11 2
     4    4   13 1
     5    5   49 1
     6    6   49 2
     7    7   18 2
     8    8   32 2
     9    9   11 2
    10   10   18 1
    11   11   28 1
    12   12   31 1
    13   13   47 ar
    14   14   15 1
    15   16   17 1
    16   18   55 1
    17   19   20 1
    18   21   19 ar
    19   22   21 1
    20   23   16 ar
    21   24    4 1
    22   25   24 1
    23   26   27 1
    24   28   19 ar
    25   29   30 1
    26   31   41 ar
    27   32   12 1
    28   33   34 1
    29   35   36 1
    30   37   35 1
    31   38   39 1
    32   40   38 1
    33   41    2 1
    34   42    1 1
    35   43   14 ar
    36   44   33 ar
    37   45   29 ar
    38   46   45 1
    39   47   43 ar
    40   48   47 1
    41   49   43 1
    42   50   38 1
    43   51   50 1
    44   52   50 1
    45   53   14 ar
    46   54   53 1
    47   55   26 ar
    48   56   50 1
    49   57   56 1
    50   58   56 1
    51   59   56 1
    52   60   10 1
    53   61   62 1
    54   63   33 ar
    55   64   63 1
    56   65   61 ar
    57   66   65 1
    58   67   44 ar
    59   68   67 1
    60   69    5 1
    61   70   69 1
    62   71   69 1
    63   72   69 1
    64   73   24 1
    65   74   73 1
    66   75   73 1
    67   76   73 1
    68   77   24 1
    69   78   77 1
    70   79   77 1
    71   80   77 1
    72   81   10 1
    73   82   12 1
    74   13   60 ar
    75   16   42 ar
    76   21   23 ar
    77   23   32 1
    78   26   41 ar
    79   28   42 ar
    80   29   55 ar
    81   31   45 ar
    82   35   44 1
    83   53   60 ar
    84   61   63 ar
    85   65   67 ar
@<TRIPOS>SUBSTRUCTURE
     1 RES1 1

@<TRIPOS>CRYSIN
   8.0680   10.8740   19.1980 105.2700  98.0820  98.0750   2 1

