# MOL2 file generated by ConQuest
# Please check atom types

@<TRIPOS>MOLECULE
DISLIA
    29    32     1
SMALL
NO_CHARGES
****
Generated from CSD

@<TRIPOS>ATOM
      1 O1         7.7693    0.2148    1.4132 O.2       1 RES1    0.0000
      2 O2         7.9785    3.4365   -2.8235 O.2       1 RES1    0.0000
      3 O3         9.8276    4.4597   -3.1691 O.2       1 RES1    0.0000
      4 O4        13.4501    4.0646   -0.0535 O.2       1 RES1    0.0000
      5 O5        12.8277    3.5114    2.2412 O.2       1 RES1    0.0000
      6 O6        14.3589    1.5217    3.3862 O.2       1 RES1    0.0000
      7 O7        13.7613    1.3495    1.0123 O.2       1 RES1    0.0000
      8 N1         9.1404    3.7161   -2.5249 N.pl3     1 RES1    0.0000
      9 N2        12.6962    3.4790    0.7227 N.pl3     1 RES1    0.0000
     10 N3        13.4929    1.3859    2.5689 N.pl3     1 RES1    0.0000
     11 N4        10.8584   -1.4406    5.4948 N.3       1 RES1    0.0000
     12 C1         8.9209    2.2167   -0.5942 C.ar      1 RES1    0.0000
     13 C2         9.6808    3.1102   -1.2996 C.ar      1 RES1    0.0000
     14 C3        10.9411    3.4770   -0.9094 C.ar      1 RES1    0.0000
     15 C4        11.4717    2.8955    0.2064 C.ar      1 RES1    0.0000
     16 C5        12.1867    0.8632    2.9371 C.ar      1 RES1    0.0000
     17 C6        12.1274    0.0142    4.0203 C.ar      1 RES1    0.0000
     18 C7        10.9490   -0.6666    4.3736 C.ar      1 RES1    0.0000
     19 C8         9.8494   -0.5086    3.5218 C.ar      1 RES1    0.0000
     20 C9         8.8947    0.6747    1.4501 C.2       1 RES1    0.0000
     21 C10        9.9571    0.3607    2.4446 C.ar      1 RES1    0.0000
     22 C11       11.0931    1.1063    2.1419 C.ar      1 RES1    0.0000
     23 C12       10.8109    1.9330    0.9552 C.ar      1 RES1    0.0000
     24 C13        9.4933    1.6534    0.5175 C.ar      1 RES1    0.0000
     25 C14       12.0379   -1.9067    6.1978 C.3       1 RES1    0.0000
     26 C15       12.3725   -3.2217    5.7690 C.3       1 RES1    0.0000
     27 C16       11.2193   -4.2206    5.9926 C.3       1 RES1    0.0000
     28 C17        9.9482   -3.6006    5.3354 C.3       1 RES1    0.0000
     29 C18        9.7098   -2.3119    5.7446 C.3       1 RES1    0.0000
@<TRIPOS>BOND
     1    1   20 2
     2    2    8 2
     3    3    8 2
     4    4    9 2
     5    5    9 2
     6    6   10 2
     7    7   10 2
     8    8   13 1
     9    9   15 1
    10   10   16 1
    11   11   18 1
    12   12   13 ar
    13   13   14 ar
    14   14   15 ar
    15   15   23 ar
    16   16   17 ar
    17   17   18 ar
    18   18   19 ar
    19   19   21 ar
    20   20   21 1
    21   21   22 ar
    22   22   16 ar
    23   23   22 1
    24   24   12 ar
    25   25   11 1
    26   26   25 1
    27   27   26 1
    28   28   27 1
    29   29   11 1
    30   20   24 1
    31   23   24 ar
    32   28   29 1
@<TRIPOS>SUBSTRUCTURE
     1 RES1 1

