# MOL2 file generated by ConQuest
# Please check atom types

@<TRIPOS>MOLECULE
DITYAI
    38    36     2
SMALL
NO_CHARGES
****
Generated from CSD

@<TRIPOS>ATOM
      1 N1         0.3324    5.3335    3.4504 N.3       1 RES1    0.0000
      2 N2        -1.2683    5.8755    2.0464 N.3       1 RES1    0.0000
      3 N3         0.0704    7.6841    3.0592 N.2       1 RES1    0.0000
      4 N4        -0.9683    8.3674    3.5457 N.2       1 RES1    0.0000
      5 O1        -0.7155    9.5840    3.7380 O.2       1 RES1    0.0000
      6 C1        -0.2988    6.3782    2.8574 C.2       1 RES1    0.0000
      7 C2        -0.2871    4.1664    3.0443 C.2       1 RES1    0.0000
      8 H1        -0.0543    3.2867    3.3165 H         1 RES1    0.0000
      9 C3        -1.2784    4.4971    2.1959 C.2       1 RES1    0.0000
     10 H2        -1.8781    3.8930    1.7745 H         1 RES1    0.0000
     11 C4         1.4678    5.4285    4.4388 C.3       1 RES1    0.0000
     12 C5         0.9913    6.1944    5.6707 C.3       1 RES1    0.0000
     13 H3         0.6831    7.0850    5.4021 H         1 RES1    0.0000
     14 H4         1.7308    6.2820    6.3076 H         1 RES1    0.0000
     15 H5         0.2533    5.7073    6.0929 H         1 RES1    0.0000
     16 C6         2.6457    6.1156    3.7575 C.3       1 RES1    0.0000
     17 H6         2.9419    5.5762    2.9944 H         1 RES1    0.0000
     18 H7         3.3830    6.2106    4.3959 H         1 RES1    0.0000
     19 H8         2.3698    7.0019    3.4438 H         1 RES1    0.0000
     20 C7         1.8636    4.0109    4.8496 C.3       1 RES1    0.0000
     21 H9         1.1055    3.5747    5.2914 H         1 RES1    0.0000
     22 H10        2.6237    4.0499    5.4674 H         1 RES1    0.0000
     23 H11        2.1159    3.4986    4.0527 H         1 RES1    0.0000
     24 C8        -2.1721    6.6054    1.0771 C.3       1 RES1    0.0000
     25 C9        -1.4408    7.7846    0.4463 C.3       1 RES1    0.0000
     26 H12       -1.3135    8.4872    1.1181 H         1 RES1    0.0000
     27 H13       -1.9706    8.1372   -0.2989 H         1 RES1    0.0000
     28 H14       -0.5679    7.4876    0.1140 H         1 RES1    0.0000
     29 C10       -3.4315    7.0373    1.8159 C.3       1 RES1    0.0000
     30 H15       -3.8861    6.2469    2.1763 H         1 RES1    0.0000
     31 H16       -4.0301    7.5040    1.1955 H         1 RES1    0.0000
     32 H17       -3.1891    7.6386    2.5505 H         1 RES1    0.0000
     33 C11       -2.5640    5.6304   -0.0332 C.3       1 RES1    0.0000
     34 H18       -1.7547    5.2731   -0.4550 H         1 RES1    0.0000
     35 H19       -3.1020    6.0994   -0.7052 H         1 RES1    0.0000
     36 H20       -3.0867    4.8938    0.3476 H         1 RES1    0.0000
     37 N5        -0.2876    8.7330    3.4771 Du        2 SUP2    0.0000
     38 O2        -1.3760    8.3386    4.0959 Du        2 SUP2    0.0000
@<TRIPOS>BOND
     1    1    6 1
     2    2    6 1
     3    3    4 1
     4    4    5 2
     5    6    3 2
     6    7    1 1
     7    8    7 1
     8    9    2 1
     9   10    9 1
    10   11    1 1
    11   12   11 1
    12   13   12 1
    13   14   12 1
    14   15   12 1
    15   16   11 1
    16   17   16 1
    17   18   16 1
    18   19   16 1
    19   20   11 1
    20   21   20 1
    21   22   20 1
    22   23   20 1
    23   24    2 1
    24   25   24 1
    25   26   25 1
    26   27   25 1
    27   28   25 1
    28   29   24 1
    29   30   29 1
    30   31   29 1
    31   32   29 1
    32   33   24 1
    33   34   33 1
    34   35   33 1
    35   36   33 1
    36    7    9 2
@<TRIPOS>SUBSTRUCTURE
     1 RES1 1
     2 SUP2 37

@<TRIPOS>CRYSIN
   9.2956   11.7049   11.2144  90.0000  99.2080  90.0000 231 1

