# MOL2 file generated by ConQuest
# Please check atom types

@<TRIPOS>MOLECULE
DIVPED
    47    52     1
SMALL
NO_CHARGES
****
Generated from CSD

@<TRIPOS>ATOM
      1 O1        12.1030    3.5589    0.6653 O.3       1 RES1    0.0000
      2 O2         4.5574    8.2776    2.5463 O.2       1 RES1    0.0000
      3 O3         3.4717    6.4386    2.3465 O.2       1 RES1    0.0000
      4 O4        10.2269    2.6252   -2.0815 O.2       1 RES1    0.0000
      5 O5         5.2285   -2.0435   -0.4034 O.2       1 RES1    0.0000
      6 O6         5.2274   -2.8248    1.5940 O.2       1 RES1    0.0000
      7 O7        11.8905    2.1402    2.4613 O.3       1 RES1    0.0000
      8 N1         4.5185    7.0783    2.2639 N.pl3     1 RES1    0.0000
      9 N2         9.2058    4.7232    0.5575 N.3       1 RES1    0.0000
     10 N3         5.5576   -2.0032    0.7596 N.pl3     1 RES1    0.0000
     11 N4         9.0227    2.1014    2.1004 N.pl3     1 RES1    0.0000
     12 C1         5.7070    6.4240    1.7961 C.ar      1 RES1    0.0000
     13 C2         6.9367    7.0449    1.8865 C.ar      1 RES1    0.0000
     14 N5         8.0694    6.4828    1.5027 N.ar      1 RES1    0.0000
     15 C3         8.0090    5.2524    0.9609 C.ar      1 RES1    0.0000
     16 C4         6.7863    4.5872    0.7982 C.ar      1 RES1    0.0000
     17 C5         5.6368    5.1527    1.2228 C.ar      1 RES1    0.0000
     18 C6         9.3721    3.3723    0.0087 C.3       1 RES1    0.0000
     19 C7        10.2604    3.4723   -1.2220 C.2       1 RES1    0.0000
     20 C8        11.1827    4.6597   -1.2173 C.3       1 RES1    0.0000
     21 C9        11.6049    4.8571    0.2131 C.3       1 RES1    0.0000
     22 C10       10.4484    5.2155    1.1552 C.3       1 RES1    0.0000
     23 C11        6.4524   -0.9268    1.2086 C.ar      1 RES1    0.0000
     24 C12        7.2515   -0.3437    0.2674 C.ar      1 RES1    0.0000
     25 N6         8.1128    0.6358    0.5906 N.ar      1 RES1    0.0000
     26 C13        8.1260    1.0580    1.8558 C.ar      1 RES1    0.0000
     27 C14        7.3395    0.5075    2.8632 C.ar      1 RES1    0.0000
     28 C15        6.5165   -0.5477    2.5179 C.ar      1 RES1    0.0000
     29 C16       10.0050    2.4369    1.0608 C.3       1 RES1    0.0000
     30 C17       11.2250    3.1050    1.7198 C.3       1 RES1    0.0000
     31 C18       10.7759    4.3616    2.4031 C.3       1 RES1    0.0000
     32 C19        9.6651    4.0561    3.3444 C.2       1 RES1    0.0000
     33 C20        8.8834    2.9877    3.1706 C.2       1 RES1    0.0000
     34 C21       12.9665    2.6380    3.3004 C.3       1 RES1    0.0000
     35 C22       13.7385    1.5173    3.7934 C.3       1 RES1    0.0000
     36 H1         6.9437    7.9428    2.2577 H         1 RES1    0.0000
     37 H2         6.6320    3.8208    0.4168 H         1 RES1    0.0000
     38 H3         4.6848    4.7786    1.2212 H         1 RES1    0.0000
     39 H4         8.4733    3.0383   -0.3216 H         1 RES1    0.0000
     40 H5        12.0216    4.4808   -1.7560 H         1 RES1    0.0000
     41 H6        10.8045    5.3213   -1.6073 H         1 RES1    0.0000
     42 H7        12.3212    5.5420    0.2713 H         1 RES1    0.0000
     43 H8        10.2814    6.2539    1.2975 H         1 RES1    0.0000
     44 H9         7.3265   -0.6147   -0.6951 H         1 RES1    0.0000
     45 H10        7.4125    0.8286    3.8115 H         1 RES1    0.0000
     46 H11        6.0882   -1.0376    3.1620 H         1 RES1    0.0000
     47 H12       10.2145    1.6804    0.6432 H         1 RES1    0.0000
@<TRIPOS>BOND
     1    1   21 1
     2    2    8 2
     3    3    8 2
     4    4   19 2
     5    5   10 2
     6    6   10 2
     7    7   30 1
     8    8   12 1
     9    9   15 1
    10   10   23 1
    11   11   26 1
    12   12   13 ar
    13   13   14 ar
    14   14   15 ar
    15   15   16 ar
    16   16   17 ar
    17   17   12 ar
    18   18    9 1
    19   19   18 1
    20   20   19 1
    21   21   20 1
    22   22    9 1
    23   23   24 ar
    24   24   25 ar
    25   25   26 ar
    26   26   27 ar
    27   27   28 ar
    28   28   23 ar
    29   29   11 1
    30   30    1 1
    31   31   22 1
    32   32   31 1
    33   33   11 1
    34   34    7 1
    35   35   34 1
    36   36   13 1
    37   37   16 1
    38   38   17 1
    39   39   18 1
    40   40   20 1
    41   41   20 1
    42   42   21 1
    43   43   22 1
    44   44   24 1
    45   45   27 1
    46   46   28 1
    47   47   29 1
    48   18   29 1
    49   21   22 1
    50   29   30 1
    51   30   31 1
    52   32   33 2
@<TRIPOS>SUBSTRUCTURE
     1 RES1 1

@<TRIPOS>CRYSIN
  10.0210   13.8090    8.6140  98.3100 113.6300  80.1700   2 1

