# MOL2 file generated by ConQuest
# Please check atom types

@<TRIPOS>MOLECULE
DIVYIQ
    35    36     1
SMALL
NO_CHARGES
****
Generated from CSD

@<TRIPOS>ATOM
      1 C1        -3.0620    3.8898    3.2243 C.ar      1 RES1    0.0000
      2 C2        -2.6637    2.8737    2.3900 C.ar      1 RES1    0.0000
      3 C3        -1.3286    2.6967    2.0893 C.ar      1 RES1    0.0000
      4 C4        -0.3540    3.5190    2.6075 C.ar      1 RES1    0.0000
      5 C5        -0.7474    4.5411    3.4429 C.ar      1 RES1    0.0000
      6 C6        -2.1016    4.7145    3.7415 C.ar      1 RES1    0.0000
      7 C7        -4.5333    4.0126    3.5619 C.3       1 RES1    0.0000
      8 C8        -4.9810    5.3694    3.9888 C.2       1 RES1    0.0000
      9 O1        -5.6058    5.5837    4.9883 O.2       1 RES1    0.0000
     10 O2        -4.6661    6.3409    3.1956 O.3       1 RES1    0.0000
     11 C9         1.1190    3.2915    2.2946 C.3       1 RES1    0.0000
     12 C10        1.6284    4.1125    1.1678 C.3       1 RES1    0.0000
     13 C11        1.5890    5.5849    1.1935 C.3       1 RES1    0.0000
     14 C12        2.5891    6.0929    0.2268 C.3       1 RES1    0.0000
     15 C13        3.7017    5.0335    0.2063 C.3       1 RES1    0.0000
     16 C14        3.0531    3.8091    0.7440 C.2       1 RES1    0.0000
     17 N1         3.5464    2.6510    0.8497 N.2       1 RES1    0.0000
     18 O3         4.8571    2.5992    0.3386 O.3       1 RES1    0.0000
     19 H1        -3.4872    2.2513    1.9805 H         1 RES1    0.0000
     20 H2        -1.0917    1.9142    1.5188 H         1 RES1    0.0000
     21 H3        -0.0455    5.2249    3.8893 H         1 RES1    0.0000
     22 H4        -2.2814    5.5259    4.3716 H         1 RES1    0.0000
     23 H5        -4.7128    3.4311    4.2587 H         1 RES1    0.0000
     24 H6        -5.2979    3.7080    2.8220 H         1 RES1    0.0000
     25 H7        -4.9720    7.2475    3.5198 H         1 RES1    0.0000
     26 H8         1.2629    2.3235    2.0832 H         1 RES1    0.0000
     27 H9         1.9044    3.7682    3.0375 H         1 RES1    0.0000
     28 H10        0.6952    4.0331    0.2155 H         1 RES1    0.0000
     29 H11        2.1358    5.4657    2.2679 H         1 RES1    0.0000
     30 H12        0.6046    6.0075    1.0878 H         1 RES1    0.0000
     31 H13        2.7970    6.9224    0.2873 H         1 RES1    0.0000
     32 H14        1.9483    6.1038   -0.9646 H         1 RES1    0.0000
     33 H15        4.0143    4.8638   -0.6157 H         1 RES1    0.0000
     34 H16        4.4211    5.4176    0.8825 H         1 RES1    0.0000
     35 H17        4.9301    1.6614    0.3592 H         1 RES1    0.0000
@<TRIPOS>BOND
     1    1    2 ar
     2    2    3 ar
     3    3    4 ar
     4    4    5 ar
     5    5    6 ar
     6    6    1 ar
     7    7    1 1
     8    8    7 1
     9    9    8 2
    10   10    8 1
    11   11    4 1
    12   12   11 1
    13   13   12 1
    14   14   13 1
    15   15   14 1
    16   16   12 1
    17   17   16 2
    18   18   17 1
    19   19    2 1
    20   20    3 1
    21   21    5 1
    22   22    6 1
    23   23    7 1
    24   24    7 1
    25   25   10 1
    26   26   11 1
    27   27   11 1
    28   28   12 1
    29   29   13 1
    30   30   13 1
    31   31   14 1
    32   32   14 1
    33   33   15 1
    34   34   15 1
    35   35   18 1
    36   15   16 1
@<TRIPOS>SUBSTRUCTURE
     1 RES1 1

@<TRIPOS>CRYSIN
  10.4280   12.0390   10.8890  90.0000 109.5400  90.0000  14 1

