# MOL2 file generated by ConQuest
# Please check atom types

@<TRIPOS>MOLECULE
DIWFEU
    26    27     1
SMALL
NO_CHARGES
****
Generated from CSD

@<TRIPOS>ATOM
      1 C1         7.4433    2.8312    4.6814 C.ar      1 RES1    0.0000
      2 C2         8.7911    3.1519    4.9244 C.ar      1 RES1    0.0000
      3 C3         9.7535    2.1694    5.0685 C.ar      1 RES1    0.0000
      4 C4         9.3619    0.8473    4.9540 C.ar      1 RES1    0.0000
      5 C5         8.0553    0.4810    4.6955 C.ar      1 RES1    0.0000
      6 C6         7.1086    1.4824    4.5862 C.ar      1 RES1    0.0000
      7 C7         6.4502    3.8954    4.5283 C.ar      1 RES1    0.0000
      8 C8         6.6663    4.8921    3.5560 C.ar      1 RES1    0.0000
      9 C9         5.7611    5.9044    3.3271 C.ar      1 RES1    0.0000
     10 C10        4.5978    5.9359    4.0730 C.ar      1 RES1    0.0000
     11 C11        4.3276    4.9793    5.0389 C.ar      1 RES1    0.0000
     12 C12        5.2648    3.9418    5.2639 C.ar      1 RES1    0.0000
     13 N1        10.3526   -0.2036    5.1083 N.pl3     1 RES1    0.0000
     14 N2         4.9703    2.9852    6.2362 N.3       1 RES1    0.0000
     15 O1        10.0264   -1.3653    4.9013 O.2       1 RES1    0.0000
     16 O2        11.4843    0.1116    5.4749 O.2       1 RES1    0.0000
     17 H1         9.0715    4.1579    4.9900 H         1 RES1    0.0000
     18 H2        10.8639    2.4523    5.2472 H         1 RES1    0.0000
     19 H3         7.7945   -0.5738    4.5785 H         1 RES1    0.0000
     20 H4         6.0786    1.2104    4.4241 H         1 RES1    0.0000
     21 H5         7.5521    4.8496    2.9709 H         1 RES1    0.0000
     22 H6         5.9686    6.6653    2.5464 H         1 RES1    0.0000
     23 H7         3.9160    6.7046    3.9226 H         1 RES1    0.0000
     24 H8         3.3911    5.0225    5.6202 H         1 RES1    0.0000
     25 H9         5.6811    2.3030    6.5848 H         1 RES1    0.0000
     26 H10        4.0729    3.0340    6.5719 H         1 RES1    0.0000
@<TRIPOS>BOND
     1    1    2 ar
     2    2    3 ar
     3    3    4 ar
     4    4    5 ar
     5    5    6 ar
     6    6    1 ar
     7    7    1 1
     8    8    7 ar
     9    9    8 ar
    10   10    9 ar
    11   11   10 ar
    12   12    7 ar
    13   13    4 1
    14   14   12 1
    15   15   13 2
    16   16   13 2
    17   17    2 1
    18   18    3 1
    19   19    5 1
    20   20    6 1
    21   21    8 1
    22   22    9 1
    23   23   10 1
    24   24   11 1
    25   25   14 1
    26   26   14 1
    27   11   12 ar
@<TRIPOS>SUBSTRUCTURE
     1 RES1 1

@<TRIPOS>CRYSIN
  20.6600    7.8600   13.2900  90.0000 104.6000  90.0000  15 1

