# MOL2 file generated by ConQuest
# Please check atom types

@<TRIPOS>MOLECULE
DIWHIB
    30    29     1
SMALL
NO_CHARGES
****
Generated from CSD

@<TRIPOS>ATOM
      1 H1         4.0114    2.8182   11.3715 H         1 RES1    0.0000
      2 H2         4.6143    1.5307   10.7171 H         1 RES1    0.0000
      3 H3         4.9887   -1.9679   14.6999 H         1 RES1    0.0000
      4 H4         6.1705   -1.1796   14.0685 H         1 RES1    0.0000
      5 C1         4.7486    0.2593   12.7367 C.2       1 RES1    0.0000
      6 C2         3.9361    1.8791   11.2396 C.3       1 RES1    0.0000
      7 C3         2.6143    1.6352   10.5367 C.3       1 RES1    0.0000
      8 C4         5.3383   -1.1226   14.5561 C.3       1 RES1    0.0000
      9 C5         5.5878   -0.4644   15.9044 C.3       1 RES1    0.0000
     10 N1         2.4597    0.2036   10.0384 N.pl3     1 RES1    0.0000
     11 N2         1.4138    1.9171   11.4279 N.pl3     1 RES1    0.0000
     12 N3         2.4842    2.5260    9.3119 N.pl3     1 RES1    0.0000
     13 N4         6.4719    0.7764   15.8151 N.pl3     1 RES1    0.0000
     14 N5         6.2295   -1.4117   16.8944 N.pl3     1 RES1    0.0000
     15 N6         4.2648    0.0044   16.5063 N.pl3     1 RES1    0.0000
     16 O1         5.6704   -0.0605   12.0531 O.2       1 RES1    0.0000
     17 O2         4.3692   -0.3030   13.8983 O.3       1 RES1    0.0000
     18 O3         3.8735    1.2500   12.5174 O.3       1 RES1    0.0000
     19 O4         2.6688   -0.6543   10.8783 O.2       1 RES1    0.0000
     20 O5         2.1442    0.0361    8.8852 O.2       1 RES1    0.0000
     21 O6         0.4536    1.1872   11.3146 O.2       1 RES1    0.0000
     22 O7         1.5271    2.8847   12.1568 O.2       1 RES1    0.0000
     23 O8         1.3880    2.9897    9.0715 O.2       1 RES1    0.0000
     24 O9         3.5098    2.6658    8.6759 O.2       1 RES1    0.0000
     25 O10        6.3597    1.4313   14.7980 O.2       1 RES1    0.0000
     26 O11        7.1785    1.0225   16.7706 O.2       1 RES1    0.0000
     27 O12        6.9954   -2.2194   16.4055 O.2       1 RES1    0.0000
     28 O13        5.9445   -1.2718   18.0660 O.2       1 RES1    0.0000
     29 O14        3.4332   -0.8788   16.6065 O.2       1 RES1    0.0000
     30 O15        4.1514    1.1735   16.7967 O.2       1 RES1    0.0000
@<TRIPOS>BOND
     1    1    6 1
     2    2    6 1
     3    3    8 1
     4    4    8 1
     5    5   16 2
     6    6    7 1
     7    7   10 1
     8    8    9 1
     9    9   13 1
    10   10   19 2
    11   11    7 1
    12   12    7 1
    13   13   25 2
    14   14    9 1
    15   15    9 1
    16   17    5 1
    17   18    5 1
    18   20   10 2
    19   21   11 2
    20   22   11 2
    21   23   12 2
    22   24   12 2
    23   26   13 2
    24   27   14 2
    25   28   14 2
    26   29   15 2
    27   30   15 2
    28    6   18 1
    29    8   17 1
@<TRIPOS>SUBSTRUCTURE
     1 RES1 1

@<TRIPOS>CRYSIN
  10.8828   11.4746   20.9073  90.0000  90.0000  90.0000  61 1

