# MOL2 file generated by ConQuest
# Please check atom types

@<TRIPOS>MOLECULE
DIWKAX
    41    45     1
SMALL
NO_CHARGES
****
Generated from CSD

@<TRIPOS>ATOM
      1 O1         0.9096   -4.8604    3.8276 O.2       1 RES1    0.0000
      2 O2         1.0590   -5.1807    1.7524 O.2       1 RES1    0.0000
      3 N1         1.5098   -1.6683    5.8889 N.2       1 RES1    0.0000
      4 N2         1.0792   -4.4490    2.7209 N.pl3     1 RES1    0.0000
      5 C1         1.4290   -2.0077    7.2551 C.ar      1 RES1    0.0000
      6 C2         1.6593   -0.9627    8.1767 C.ar      1 RES1    0.0000
      7 C3         1.9629    0.3728    7.7733 C.ar      1 RES1    0.0000
      8 H1         2.0228    0.5719    6.8669 H         1 RES1    0.0000
      9 C4         2.1643    1.3497    8.6747 C.ar      1 RES1    0.0000
     10 H2         2.3630    2.2068    8.3754 H         1 RES1    0.0000
     11 C5         2.0826    1.1073   10.0804 C.ar      1 RES1    0.0000
     12 C6         2.2730    2.1063   11.0369 C.ar      1 RES1    0.0000
     13 H3         2.4857    2.9687   10.7617 H         1 RES1    0.0000
     14 C7         2.1496    1.8343   12.3889 C.ar      1 RES1    0.0000
     15 H4         2.2666    2.5158   13.0107 H         1 RES1    0.0000
     16 C8         1.8550    0.5632   12.8153 C.ar      1 RES1    0.0000
     17 H5         1.7803    0.3944   13.7266 H         1 RES1    0.0000
     18 C9         1.6664   -0.4827   11.9091 C.ar      1 RES1    0.0000
     19 C10        1.3485   -1.8091   12.3189 C.ar      1 RES1    0.0000
     20 H6         1.2805   -1.9995   13.2262 H         1 RES1    0.0000
     21 C11        1.1447   -2.7889   11.4272 C.ar      1 RES1    0.0000
     22 H7         0.9318   -3.6418   11.7293 H         1 RES1    0.0000
     23 C12        1.2484   -2.5497   10.0211 C.ar      1 RES1    0.0000
     24 C13        1.0142   -3.5470    9.0720 C.ar      1 RES1    0.0000
     25 H8         0.7876   -4.4037    9.3545 H         1 RES1    0.0000
     26 C14        1.1119   -3.2800    7.7245 C.ar      1 RES1    0.0000
     27 H9         0.9631   -3.9655    7.1142 H         1 RES1    0.0000
     28 C15        1.5699   -1.2427    9.5665 C.ar      1 RES1    0.0000
     29 C16        1.7745   -0.2037   10.5200 C.ar      1 RES1    0.0000
     30 C17        1.4475   -2.4809    5.0057 C.2       1 RES1    0.0000
     31 H10        1.3586   -3.3766    5.2370 H         1 RES1    0.0000
     32 C18        1.5029   -2.1330    3.5769 C.ar      1 RES1    0.0000
     33 C19        1.3337   -3.0176    2.5023 C.ar      1 RES1    0.0000
     34 C20        1.3846   -2.6006    1.1878 C.ar      1 RES1    0.0000
     35 H11        1.2777   -3.2136    0.4975 H         1 RES1    0.0000
     36 C21        1.5920   -1.2788    0.9094 C.ar      1 RES1    0.0000
     37 H12        1.6164   -0.9873    0.0260 H         1 RES1    0.0000
     38 C22        1.7649   -0.3812    1.9338 C.ar      1 RES1    0.0000
     39 H13        1.9149    0.5160    1.7413 H         1 RES1    0.0000
     40 C23        1.7175   -0.7988    3.2362 C.ar      1 RES1    0.0000
     41 H14        1.8318   -0.1729    3.9151 H         1 RES1    0.0000
@<TRIPOS>BOND
     1    1    4 2
     2    2    4 2
     3    3    5 1
     4    4   33 1
     5    5    6 ar
     6    6    7 ar
     7    7    8 1
     8    9    7 ar
     9   10    9 1
    10   11    9 ar
    11   12   11 ar
    12   13   12 1
    13   14   12 ar
    14   15   14 1
    15   16   14 ar
    16   17   16 1
    17   18   16 ar
    18   19   18 ar
    19   20   19 1
    20   21   19 ar
    21   22   21 1
    22   23   21 ar
    23   24   23 ar
    24   25   24 1
    25   26    5 ar
    26   27   26 1
    27   28    6 ar
    28   29   11 ar
    29   30    3 2
    30   31   30 1
    31   32   30 1
    32   33   32 ar
    33   34   33 ar
    34   35   34 1
    35   36   34 ar
    36   37   36 1
    37   38   36 ar
    38   39   38 1
    39   40   32 ar
    40   41   40 1
    41   18   29 ar
    42   23   28 ar
    43   24   26 ar
    44   28   29 ar
    45   38   40 ar
@<TRIPOS>SUBSTRUCTURE
     1 RES1 1

@<TRIPOS>CRYSIN
   7.1980    8.0860   14.7940 101.7410  91.9190  95.6050   2 1

