# MOL2 file generated by ConQuest
# Please check atom types

@<TRIPOS>MOLECULE
DIWNED
    42    45     1
SMALL
NO_CHARGES
****
Generated from CSD

@<TRIPOS>ATOM
      1 C1         0.9188    3.1652    5.0517 C.2       1 RES1    0.0000
      2 C2         0.7153    1.7493    5.1131 C.ar      1 RES1    0.0000
      3 C3         0.9143    0.6547    4.2652 C.ar      1 RES1    0.0000
      4 C4         0.5772   -0.5923    4.7698 C.ar      1 RES1    0.0000
      5 C5         0.0498   -0.7316    6.1035 C.ar      1 RES1    0.0000
      6 C6         0.1458    1.4964    6.3762 C.ar      1 RES1    0.0000
      7 C7         1.5801    3.9708    3.9888 C.3       1 RES1    0.0000
      8 H1         1.0158    4.0030    3.2136 H         1 RES1    0.0000
      9 H2         2.4194    3.5685    3.7575 H         1 RES1    0.0000
     10 H3         1.7320    4.8632    4.3103 H         1 RES1    0.0000
     11 C8         0.7084   -1.7458    3.9389 C.1       1 RES1    0.0000
     12 C9         1.4344    0.8099    2.8800 C.ar      1 RES1    0.0000
     13 C10        0.6073    1.2733    1.8792 C.ar      1 RES1    0.0000
     14 H4        -0.2811    1.4710    2.0739 H         1 RES1    0.0000
     15 C11        1.0755    1.4467    0.5967 C.ar      1 RES1    0.0000
     16 H5         0.5159    1.7614   -0.0767 H         1 RES1    0.0000
     17 C12        2.3782    1.1465    0.3347 C.ar      1 RES1    0.0000
     18 C13        3.2268    0.6673    1.2987 C.ar      1 RES1    0.0000
     19 H6         4.1103    0.4588    1.0923 H         1 RES1    0.0000
     20 C14        2.7452    0.5027    2.5763 C.ar      1 RES1    0.0000
     21 H7         3.3084    0.1793    3.2429 H         1 RES1    0.0000
     22 C15       -0.5177    3.0473    8.2628 C.ar      1 RES1    0.0000
     23 C16       -0.2132    2.2679    9.3618 C.ar      1 RES1    0.0000
     24 H8         0.3188    1.5100    9.2684 H         1 RES1    0.0000
     25 C17       -0.7090    2.6274   10.6068 C.ar      1 RES1    0.0000
     26 H9        -0.5226    2.0994   11.3491 H         1 RES1    0.0000
     27 C18       -1.4751    3.7624   10.7508 C.ar      1 RES1    0.0000
     28 H10       -1.7935    4.0049   11.5905 H         1 RES1    0.0000
     29 C19       -1.7676    4.5339    9.6545 C.ar      1 RES1    0.0000
     30 H11       -2.2862    5.2996    9.7536 H         1 RES1    0.0000
     31 C20       -1.2976    4.1822    8.4009 C.ar      1 RES1    0.0000
     32 H12       -1.5036    4.7034    7.6593 H         1 RES1    0.0000
     33 N1        -0.0028    2.7138    6.9764 N.pl3     1 RES1    0.0000
     34 N2         0.4780    3.7364    6.1552 N.2       1 RES1    0.0000
     35 N3        -0.1906    0.3128    6.8972 N.ar      1 RES1    0.0000
     36 N4         0.7985   -2.6508    3.2481 N.1       1 RES1    0.0000
     37 N5        -0.2078   -1.9598    6.5955 N.3       1 RES1    0.0000
     38 H13       -0.5156   -2.0478    7.3930 H         1 RES1    0.0000
     39 H14       -0.0642   -2.6557    6.1112 H         1 RES1    0.0000
     40 N6         2.9016    1.3795   -1.0200 N.pl3     1 RES1    0.0000
     41 O1         4.0514    1.0521   -1.2714 O.2       1 RES1    0.0000
     42 O2         2.1594    1.9055   -1.8273 O.2       1 RES1    0.0000
@<TRIPOS>BOND
     1    1    2 1
     2    2    3 ar
     3    3    4 ar
     4    4    5 ar
     5    5   35 ar
     6    6    2 ar
     7    7    1 1
     8    8    7 1
     9    9    7 1
    10   10    7 1
    11   11    4 1
    12   12    3 1
    13   13   12 ar
    14   14   13 1
    15   15   13 ar
    16   16   15 1
    17   17   15 ar
    18   18   17 ar
    19   19   18 1
    20   20   12 ar
    21   21   20 1
    22   22   23 ar
    23   23   24 1
    24   25   23 ar
    25   26   25 1
    26   27   25 ar
    27   28   27 1
    28   29   27 ar
    29   30   29 1
    30   31   22 ar
    31   32   31 1
    32   33    6 1
    33   34    1 2
    34   35    6 ar
    35   36   11 3
    36   37    5 1
    37   38   37 1
    38   39   37 1
    39   40   17 1
    40   41   40 2
    41   42   40 2
    42   18   20 ar
    43   22   33 1
    44   29   31 ar
    45   33   34 1
@<TRIPOS>SUBSTRUCTURE
     1 RES1 1

@<TRIPOS>CRYSIN
  16.4700    9.7420   23.4600  90.0000 105.8570  90.0000  15 1

