# MOL2 file generated by ConQuest
# Please check atom types

@<TRIPOS>MOLECULE
DIWPEF
   116   118     2
SMALL
NO_CHARGES
****
Generated from CSD

@<TRIPOS>ATOM
      1 O1         3.4163    1.6025    1.4369 O.3       1 RES1    0.0000
      2 O2         1.2717    2.3018    1.3138 O.2       1 RES1    0.0000
      3 O3         3.0248    3.5002    0.5178 O.3       1 RES1    0.0000
      4 O4         2.1126   -4.0408    3.8119 O.2       1 RES1    0.0000
      5 O5         1.9970   -2.8476    5.6108 O.2       1 RES1    0.0000
      6 N1         2.1514   -2.9664    4.3959 N.pl3     1 RES1    0.0000
      7 C1         3.0191    0.4687    2.1701 C.ar      1 RES1    0.0000
      8 C2         2.6676    0.6004    3.4949 C.ar      1 RES1    0.0000
      9 H1         2.6342    1.4603    3.8984 H         1 RES1    0.0000
     10 C3         2.3648   -0.5283    4.2349 C.ar      1 RES1    0.0000
     11 H2         2.1226   -0.4601    5.1513 H         1 RES1    0.0000
     12 C4         2.4226   -1.7571    3.6075 C.ar      1 RES1    0.0000
     13 C5         2.7733   -1.8945    2.2843 C.ar      1 RES1    0.0000
     14 H3         2.8052   -2.7527    1.8794 H         1 RES1    0.0000
     15 C6         3.0775   -0.7584    1.5542 C.ar      1 RES1    0.0000
     16 H4         3.3242   -0.8260    0.6394 H         1 RES1    0.0000
     17 C7         2.4280    2.4824    1.0998 C.2       1 RES1    0.0000
     18 C8         2.2189    4.6586    0.0143 C.3       1 RES1    0.0000
     19 C9         1.4271    5.2851    1.1491 C.3       1 RES1    0.0000
     20 H5         0.6521    4.7224    1.3573 H         1 RES1    0.0000
     21 H6         1.1203    6.1761    0.8810 H         1 RES1    0.0000
     22 H7         1.9978    5.3615    1.9427 H         1 RES1    0.0000
     23 C10        1.3279    4.1947   -1.1141 C.3       1 RES1    0.0000
     24 H8         0.6253    3.6118   -0.7579 H         1 RES1    0.0000
     25 H9         1.8622    3.6990   -1.7691 H         1 RES1    0.0000
     26 H10        0.9175    4.9721   -1.5474 H         1 RES1    0.0000
     27 C11        3.3053    5.5837   -0.5244 C.3       1 RES1    0.0000
     28 H11        3.8197    5.0972   -1.2166 H         1 RES1    0.0000
     29 H12        2.8717    6.3569   -0.9643 H         1 RES1    0.0000
     30 O6         7.3148   -2.0493    4.1724 O.3       2 RES2    0.0000
     31 O7         5.1419   -2.5085    4.5830 O.2       2 RES2    0.0000
     32 O8         6.8539   -3.8572    5.2230 O.3       2 RES2    0.0000
     33 O9         6.1888    3.8304    2.3783 O.2       2 RES2    0.0000
     34 O10        6.4940    2.9154    0.4480 O.2       2 RES2    0.0000
     35 N2         6.4025    2.8550    1.6715 N.pl3     2 RES2    0.0000
     36 C12        6.9753   -0.8368    3.5479 C.ar      2 RES2    0.0000
     37 C13        7.2806   -0.7138    2.2095 C.ar      2 RES2    0.0000
     38 H13        7.6347   -1.4515    1.7257 H         2 RES2    0.0000
     39 C14        7.0649    0.5026    1.5782 C.ar      2 RES2    0.0000
     40 H14        7.2543    0.6096    0.6534 H         2 RES2    0.0000
     41 C15        6.5705    1.5516    2.3227 C.ar      2 RES2    0.0000
     42 C16        6.2630    1.4372    3.6618 C.ar      2 RES2    0.0000
     43 H15        5.9231    2.1791    4.1471 H         2 RES2    0.0000
     44 C17        6.4633    0.2134    4.2840 C.ar      2 RES2    0.0000
     45 H16        6.2506    0.0991    5.2029 H         2 RES2    0.0000
     46 C18        6.2892   -2.8019    4.6733 C.2       2 RES2    0.0000
     47 C19        6.0052   -4.9723    5.7651 C.3       2 RES2    0.0000
     48 C20        5.2281   -5.6087    4.6302 C.3       2 RES2    0.0000
     49 H17        4.5238   -4.9953    4.3325 H         2 RES2    0.0000
     50 H18        4.8225   -6.4459    4.9402 H         2 RES2    0.0000
     51 H19        5.8339   -5.7964    3.8831 H         2 RES2    0.0000
     52 C21        5.1003   -4.4497    6.8675 C.3       2 RES2    0.0000
     53 H20        4.4035   -3.8829    6.4770 H         2 RES2    0.0000
     54 H21        5.6297   -3.9254    7.5035 H         2 RES2    0.0000
     55 H22        4.6836   -5.2049    7.3334 H         2 RES2    0.0000
     56 C22        7.0582   -5.9041    6.3645 C.3       2 RES2    0.0000
     57 H23        7.5440   -5.4159    7.0753 H         2 RES2    0.0000
     58 H24        6.5972   -6.6702    6.7890 H         2 RES2    0.0000
     59 O1A        4.1639   10.0844   -1.4369 O.3       1 RES1    0.0000
     60 O2A        6.3086    9.3851   -1.3138 O.2       1 RES1    0.0000
     61 O3A        4.5554    8.1867   -0.5178 O.3       1 RES1    0.0000
     62 O4A        5.4677   15.7277   -3.8119 O.2       1 RES1    0.0000
     63 O5A        5.5832   14.5345   -5.6108 O.2       1 RES1    0.0000
     64 N1A        5.4288   14.6533   -4.3959 N.pl3     1 RES1    0.0000
     65 C1A        4.5612   11.2182   -2.1701 C.ar      1 RES1    0.0000
     66 C2A        4.9126   11.0865   -3.4949 C.ar      1 RES1    0.0000
     67 H1A        4.9460   10.2265   -3.8984 H         1 RES1    0.0000
     68 C3A        5.2155   12.2151   -4.2349 C.ar      1 RES1    0.0000
     69 H2A        5.4576   12.1470   -5.1513 H         1 RES1    0.0000
     70 C4A        5.1576   13.4439   -3.6075 C.ar      1 RES1    0.0000
     71 C5A        4.8069   13.5814   -2.2843 C.ar      1 RES1    0.0000
     72 H3A        4.7750   14.4396   -1.8794 H         1 RES1    0.0000
     73 C6A        4.5028   12.4453   -1.5542 C.ar      1 RES1    0.0000
     74 H4A        4.2560   12.5128   -0.6394 H         1 RES1    0.0000
     75 C7A        5.1522    9.2044   -1.0998 C.2       1 RES1    0.0000
     76 C8A        5.3613    7.0282   -0.0143 C.3       1 RES1    0.0000
     77 C9A        6.1532    6.4018   -1.1491 C.3       1 RES1    0.0000
     78 H5A        6.9282    6.9645   -1.3573 H         1 RES1    0.0000
     79 H6A        6.4599    5.5108   -0.8810 H         1 RES1    0.0000
     80 H7A        5.5824    6.3254   -1.9427 H         1 RES1    0.0000
     81 C10A       6.2523    7.4921    1.1141 C.3       1 RES1    0.0000
     82 H8A        6.9550    8.0751    0.7579 H         1 RES1    0.0000
     83 H9A        5.7180    7.9879    1.7691 H         1 RES1    0.0000
     84 H10A       6.6627    6.7148    1.5474 H         1 RES1    0.0000
     85 C11A       4.2749    6.1032    0.5244 C.3       1 RES1    0.0000
     86 H11A       3.7605    6.5896    1.2166 H         1 RES1    0.0000
     87 H12A       4.7086    5.3300    0.9643 H         1 RES1    0.0000
     88 O6A        7.8166  -10.2968    7.5591 O.3       2 RES2    0.0000
     89 O7A        9.9895   -9.8376    7.1485 O.2       2 RES2    0.0000
     90 O8A        8.2775   -8.4889    6.5085 O.3       2 RES2    0.0000
     91 O9A        8.9426  -16.1765    9.3532 O.2       2 RES2    0.0000
     92 O10A       8.6374  -15.2615   11.2835 O.2       2 RES2    0.0000
     93 N2A        8.7289  -15.2011   10.0600 N.pl3     2 RES2    0.0000
     94 C12A       8.1561  -11.5093    8.1837 C.ar      2 RES2    0.0000
     95 C13A       7.8508  -11.6323    9.5220 C.ar      2 RES2    0.0000
     96 H13A       7.4967  -10.8946   10.0058 H         2 RES2    0.0000
     97 C14A       8.0665  -12.8487   10.1533 C.ar      2 RES2    0.0000
     98 H14A       7.8771  -12.9557   11.0781 H         2 RES2    0.0000
     99 C15A       8.5609  -13.8977    9.4088 C.ar      2 RES2    0.0000
    100 C16A       8.8684  -13.7833    8.0698 C.ar      2 RES2    0.0000
    101 H15A       9.2083  -14.5252    7.5844 H         2 RES2    0.0000
    102 C17A       8.6681  -12.5595    7.4475 C.ar      2 RES2    0.0000
    103 H16A       8.8808  -12.4452    6.5286 H         2 RES2    0.0000
    104 C18A       8.8422   -9.5442    7.0583 C.2       2 RES2    0.0000
    105 C19A       9.1262   -7.3738    5.9664 C.3       2 RES2    0.0000
    106 C20A       9.9033   -6.7374    7.1013 C.3       2 RES2    0.0000
    107 H17A      10.6076   -7.3508    7.3991 H         2 RES2    0.0000
    108 H18A      10.3089   -5.9002    6.7914 H         2 RES2    0.0000
    109 H19A       9.2975   -6.5498    7.8484 H         2 RES2    0.0000
    110 C21A      10.0311   -7.8964    4.8640 C.3       2 RES2    0.0000
    111 H20A      10.7279   -8.4632    5.2546 H         2 RES2    0.0000
    112 H21A       9.5016   -8.4207    4.2281 H         2 RES2    0.0000
    113 H22A      10.4478   -7.1412    4.3982 H         2 RES2    0.0000
    114 C22A       8.0732   -6.4420    5.3671 C.3       2 RES2    0.0000
    115 H23A       7.5873   -6.9302    4.6563 H         2 RES2    0.0000
    116 H24A       8.5342   -5.6759    4.9425 H         2 RES2    0.0000
@<TRIPOS>BOND
     1    1    7 1
     2    2   17 2
     3    3   17 1
     4    4    6 2
     5    5    6 2
     6    6   12 1
     7    7    8 ar
     8    8    9 1
     9   10    8 ar
    10   11   10 1
    11   12   10 ar
    12   13   12 ar
    13   14   13 1
    14   15    7 ar
    15   16   15 1
    16   17    1 1
    17   18    3 1
    18   19   18 1
    19   20   19 1
    20   21   19 1
    21   22   19 1
    22   23   18 1
    23   24   23 1
    24   25   23 1
    25   26   23 1
    26   27   18 1
    27   28   27 1
    28   29   27 1
    29   30   36 1
    30   31   46 2
    31   32   46 1
    32   33   35 2
    33   34   35 2
    34   35   41 1
    35   36   37 ar
    36   37   38 1
    37   39   37 ar
    38   40   39 1
    39   41   39 ar
    40   42   41 ar
    41   43   42 1
    42   44   36 ar
    43   45   44 1
    44   46   30 1
    45   47   32 1
    46   48   47 1
    47   49   48 1
    48   50   48 1
    49   51   48 1
    50   52   47 1
    51   53   52 1
    52   54   52 1
    53   55   52 1
    54   56   47 1
    55   57   56 1
    56   58   56 1
    57   59   65 1
    58   60   75 2
    59   61   75 1
    60   62   64 2
    61   63   64 2
    62   64   70 1
    63   65   66 ar
    64   66   67 1
    65   68   66 ar
    66   69   68 1
    67   70   68 ar
    68   71   70 ar
    69   72   71 1
    70   73   65 ar
    71   74   73 1
    72   75   59 1
    73   76   61 1
    74   77   76 1
    75   78   77 1
    76   79   77 1
    77   80   77 1
    78   81   76 1
    79   82   81 1
    80   83   81 1
    81   84   81 1
    82   85   27 1
    83   86   85 1
    84   87   85 1
    85   88   94 1
    86   89  104 2
    87   90  104 1
    88   91   93 2
    89   92   93 2
    90   93   99 1
    91   94   95 ar
    92   95   96 1
    93   97   95 ar
    94   98   97 1
    95   99   97 ar
    96  100   99 ar
    97  101  100 1
    98  102   94 ar
    99  103  102 1
   100  104   88 1
   101  105   90 1
   102  106  105 1
   103  107  106 1
   104  108  106 1
   105  109  106 1
   106  110  105 1
   107  111  110 1
   108  112  110 1
   109  113  110 1
   110  114   56 1
   111  115  114 1
   112  116  114 1
   113   13   15 ar
   114   42   44 ar
   115   71   73 ar
   116   76   85 1
   117  100  102 ar
   118  105  114 1
@<TRIPOS>SUBSTRUCTURE
     1 RES1 1
     2 RES2 30

@<TRIPOS>CRYSIN
   8.1829   11.7024   11.8928  92.7170  98.8860  92.9520   2 1

