# MOL2 file generated by ConQuest
# Please check atom types

@<TRIPOS>MOLECULE
DIWSUY
    36    36     1
SMALL
NO_CHARGES
****
Generated from CSD

@<TRIPOS>ATOM
      1 N1         1.6919   -1.0084   -0.1382 N.am      1 RES1    0.0000
      2 H1         1.6023   -1.8199    0.1316 H         1 RES1    0.0000
      3 O1         1.3863    0.3077   -1.9326 O.2       1 RES1    0.0000
      4 C1         0.1686   -3.0506   -4.3538 C.3       1 RES1    0.0000
      5 H2        -0.0295   -2.8524   -5.2725 H         1 RES1    0.0000
      6 H3        -0.6174   -3.3992   -3.9259 H         1 RES1    0.0000
      7 H4         0.8717   -3.7030   -4.3129 H         1 RES1    0.0000
      8 N2         2.9221    3.5050    1.1675 N.pl3     1 RES1    0.0000
      9 O2         2.0441    4.2777    1.5091 O.2       1 RES1    0.0000
     10 C2         0.6134   -1.7773   -3.6440 C.3       1 RES1    0.0000
     11 H5         1.3895   -1.4138   -4.0973 H         1 RES1    0.0000
     12 H6        -0.0974   -1.1192   -3.6938 H         1 RES1    0.0000
     13 O3         3.8920    3.8182    0.5008 O.2       1 RES1    0.0000
     14 C3         0.9580   -2.0309   -2.1891 C.3       1 RES1    0.0000
     15 H7         0.1893   -2.4259   -1.7490 H         1 RES1    0.0000
     16 H8         1.6841   -2.6725   -2.1459 H         1 RES1    0.0000
     17 O4         3.3974    2.0312    5.1091 O.3       1 RES1    0.0000
     18 C4         1.3618   -0.7876   -1.4395 C.2       1 RES1    0.0000
     19 O5         3.8880    3.6893    3.7182 O.2       1 RES1    0.0000
     20 C5         2.1556   -0.1047    0.8226 C.ar      1 RES1    0.0000
     21 C6         2.3487    1.2459    0.5340 C.ar      1 RES1    0.0000
     22 H9         2.1897    1.5740   -0.3217 H         1 RES1    0.0000
     23 C7         2.7788    2.0849    1.5379 C.ar      1 RES1    0.0000
     24 C8         3.0307    1.6546    2.8358 C.ar      1 RES1    0.0000
     25 C9         2.8471    0.2949    3.0702 C.ar      1 RES1    0.0000
     26 H10        3.0214   -0.0334    3.9226 H         1 RES1    0.0000
     27 C10        2.4234   -0.5843    2.1084 C.ar      1 RES1    0.0000
     28 C11        2.2471   -2.0490    2.4378 C.3       1 RES1    0.0000
     29 H11        2.4845   -2.2015    3.3555 H         1 RES1    0.0000
     30 H12        2.8141   -2.5749    1.8695 H         1 RES1    0.0000
     31 H13        1.3314   -2.3001    2.2985 H         1 RES1    0.0000
     32 C12        3.4821    2.5879    3.9071 C.2       1 RES1    0.0000
     33 C13        3.8112    2.8472    6.2289 C.3       1 RES1    0.0000
     34 H14        3.7186    2.3454    7.0426 H         1 RES1    0.0000
     35 H15        3.2617    3.6330    6.2731 H         1 RES1    0.0000
     36 H16        4.7296    3.1049    6.1150 H         1 RES1    0.0000
@<TRIPOS>BOND
     1    1    2 1
     2    3   18 2
     3    4    5 1
     4    6    4 1
     5    7    4 1
     6    8    9 2
     7   10    4 1
     8   11   10 1
     9   12   10 1
    10   13    8 2
    11   14   10 1
    12   15   14 1
    13   16   14 1
    14   17   32 1
    15   18    1 1
    16   19   32 2
    17   20    1 1
    18   21   20 ar
    19   22   21 1
    20   23    8 1
    21   24   23 ar
    22   25   24 ar
    23   26   25 1
    24   27   20 ar
    25   28   27 1
    26   29   28 1
    27   30   28 1
    28   31   28 1
    29   32   24 1
    30   33   17 1
    31   34   33 1
    32   35   33 1
    33   36   33 1
    34   14   18 1
    35   21   23 ar
    36   25   27 ar
@<TRIPOS>SUBSTRUCTURE
     1 RES1 1

@<TRIPOS>CRYSIN
   7.6370    8.7880   11.3290  81.0600  78.4800  68.3900   2 1

