# MOL2 file generated by ConQuest
# Please check atom types

@<TRIPOS>MOLECULE
DIWWEL01
    84    87     3
SMALL
NO_CHARGES
****
Generated from CSD

@<TRIPOS>ATOM
      1 C1         1.0886    0.0356   12.8212 C.ar      1 RES1    0.0000
      2 C2         1.5474    0.3201   11.5726 C.ar      1 RES1    0.0000
      3 C3         1.2617    1.5758   11.0037 C.ar      1 RES1    0.0000
      4 C4         0.5834    2.5039   11.7331 C.ar      1 RES1    0.0000
      5 C5        -0.6269    3.1756   13.7818 C.ar      1 RES1    0.0000
      6 C6        -1.1143    2.8811   15.0068 C.ar      1 RES1    0.0000
      7 C7        -1.0020    1.5824   15.5285 C.ar      1 RES1    0.0000
      8 C8        -0.3481    0.5956   14.8298 C.ar      1 RES1    0.0000
      9 C9         0.2731    0.9190   13.5954 C.ar      1 RES1    0.0000
     10 C10        0.0758    2.2144   13.0218 C.ar      1 RES1    0.0000
     11 C11       -1.4028   -1.5254   14.6268 C.3       1 RES1    0.0000
     12 C12       -0.2981   -0.9868   16.6944 C.3       1 RES1    0.0000
     13 O1         2.4677   -1.0423   14.3412 O.2       1 RES1    0.0000
     14 O2         1.3369   -2.2773   12.9416 O.2       1 RES1    0.0000
     15 N1         1.6349   -1.1887   13.4349 N.pl3     1 RES1    0.0000
     16 N2        -0.2984   -0.7660   15.2452 N.3       1 RES1    0.0000
     17 H1         2.0461   -0.3392   11.0698 H         1 RES1    0.0000
     18 H2         1.6622    1.7785   10.0549 H         1 RES1    0.0000
     19 H3         0.4981    3.3750   11.4003 H         1 RES1    0.0000
     20 H4        -0.6566    4.0450   13.3593 H         1 RES1    0.0000
     21 H5        -1.6575    3.4991   15.6252 H         1 RES1    0.0000
     22 H6        -1.4277    1.3401   16.4041 H         1 RES1    0.0000
     23 H7        -1.3129   -2.5064   14.8935 H         1 RES1    0.0000
     24 H8        -1.2764   -1.4393   13.6898 H         1 RES1    0.0000
     25 H9        -2.5178   -1.2739   15.0588 H         1 RES1    0.0000
     26 H10        0.4378   -0.5542   17.0886 H         1 RES1    0.0000
     27 H11       -0.1474   -1.9522   16.9234 H         1 RES1    0.0000
     28 H12       -1.1978   -0.8107   17.1830 H         1 RES1    0.0000
     29 C13       -3.2276   -0.7610   11.2657 C.ar      2 RES2    0.0000
     30 C14       -3.8959   -0.3110   12.3609 C.ar      2 RES2    0.0000
     31 C15       -3.9463    1.0778   12.6158 C.ar      2 RES2    0.0000
     32 C16       -3.3660    1.9431   11.7567 C.ar      2 RES2    0.0000
     33 C17       -2.0640    2.3906    9.6961 C.ar      2 RES2    0.0000
     34 C18       -1.3890    1.9547    8.6080 C.ar      2 RES2    0.0000
     35 C19       -1.2492    0.5741    8.3744 C.ar      2 RES2    0.0000
     36 C20       -1.7809   -0.3516    9.2359 C.ar      2 RES2    0.0000
     37 C21       -2.5421    0.0794   10.3452 C.ar      2 RES2    0.0000
     38 C22       -2.6566    1.4881   10.6096 C.ar      2 RES2    0.0000
     39 C23       -0.3057   -2.2103    9.6230 C.3       2 RES2    0.0000
     40 C24       -1.7378   -2.2177    7.6734 C.3       2 RES2    0.0000
     41 O3        -4.1585   -2.6479   10.2791 O.2       2 RES2    0.0000
     42 O4        -2.5858   -2.9366   11.7472 O.2       2 RES2    0.0000
     43 N3        -3.3032   -2.2351   11.0533 N.pl3     2 RES2    0.0000
     44 N4        -1.6036   -1.7619    9.0565 N.3       2 RES2    0.0000
     45 H13       -4.3682   -0.8934   12.9345 H         2 RES2    0.0000
     46 H14       -4.4580    1.3732   13.4065 H         2 RES2    0.0000
     47 H15       -3.3709    2.8125   11.9431 H         2 RES2    0.0000
     48 H16       -2.1276    3.2923    9.9369 H         2 RES2    0.0000
     49 H17       -1.0060    2.5726    7.9778 H         2 RES2    0.0000
     50 H18       -0.7067    0.2812    7.6238 H         2 RES2    0.0000
     51 H19       -0.1487   -3.2095    9.6064 H         2 RES2    0.0000
     52 H20       -0.2951   -1.9605   10.5506 H         2 RES2    0.0000
     53 H21        0.5710   -1.8364    9.0636 H         2 RES2    0.0000
     54 H22       -2.5623   -1.9108    7.3406 H         2 RES2    0.0000
     55 H23       -1.7012   -3.2013    7.6238 H         2 RES2    0.0000
     56 H24       -0.9038   -1.9522    6.9865 H         2 RES2    0.0000
     57 C25        3.4767    2.0167   17.0272 C.ar      3 RES3    0.0000
     58 C26        2.6796    2.4659   16.0029 C.ar      3 RES3    0.0000
     59 C27        2.5376    3.8539   15.8117 C.ar      3 RES3    0.0000
     60 C28        3.1651    4.7274   16.6472 C.ar      3 RES3    0.0000
     61 C29        4.6636    5.1849   18.5614 C.ar      3 RES3    0.0000
     62 C30        5.4984    4.7374   19.5481 C.ar      3 RES3    0.0000
     63 C31        5.6613    3.3518   19.7652 C.ar      3 RES3    0.0000
     64 C32        5.0138    2.4287   18.9934 C.ar      3 RES3    0.0000
     65 C33        4.1615    2.8696   17.9242 C.ar      3 RES3    0.0000
     66 C34        3.9953    4.2650   17.7141 C.ar      3 RES3    0.0000
     67 C35        4.6878    0.5931   20.5370 C.3       3 RES3    0.0000
     68 C36        6.4737    0.5087   18.8990 C.3       3 RES3    0.0000
     69 O5         4.4827   -0.0099   16.5033 O.2       3 RES3    0.0000
     70 O6         2.7199   -0.0438   17.7755 O.2       3 RES3    0.0000
     71 N5         3.5847    0.5294   17.1287 N.pl3     3 RES3    0.0000
     72 N6         5.1347    1.0092   19.2153 N.3       3 RES3    0.0000
     73 H25        2.2438    1.8033   15.3656 H         3 RES3    0.0000
     74 H26        1.8911    4.1856   15.0588 H         3 RES3    0.0000
     75 H27        3.1025    5.6911   16.4985 H         3 RES3    0.0000
     76 H28        4.5117    6.1709   18.3632 H         3 RES3    0.0000
     77 H29        5.9873    5.3189   20.1570 H         3 RES3    0.0000
     78 H30        6.2406    3.0606   20.4639 H         3 RES3    0.0000
     79 H31        4.5938   -0.4219   20.5819 H         3 RES3    0.0000
     80 H32        3.7092    0.8437   20.7707 H         3 RES3    0.0000
     81 H33        5.1113    0.8934   21.2428 H         3 RES3    0.0000
     82 H34        6.4993   -0.4467   18.8588 H         3 RES3    0.0000
     83 H35        7.1162    0.8107   19.5197 H         3 RES3    0.0000
     84 H36        6.7891    0.8520   17.9619 H         3 RES3    0.0000
@<TRIPOS>BOND
     1    1    2 ar
     2    2    3 ar
     3    3    4 ar
     4    4   10 ar
     5    5    6 ar
     6    6    7 ar
     7    7    8 ar
     8    8    9 ar
     9    9    1 ar
    10   10    5 ar
    11   11   16 1
    12   12   16 1
    13   13   15 2
    14   14   15 2
    15   15    1 1
    16   16    8 1
    17   17    2 1
    18   18    3 1
    19   19    4 1
    20   20    5 1
    21   21    6 1
    22   22    7 1
    23   23   11 1
    24   24   11 1
    25   25   11 1
    26   26   12 1
    27   27   12 1
    28   28   12 1
    29   29   30 ar
    30   30   31 ar
    31   31   32 ar
    32   32   38 ar
    33   33   34 ar
    34   34   35 ar
    35   35   36 ar
    36   36   37 ar
    37   37   29 ar
    38   38   33 ar
    39   39   44 1
    40   40   44 1
    41   41   43 2
    42   42   43 2
    43   43   29 1
    44   44   36 1
    45   45   30 1
    46   46   31 1
    47   47   32 1
    48   48   33 1
    49   49   34 1
    50   50   35 1
    51   51   39 1
    52   52   39 1
    53   53   39 1
    54   54   40 1
    55   55   40 1
    56   56   40 1
    57   57   58 ar
    58   58   59 ar
    59   59   60 ar
    60   60   66 ar
    61   61   62 ar
    62   62   63 ar
    63   63   64 ar
    64   64   65 ar
    65   65   57 ar
    66   66   61 ar
    67   67   72 1
    68   68   72 1
    69   69   71 2
    70   70   71 2
    71   71   57 1
    72   72   64 1
    73   73   58 1
    74   74   59 1
    75   75   60 1
    76   76   61 1
    77   77   62 1
    78   78   63 1
    79   79   67 1
    80   80   67 1
    81   81   67 1
    82   82   68 1
    83   83   68 1
    84   84   68 1
    85    9   10 ar
    86   37   38 ar
    87   65   66 ar
@<TRIPOS>SUBSTRUCTURE
     1 RES1 1
     2 RES2 29
     3 RES3 57

@<TRIPOS>CRYSIN
  33.1500    8.2720   26.0900  90.0000 115.2200  90.0000  15 1

