# MOL2 file generated by ConQuest
# Please check atom types

@<TRIPOS>MOLECULE
DIWWEL
    28    29     1
SMALL
NO_CHARGES
****
Generated from CSD

@<TRIPOS>ATOM
      1 C1        -0.0130   -2.0423  -16.4580 C.ar      1 RES1    0.0000
      2 C2         0.3624   -2.3846  -17.7341 C.ar      1 RES1    0.0000
      3 C3         1.7102   -2.1964  -18.1138 C.ar      1 RES1    0.0000
      4 C4         2.6324   -1.7756  -17.1974 C.ar      1 RES1    0.0000
      5 C5         3.1895   -0.9485  -14.9218 C.ar      1 RES1    0.0000
      6 C6         2.7769   -0.5059  -13.6926 C.ar      1 RES1    0.0000
      7 C7         1.4044   -0.4106  -13.3865 C.ar      1 RES1    0.0000
      8 C8         0.4416   -0.8395  -14.2857 C.ar      1 RES1    0.0000
      9 C9         0.8627   -1.4391  -15.5161 C.ar      1 RES1    0.0000
     10 C10        2.2422   -1.3918  -15.8812 C.ar      1 RES1    0.0000
     11 C11       -1.4766    0.4731  -14.8668 C.3       1 RES1    0.0000
     12 C12       -1.3962   -0.6003  -12.7019 C.3       1 RES1    0.0000
     13 O1        -1.3901   -3.3658  -15.1661 O.2       1 RES1    0.0000
     14 O2        -2.3302   -2.1092  -16.6675 O.2       1 RES1    0.0000
     15 N1        -1.3493   -2.5147  -16.0478 N.pl3     1 RES1    0.0000
     16 N2        -0.9568   -0.6614  -14.0940 N.3       1 RES1    0.0000
     17 H1        -0.2592   -2.7546  -18.3256 H         1 RES1    0.0000
     18 H2         1.9489   -2.4566  -19.0133 H         1 RES1    0.0000
     19 H3         3.5934   -1.6934  -17.4145 H         1 RES1    0.0000
     20 H4         4.0972   -0.9448  -15.1625 H         1 RES1    0.0000
     21 H5         3.4283   -0.2180  -13.0480 H         1 RES1    0.0000
     22 H6         1.1146    0.0218  -12.6010 H         1 RES1    0.0000
     23 H7        -2.4242    0.5451  -14.8186 H         1 RES1    0.0000
     24 H8        -1.2428    0.3561  -15.8157 H         1 RES1    0.0000
     25 H9        -1.1108    1.2864  -14.5264 H         1 RES1    0.0000
     26 H10       -1.0127   -1.3373  -12.1712 H         1 RES1    0.0000
     27 H11       -2.3479   -0.6759  -12.7042 H         1 RES1    0.0000
     28 H12       -1.1302    0.2616  -12.2400 H         1 RES1    0.0000
@<TRIPOS>BOND
     1    1    2 ar
     2    2    3 ar
     3    3    4 ar
     4    4   10 ar
     5    5    6 ar
     6    6    7 ar
     7    7    8 ar
     8    8    9 ar
     9    9    1 ar
    10   10    5 ar
    11   11   16 1
    12   12   16 1
    13   13   15 2
    14   14   15 2
    15   15    1 1
    16   16    8 1
    17   17    2 1
    18   18    3 1
    19   19    4 1
    20   20    5 1
    21   21    6 1
    22   22    7 1
    23   23   11 1
    24   24   11 1
    25   25   11 1
    26   26   12 1
    27   27   12 1
    28   28   12 1
    29    9   10 ar
@<TRIPOS>SUBSTRUCTURE
     1 RES1 1

@<TRIPOS>CRYSIN
   8.3730    7.2680   17.3110  90.0000  96.7500  90.0000  14 1

