# MOL2 file generated by ConQuest
# Please check atom types

@<TRIPOS>MOLECULE
DIWWEL02
    84    87     3
SMALL
NO_CHARGES
****
Generated from CSD

@<TRIPOS>ATOM
      1 C1         0.6997   20.1077    0.4241 C.ar      1 RES1    0.0000
      2 C2         1.1028   20.8635   -0.6143 C.ar      1 RES1    0.0000
      3 C3         2.4484   20.8404   -1.0100 C.ar      1 RES1    0.0000
      4 C4         3.3294   20.0446   -0.3445 C.ar      1 RES1    0.0000
      5 C5         3.8414   18.4130    1.4047 C.ar      1 RES1    0.0000
      6 C6         3.4405   17.6150    2.4062 C.ar      1 RES1    0.0000
      7 C7         2.1086   17.5940    2.8246 C.ar      1 RES1    0.0000
      8 C8         1.1712   18.4066    2.2282 C.ar      1 RES1    0.0000
      9 C9         1.5532   19.2424    1.1520 C.ar      1 RES1    0.0000
     10 C10        2.9335   19.2509    0.7307 C.ar      1 RES1    0.0000
     11 C11       -0.8550   17.1771    2.4043 C.3       1 RES1    0.0000
     12 C12       -0.3820   18.9498    3.9566 C.3       1 RES1    0.0000
     13 O1        -1.0775   21.0572    1.4861 O.2       1 RES1    0.0000
     14 O2        -1.4746   19.4298    0.1164 O.2       1 RES1    0.0000
     15 N1        -0.7501   20.1919    0.7289 N.pl3     1 RES1    0.0000
     16 N2        -0.1906   18.4108    2.6390 N.3       1 RES1    0.0000
     17 H1         0.4754   21.5372   -0.9750 H         1 RES1    0.0000
     18 H2         2.6480   21.3688   -1.7890 H         1 RES1    0.0000
     19 H3         4.2186   20.0846   -0.5774 H         1 RES1    0.0000
     20 H4         4.6455   18.4845    1.1737 H         1 RES1    0.0000
     21 H5         4.0930   17.0740    2.8870 H         1 RES1    0.0000
     22 H6         1.8030   17.1371    3.6159 H         1 RES1    0.0000
     23 H7        -0.8146   16.9666    1.3413 H         1 RES1    0.0000
     24 H8        -0.3345   16.3982    2.9410 H         1 RES1    0.0000
     25 H9        -1.8871   17.1792    2.7119 H         1 RES1    0.0000
     26 H10        0.1886   18.3561    4.6543 H         1 RES1    0.0000
     27 H11       -0.1689   19.9667    3.9633 H         1 RES1    0.0000
     28 H12       -1.4140   18.9540    4.2662 H         1 RES1    0.0000
     29 C13        0.6661    4.0506    2.2538 C.ar      2 RES2    0.0000
     30 C14        1.0778    2.9516    1.5827 C.ar      2 RES2    0.0000
     31 C15        2.4142    2.5685    1.6489 C.ar      2 RES2    0.0000
     32 C16        3.2869    3.2695    2.3920 C.ar      2 RES2    0.0000
     33 C17        3.8029    5.1180    3.9065 C.ar      2 RES2    0.0000
     34 C18        3.3978    6.1980    4.6136 C.ar      2 RES2    0.0000
     35 C19        2.0644    6.6380    4.5653 C.ar      2 RES2    0.0000
     36 C20        1.1228    5.9580    3.8279 C.ar      2 RES2    0.0000
     37 C21        1.5150    4.8317    3.0688 C.ar      2 RES2    0.0000
     38 C22        2.8836    4.4001    3.1199 C.ar      2 RES2    0.0000
     39 C23       -0.9045    6.0612    5.0698 C.3       2 RES2    0.0000
     40 C24       -0.5060    7.6801    3.3414 C.3       2 RES2    0.0000
     41 O3        -0.9617    5.2317    1.1595 O.2       2 RES2    0.0000
     42 O4        -1.5767    3.8148    2.6864 O.2       2 RES2    0.0000
     43 N3        -0.7397    4.4190    2.0370 N.pl3     2 RES2    0.0000
     44 N4        -0.2611    6.3180    3.8128 N.3       2 RES2    0.0000
     45 H13        0.3619    2.3369    1.1359 H         2 RES2    0.0000
     46 H14        2.6238    1.8527    1.1075 H         2 RES2    0.0000
     47 H15        4.2163    3.0527    2.4327 H         2 RES2    0.0000
     48 H16        4.7626    4.7369    3.9282 H         2 RES2    0.0000
     49 H17        3.9491    6.7791    5.0736 H         2 RES2    0.0000
     50 H18        1.7470    7.4738    5.1209 H         2 RES2    0.0000
     51 H19       -0.8188    5.0064    5.2932 H         2 RES2    0.0000
     52 H20       -0.4019    6.6317    5.8384 H         2 RES2    0.0000
     53 H21       -1.9468    6.3327    5.0584 H         2 RES2    0.0000
     54 H22       -1.5678    7.7980    3.3679 H         2 RES2    0.0000
     55 H23       -0.1346    7.7033    2.3399 H         2 RES2    0.0000
     56 H24        0.0076    8.2949    3.9983 H         2 RES2    0.0000
     57 C25       -1.5693    7.6970    8.7586 C.ar      3 RES3    0.0000
     58 C26       -1.1301    6.6949    9.5527 C.ar      3 RES3    0.0000
     59 C27        0.2537    6.4970    9.7193 C.ar      3 RES3    0.0000
     60 C28        1.1423    7.2801    9.0823 C.ar      3 RES3    0.0000
     61 C29        1.6280    9.1412    7.5650 C.ar      3 RES3    0.0000
     62 C30        1.2175   10.1475    6.7623 C.ar      3 RES3    0.0000
     63 C31       -0.1372   10.3749    6.5862 C.ar      3 RES3    0.0000
     64 C32       -1.1056    9.6339    7.2204 C.ar      3 RES3    0.0000
     65 C33       -0.6896    8.5580    8.0515 C.ar      3 RES3    0.0000
     66 C34        0.7008    8.3159    8.2351 C.ar      3 RES3    0.0000
     67 C35       -2.9031   11.2255    7.4211 C.3       3 RES3    0.0000
     68 C36       -2.9951    9.5475    5.7428 C.3       3 RES3    0.0000
     69 O5        -3.5896    7.1454    7.8044 O.2       3 RES3    0.0000
     70 O6        -3.5994    8.4844    9.4846 O.2       3 RES3    0.0000
     71 N5        -3.0343    7.8065    8.6601 N.pl3     3 RES3    0.0000
     72 N6        -2.5199    9.8718    7.0585 N.3       3 RES3    0.0000
     73 H25       -1.7705    6.1475    9.9389 H         3 RES3    0.0000
     74 H26        0.4486    5.8527   10.3744 H         3 RES3    0.0000
     75 H27        2.0992    7.1370    9.0965 H         3 RES3    0.0000
     76 H28        2.5272    8.9896    7.7145 H         3 RES3    0.0000
     77 H29        1.8173   10.6528    6.3325 H         3 RES3    0.0000
     78 H30       -0.4648   10.9686    6.0959 H         3 RES3    0.0000
     79 H31       -2.6407   11.3939    8.4585 H         3 RES3    0.0000
     80 H32       -2.3628   11.9202    6.7992 H         3 RES3    0.0000
     81 H33       -3.9627   11.4044    7.3037 H         3 RES3    0.0000
     82 H34       -2.4608   10.1497    5.0244 H         3 RES3    0.0000
     83 H35       -2.7982    8.5012    5.5544 H         3 RES3    0.0000
     84 H36       -4.0545    9.7244    5.6226 H         3 RES3    0.0000
@<TRIPOS>BOND
     1    1    2 ar
     2    2    3 ar
     3    3    4 ar
     4    4   10 ar
     5    5    6 ar
     6    6    7 ar
     7    7    8 ar
     8    8    9 ar
     9    9    1 ar
    10   10    5 ar
    11   11   16 1
    12   12   16 1
    13   13   15 2
    14   14   15 2
    15   15    1 1
    16   16    8 1
    17   17    2 1
    18   18    3 1
    19   19    4 1
    20   20    5 1
    21   21    6 1
    22   22    7 1
    23   23   11 1
    24   24   11 1
    25   25   11 1
    26   26   12 1
    27   27   12 1
    28   28   12 1
    29   29   30 ar
    30   30   31 ar
    31   31   32 ar
    32   32   38 ar
    33   33   34 ar
    34   34   35 ar
    35   35   36 ar
    36   36   37 ar
    37   37   29 ar
    38   38   33 ar
    39   39   44 1
    40   40   44 1
    41   41   43 2
    42   42   43 2
    43   43   29 1
    44   44   36 1
    45   45   30 1
    46   46   31 1
    47   47   32 1
    48   48   33 1
    49   49   34 1
    50   50   35 1
    51   51   39 1
    52   52   39 1
    53   53   39 1
    54   54   40 1
    55   55   40 1
    56   56   40 1
    57   57   58 ar
    58   58   59 ar
    59   59   60 ar
    60   60   66 ar
    61   61   62 ar
    62   62   63 ar
    63   63   64 ar
    64   64   65 ar
    65   65   57 ar
    66   66   61 ar
    67   67   72 1
    68   68   72 1
    69   69   71 2
    70   70   71 2
    71   71   57 1
    72   72   64 1
    73   73   58 1
    74   74   59 1
    75   75   60 1
    76   76   61 1
    77   77   62 1
    78   78   63 1
    79   79   67 1
    80   80   67 1
    81   81   67 1
    82   82   68 1
    83   83   68 1
    84   84   68 1
    85    9   10 ar
    86   37   38 ar
    87   65   66 ar
@<TRIPOS>SUBSTRUCTURE
     1 RES1 1
     2 RES2 29
     3 RES3 57

