# MOL2 file generated by ConQuest
# Please check atom types

@<TRIPOS>MOLECULE
DIWXIS
    52    55     1
SMALL
NO_CHARGES
****
Generated from CSD

@<TRIPOS>ATOM
      1 C1        12.1244    2.8610    6.4351 C.3       1 RES1    0.0000
      2 H1        12.4985    2.2740    5.7458 H         1 RES1    0.0000
      3 N1        10.8743    2.2567    6.8894 N.am      1 RES1    0.0000
      4 C2         9.9896    3.1645    7.6119 C.3       1 RES1    0.0000
      5 H2        10.4693    3.5782    8.3460 H         1 RES1    0.0000
      6 H3         9.2384    2.6714    7.9764 H         1 RES1    0.0000
      7 C3         9.4938    4.2263    6.6616 C.3       1 RES1    0.0000
      8 H4         8.8482    3.8338    6.0532 H         1 RES1    0.0000
      9 H5         9.0440    4.9226    7.1657 H         1 RES1    0.0000
     10 C4        10.6200    4.8356    5.8676 C.ar      1 RES1    0.0000
     11 C5        11.8626    4.2058    5.7889 C.ar      1 RES1    0.0000
     12 C6        12.8755    4.8209    5.0612 C.ar      1 RES1    0.0000
     13 H6        13.7114    4.4167    5.0156 H         1 RES1    0.0000
     14 C7        12.6680    6.0157    4.4072 C.ar      1 RES1    0.0000
     15 H7        13.3612    6.4159    3.9324 H         1 RES1    0.0000
     16 C8        11.4347    6.6102    4.4596 C.ar      1 RES1    0.0000
     17 H8        11.2818    7.4050    4.0019 H         1 RES1    0.0000
     18 C9        10.4259    6.0316    5.1875 C.ar      1 RES1    0.0000
     19 H9         9.5950    6.4474    5.2261 H         1 RES1    0.0000
     20 C10       13.1795    2.9464    7.5996 C.3       1 RES1    0.0000
     21 H10       13.1153    3.8408    7.9965 H         1 RES1    0.0000
     22 C11       12.9194    1.9438    8.6851 C.2       1 RES1    0.0000
     23 H11       12.8758    1.0468    8.4448 H         1 RES1    0.0000
     24 C12       12.7522    2.2460    9.9413 C.2       1 RES1    0.0000
     25 H12       12.5861    1.5790   10.5912 H         1 RES1    0.0000
     26 H13       12.7213    3.1493   10.2124 H         1 RES1    0.0000
     27 C13       14.5932    2.7755    7.0708 C.ar      1 RES1    0.0000
     28 C14       15.5338    3.7792    7.1961 C.ar      1 RES1    0.0000
     29 H14       15.3029    4.5813    7.6067 H         1 RES1    0.0000
     30 C15       16.8195    3.5988    6.7132 C.ar      1 RES1    0.0000
     31 H15       17.4428    4.2837    6.7943 H         1 RES1    0.0000
     32 C16       17.1806    2.4228    6.1183 C.ar      1 RES1    0.0000
     33 H16       18.0454    2.3073    5.7970 H         1 RES1    0.0000
     34 C17       16.2674    1.4190    5.9970 C.ar      1 RES1    0.0000
     35 H17       16.5132    0.6162    5.5975 H         1 RES1    0.0000
     36 C18       14.9764    1.5885    6.4654 C.ar      1 RES1    0.0000
     37 H18       14.3591    0.8980    6.3734 H         1 RES1    0.0000
     38 C19       10.6803    0.9369    6.6944 C.2       1 RES1    0.0000
     39 O1        11.5108    0.2151    6.1555 O.2       1 RES1    0.0000
     40 C20        9.3929    0.3228    7.1687 C.ar      1 RES1    0.0000
     41 C21        8.1791    0.6176    6.5873 C.ar      1 RES1    0.0000
     42 H19        8.1221    1.2884    5.9452 H         1 RES1    0.0000
     43 C22        7.0441   -0.0839    6.9582 C.ar      1 RES1    0.0000
     44 H20        6.2242    0.0963    6.5582 H         1 RES1    0.0000
     45 C23        7.1499   -1.0461    7.9233 C.ar      1 RES1    0.0000
     46 C24        8.3337   -1.3506    8.5266 C.ar      1 RES1    0.0000
     47 H21        8.3796   -2.0062    9.1841 H         1 RES1    0.0000
     48 C25        9.4601   -0.6622    8.1370 C.ar      1 RES1    0.0000
     49 H22       10.2788   -0.8630    8.5308 H         1 RES1    0.0000
     50 N2         5.9403   -1.8015    8.3163 N.pl3     1 RES1    0.0000
     51 O2         6.0554   -2.6563    9.1837 O.2       1 RES1    0.0000
     52 O3         4.8991   -1.5407    7.7586 O.2       1 RES1    0.0000
@<TRIPOS>BOND
     1    1    2 1
     2    3    1 1
     3    4    3 1
     4    5    4 1
     5    6    4 1
     6    7    4 1
     7    8    7 1
     8    9    7 1
     9   10    7 1
    10   11    1 1
    11   12   11 ar
    12   13   12 1
    13   14   12 ar
    14   15   14 1
    15   16   14 ar
    16   17   16 1
    17   18   10 ar
    18   19   18 1
    19   20    1 1
    20   21   20 1
    21   22   20 1
    22   23   22 1
    23   24   22 2
    24   25   24 1
    25   26   24 1
    26   27   20 1
    27   28   27 ar
    28   29   28 1
    29   30   28 ar
    30   31   30 1
    31   32   30 ar
    32   33   32 1
    33   34   32 ar
    34   35   34 1
    35   36   27 ar
    36   37   36 1
    37   38    3 1
    38   39   38 2
    39   40   38 1
    40   41   40 ar
    41   42   41 1
    42   43   41 ar
    43   44   43 1
    44   45   43 ar
    45   46   45 ar
    46   47   46 1
    47   48   40 ar
    48   49   48 1
    49   50   45 1
    50   51   50 2
    51   52   50 2
    52   10   11 ar
    53   16   18 ar
    54   34   36 ar
    55   46   48 ar
@<TRIPOS>SUBSTRUCTURE
     1 RES1 1

@<TRIPOS>CRYSIN
  12.8758   17.5058   18.2986  90.0000  90.0000  90.0000  61 1

