# MOL2 file generated by ConQuest
# Please check atom types

@<TRIPOS>MOLECULE
DIXLIF
    32    32     1
SMALL
NO_CHARGES
****
Generated from CSD

@<TRIPOS>ATOM
      1 O1         5.7994    6.3142    0.0009 O.3       1 RES1    0.0000
      2 O2         3.4111    2.5803    5.1758 O.3       1 RES1    0.0000
      3 N1         4.9577    6.3193    1.1217 N.2       1 RES1    0.0000
      4 N2         3.3856    3.8650    4.5934 N.2       1 RES1    0.0000
      5 C1         4.5373    5.5724    3.3644 C.3       1 RES1    0.0000
      6 C2         5.3577    5.5615    2.0761 C.2       1 RES1    0.0000
      7 C3         6.5905    4.7024    2.0226 C.3       1 RES1    0.0000
      8 C4         6.2474    3.2409    2.3631 C.3       1 RES1    0.0000
      9 C5         5.6073    3.2115    3.7604 C.3       1 RES1    0.0000
     10 C6         4.4367    4.1455    3.9122 C.2       1 RES1    0.0000
     11 C7         5.3245    6.3968    4.4168 C.3       1 RES1    0.0000
     12 C8         3.1648    6.2275    3.1671 C.3       1 RES1    0.0000
     13 C9         7.5333    2.4082    2.4001 C.3       1 RES1    0.0000
     14 C10        5.2795    2.6691    1.3219 C.3       1 RES1    0.0000
     15 H1         5.3462    6.9718   -0.5659 H         1 RES1    0.0000
     16 H2         2.6330    2.6624    5.7700 H         1 RES1    0.0000
     17 H3         7.3235    5.0739    2.7272 H         1 RES1    0.0000
     18 H4         7.0230    4.7497    1.0304 H         1 RES1    0.0000
     19 H5         5.2805    2.2022    3.9746 H         1 RES1    0.0000
     20 H6         6.3618    3.4753    4.4924 H         1 RES1    0.0000
     21 H7         6.2952    5.9456    4.5758 H         1 RES1    0.0000
     22 H8         4.7739    6.4073    5.3508 H         1 RES1    0.0000
     23 H9         5.4498    7.4113    4.0611 H         1 RES1    0.0000
     24 H10        2.6163    6.2096    4.1015 H         1 RES1    0.0000
     25 H11        2.6075    5.6781    2.4146 H         1 RES1    0.0000
     26 H12        3.2928    7.2514    2.8426 H         1 RES1    0.0000
     27 H13        7.2889    1.3773    2.6410 H         1 RES1    0.0000
     28 H14        8.2002    2.8043    3.1522 H         1 RES1    0.0000
     29 H15        8.0148    2.4432    1.4307 H         1 RES1    0.0000
     30 H16        4.3729    3.2612    1.3075 H         1 RES1    0.0000
     31 H17        5.0380    1.6446    1.5774 H         1 RES1    0.0000
     32 H18        5.7451    2.6973    0.3445 H         1 RES1    0.0000
@<TRIPOS>BOND
     1    1    3 1
     2    2    4 1
     3    3    6 2
     4    4   10 2
     5    5    6 1
     6    6    7 1
     7    7    8 1
     8    8    9 1
     9    9   10 1
    10   10    5 1
    11   11    5 1
    12   12    5 1
    13   13    8 1
    14   14    8 1
    15   15    1 1
    16   16    2 1
    17   17    7 1
    18   18    7 1
    19   19    9 1
    20   20    9 1
    21   21   11 1
    22   22   11 1
    23   23   11 1
    24   24   12 1
    25   25   12 1
    26   26   12 1
    27   27   13 1
    28   28   13 1
    29   29   13 1
    30   30   14 1
    31   31   14 1
    32   32   14 1
@<TRIPOS>SUBSTRUCTURE
     1 RES1 1

@<TRIPOS>CRYSIN
   7.1363    7.2813   11.6544  87.8805  72.1948  82.7986   2 1

