# MOL2 file generated by ConQuest
# Please check atom types

@<TRIPOS>MOLECULE
DIXREH
    60    62     2
SMALL
NO_CHARGES
****
Generated from CSD

@<TRIPOS>ATOM
      1 C1         6.4272    5.9573    7.4539 C.3       1 RES1    0.0000
      2 C2         7.7518    6.6345    7.0496 C.3       1 RES1    0.0000
      3 C3         5.2256    6.8790    7.2417 C.3       1 RES1    0.0000
      4 C4         6.4687    5.3736    8.8788 C.ar      1 RES1    0.0000
      5 C5         6.6523    6.0590   10.0498 C.ar      1 RES1    0.0000
      6 C6         6.6457    5.3502   11.2543 C.ar      1 RES1    0.0000
      7 C7         6.5129    4.0343   11.2175 C.ar      1 RES1    0.0000
      8 C8         6.3568    3.3383   10.0816 C.ar      1 RES1    0.0000
      9 C9         6.3316    4.0027    8.8838 C.ar      1 RES1    0.0000
     10 C10        6.1750    3.4682    7.4789 C.3       1 RES1    0.0000
     11 C11        7.3039    2.5792    7.0746 C.3       1 RES1    0.0000
     12 C12        4.8020    2.8201    7.2367 C.3       1 RES1    0.0000
     13 N1         6.2320    4.7034    6.6954 N.3       1 RES1    0.0000
     14 O1         6.0721    4.7361    5.4576 O.2       1 RES1    0.0000
     15 H1         8.4551    6.1409    7.2166 H         1 RES1    0.0000
     16 H2         7.6967    6.8544    6.0640 H         1 RES1    0.0000
     17 H3         7.7758    7.5212    7.4672 H         1 RES1    0.0000
     18 H4         5.1945    7.1586    6.2143 H         1 RES1    0.0000
     19 H5         4.4303    6.5620    7.4338 H         1 RES1    0.0000
     20 H6         5.3097    7.8019    7.6009 H         1 RES1    0.0000
     21 H7         6.6711    7.1001   10.1233 H         1 RES1    0.0000
     22 H8         6.7432    5.8602   12.0778 H         1 RES1    0.0000
     23 H9         6.4432    3.5910   12.0611 H         1 RES1    0.0000
     24 H10        6.3930    2.2692   10.1233 H         1 RES1    0.0000
     25 H11        7.2449    2.2692    6.0640 H         1 RES1    0.0000
     26 H12        8.1693    2.8541    7.1665 H         1 RES1    0.0000
     27 H13        7.2661    1.6259    7.4672 H         1 RES1    0.0000
     28 H14        4.0829    3.3453    7.5842 H         1 RES1    0.0000
     29 H15        4.5601    2.5850    6.3313 H         1 RES1    0.0000
     30 H16        4.6752    1.9183    7.7178 H         1 RES1    0.0000
     31 C13        5.9082    1.2785    2.4039 C.3       2 RES2    0.0000
     32 C14        5.1812    2.5230    2.7647 C.3       2 RES2    0.0000
     33 C15        5.1527    0.5895    1.3047 C.3       2 RES2    0.0000
     34 C16        6.2110    0.4117    3.5766 C.ar      2 RES2    0.0000
     35 C17        5.2794   -0.2105    4.4052 C.ar      2 RES2    0.0000
     36 C18        5.7831   -0.9580    5.4643 C.ar      2 RES2    0.0000
     37 C19        7.1642   -1.0785    5.7065 C.ar      2 RES2    0.0000
     38 C20        8.0749   -0.4503    4.8946 C.ar      2 RES2    0.0000
     39 C21        7.6328    0.3111    3.8021 C.ar      2 RES2    0.0000
     40 C22        8.4070    1.0785    2.8031 C.3       2 RES2    0.0000
     41 C23        9.1455    2.2540    3.4079 C.3       2 RES2    0.0000
     42 C24        9.3545    0.2679    1.9946 C.3       2 RES2    0.0000
     43 N2         7.3137    1.5651    1.9261 N.3       2 RES2    0.0000
     44 O2         7.5381    2.2306    0.8904 O.2       2 RES2    0.0000
     45 H17        5.5899    3.0178    3.4413 H         2 RES2    0.0000
     46 H18        5.2043    3.2050    1.9545 H         2 RES2    0.0000
     47 H19        4.2401    2.4681    2.9067 H         2 RES2    0.0000
     48 H20        5.1545    1.0176    0.3174 H         2 RES2    0.0000
     49 H21        5.5454   -0.3392    0.9689 H         2 RES2    0.0000
     50 H22        4.1865    0.3392    1.3197 H         2 RES2    0.0000
     51 H23        4.4404   -0.1053    4.3935 H         2 RES2    0.0000
     52 H24        5.3140   -1.5674    6.0139 H         2 RES2    0.0000
     53 H25        7.6689   -1.7078    6.4315 H         2 RES2    0.0000
     54 H26        9.0288   -0.6550    4.9948 H         2 RES2    0.0000
     55 H27        9.4582    2.8892    2.6895 H         2 RES2    0.0000
     56 H28        8.5305    2.7839    3.9257 H         2 RES2    0.0000
     57 H29        9.8769    1.9768    3.8923 H         2 RES2    0.0000
     58 H30        8.9328   -0.5848    1.5202 H         2 RES2    0.0000
     59 H31        9.7716    0.6667    1.1527 H         2 RES2    0.0000
     60 H32       10.1645   -0.1872    2.3888 H         2 RES2    0.0000
@<TRIPOS>BOND
     1    1    2 1
     2    2   15 1
     3    3    1 1
     4    4    1 1
     5    5    4 ar
     6    6    5 ar
     7    7    6 ar
     8    8    7 ar
     9    9    4 ar
    10   10    9 1
    11   11   10 1
    12   12   10 1
    13   13    1 1
    14   14   13 1
    15   16    2 1
    16   17    2 1
    17   18    3 1
    18   19    3 1
    19   20    3 1
    20   21    5 1
    21   22    6 1
    22   23    7 1
    23   24    8 1
    24   25   11 1
    25   26   11 1
    26   27   11 1
    27   28   12 1
    28   29   12 1
    29   30   12 1
    30   31   32 1
    31   32   45 1
    32   33   31 1
    33   34   31 1
    34   35   34 ar
    35   36   35 ar
    36   37   36 ar
    37   38   37 ar
    38   39   34 ar
    39   40   39 1
    40   41   40 1
    41   42   40 1
    42   43   31 1
    43   44   43 1
    44   46   32 1
    45   47   32 1
    46   48   33 1
    47   49   33 1
    48   50   33 1
    49   51   35 1
    50   52   36 1
    51   53   37 1
    52   54   38 1
    53   55   41 1
    54   56   41 1
    55   57   41 1
    56   58   42 1
    57   59   42 1
    58   60   42 1
    59    8    9 ar
    60   10   13 1
    61   38   39 ar
    62   40   43 1
@<TRIPOS>SUBSTRUCTURE
     1 RES1 1
     2 RES2 31

@<TRIPOS>CRYSIN
  11.5850   11.6970   16.7530  90.0000  94.3300  90.0000   9 1

