# MOL2 file generated by ConQuest
# Please check atom types

@<TRIPOS>MOLECULE
DLARPY
    20    20     1
SMALL
NO_CHARGES
****
Generated from CSD

@<TRIPOS>ATOM
      1 O1        -2.3173    5.5531    2.3024 O.3       1 RES1    0.0000
      2 O2        -2.3035    4.1950    4.7108 O.3       1 RES1    0.0000
      3 O3         1.4600    3.1880    2.9035 O.3       1 RES1    0.0000
      4 O4        -0.8404    3.9994    1.3708 O.3       1 RES1    0.0000
      5 O5        -3.0784    2.0969    4.5476 O.2       1 RES1    0.0000
      6 O6         0.1260    3.0556    5.7919 O.2       1 RES1    0.0000
      7 O7         1.6584    4.5599    5.6791 O.2       1 RES1    0.0000
      8 O8         3.4347    3.8889    2.2085 O.2       1 RES1    0.0000
      9 N1         0.6409    4.0328    5.2779 N.pl3     1 RES1    0.0000
     10 C1        -1.8479    4.2273    2.3336 C.3       1 RES1    0.0000
     11 C2        -1.3062    3.9073    3.7180 C.3       1 RES1    0.0000
     12 C3        -0.0431    4.6830    4.0526 C.3       1 RES1    0.0000
     13 C4         0.9671    4.5702    2.9007 C.3       1 RES1    0.0000
     14 C5         0.3071    4.8453    1.5734 C.3       1 RES1    0.0000
     15 C6        -3.0834    5.8592    1.1369 C.3       1 RES1    0.0000
     16 C7        -0.2767    6.1401    4.4402 C.3       1 RES1    0.0000
     17 C8        -3.1473    3.1822    5.0399 C.2       1 RES1    0.0000
     18 C9        -4.1179    3.6334    6.0816 C.3       1 RES1    0.0000
     19 C10        2.7379    2.9923    2.4900 C.2       1 RES1    0.0000
     20 C11        3.1055    1.5687    2.3921 C.3       1 RES1    0.0000
@<TRIPOS>BOND
     1    1   10 1
     2    2   11 1
     3    3   13 1
     4    4   10 1
     5    5   17 2
     6    6    9 2
     7    7    9 2
     8    8   19 2
     9    9   12 1
    10   10   11 1
    11   11   12 1
    12   12   13 1
    13   13   14 1
    14   14    4 1
    15   15    1 1
    16   16   12 1
    17   17    2 1
    18   18   17 1
    19   19    3 1
    20   20   19 1
@<TRIPOS>SUBSTRUCTURE
     1 RES1 1

@<TRIPOS>CRYSIN
   8.9200   11.5090   13.7840  90.0000  99.3900  90.0000  14 1

