# MOL2 file generated by ConQuest
# Please check atom types

@<TRIPOS>MOLECULE
DMAOCD
    23    24     1
SMALL
NO_CHARGES
****
Generated from CSD

@<TRIPOS>ATOM
      1 C1         4.1121    3.7621    5.5184 C.2       1 RES1    0.0000
      2 C2         3.8910    5.0208    5.8131 C.2       1 RES1    0.0000
      3 C3         4.5060    5.9177    4.7600 C.3       1 RES1    0.0000
      4 C4         5.5240    4.9903    4.0752 C.3       1 RES1    0.0000
      5 C5         4.9403    3.5965    4.2789 C.3       1 RES1    0.0000
      6 N1         5.8696    2.4945    4.5880 N.2       1 RES1    0.0000
      7 N2         5.4013    1.8830    5.5964 N.pl3     1 RES1    0.0000
      8 C6         4.0763    2.4384    6.2046 C.3       1 RES1    0.0000
      9 O1         5.9179    0.8638    6.1078 O.2       1 RES1    0.0000
     10 C7         2.9688    1.5008    5.7538 C.3       1 RES1    0.0000
     11 C8         4.2115    2.4779    7.7171 C.3       1 RES1    0.0000
     12 H1         3.3932    5.3508    6.5585 H         1 RES1    0.0000
     13 H2         4.9510    6.7012    5.1428 H         1 RES1    0.0000
     14 H3         3.7782    6.2936    4.1316 H         1 RES1    0.0000
     15 H4         6.4283    5.0705    4.5360 H         1 RES1    0.0000
     16 H5         5.7568    5.2234    3.2070 H         1 RES1    0.0000
     17 H6         4.3601    3.2997    3.5248 H         1 RES1    0.0000
     18 H7         2.8471    1.4524    4.8539 H         1 RES1    0.0000
     19 H8         3.1156    0.5606    6.0962 H         1 RES1    0.0000
     20 H9         2.1129    1.7581    6.1973 H         1 RES1    0.0000
     21 H10        4.1990    1.5670    8.0898 H         1 RES1    0.0000
     22 H11        4.9689    2.9684    8.0175 H         1 RES1    0.0000
     23 H12        3.3484    2.9302    8.1187 H         1 RES1    0.0000
@<TRIPOS>BOND
     1    1    2 2
     2    2    3 1
     3    3    4 1
     4    4    5 1
     5    5    1 1
     6    6    5 1
     7    7    6 un
     8    8    1 1
     9    9    7 un
    10   10    8 1
    11   11    8 1
    12   12    2 1
    13   13    3 1
    14   14    3 1
    15   15    4 1
    16   16    4 1
    17   17    5 1
    18   18   10 1
    19   19   10 1
    20   20   10 1
    21   21   11 1
    22   22   11 1
    23   23   11 1
    24    7    8 1
@<TRIPOS>SUBSTRUCTURE
     1 RES1 1

@<TRIPOS>CRYSIN
   8.9530   12.7400   14.4460  90.0000  90.0000  90.0000  61 1

