# MOL2 file generated by ConQuest
# Please check atom types

@<TRIPOS>MOLECULE
DMBNBZ10
    47    47     2
SMALL
NO_CHARGES
****
Generated from CSD

@<TRIPOS>ATOM
      1 C1         0.8070    1.9822    5.1202 C.2       1 RES1    0.0000
      2 C2         1.1922    2.4904    6.4002 C.2       1 RES1    0.0000
      3 C3         0.3412    2.2985    7.4520 C.2       1 RES1    0.0000
      4 C4        -0.8912    1.6767    7.3241 C.2       1 RES1    0.0000
      5 C5        -1.2266    1.1962    6.0596 C.2       1 RES1    0.0000
      6 C6        -0.4090    1.3111    4.9397 C.2       1 RES1    0.0000
      7 C7         1.7389    2.2035    3.9883 C.2       1 RES1    0.0000
      8 C8         2.1352    1.8972    1.6756 C.2       1 RES1    0.0000
      9 H1        -0.7188    0.9100    4.1114 H         1 RES1    0.0000
     10 H2        -1.5414    1.5680    8.0077 H         1 RES1    0.0000
     11 H3         2.0107    2.9208    6.6452 H         1 RES1    0.0000
     12 N1         0.7777    2.8136    8.8157 N.2       1 RES1    0.0000
     13 N2        -2.5371    0.4835    5.8696 N.2       1 RES1    0.0000
     14 O1         1.2642    1.7408    2.8230 O.3       1 RES1    0.0000
     15 O2         2.8154    2.7633    4.1449 O.2       1 RES1    0.0000
     16 O3         1.8871    3.3286    8.9340 O.2       1 RES1    0.0000
     17 O4        -0.0088    2.7066    9.7348 O.2       1 RES1    0.0000
     18 O5        -3.2706    0.4300    6.8520 O.2       1 RES1    0.0000
     19 O6        -2.8254    0.0399    4.7604 O.2       1 RES1    0.0000
     20 C9         1.9814   -3.0173    4.7210 C.ar      2 RES2    0.0000
     21 C10        3.8467   -3.7120   -1.1223 C.3       2 RES2    0.0000
     22 C11        3.8340   -5.0937   -1.9398 C.3       2 RES2    0.0000
     23 C12        2.9690   -2.8119   -1.8956 C.3       2 RES2    0.0000
     24 C13        5.2261   -3.1277   -1.0577 C.3       2 RES2    0.0000
     25 C14        1.6532   -2.2025    5.8217 C.ar      2 RES2    0.0000
     26 C15        1.2420   -2.7824    6.9894 C.ar      2 RES2    0.0000
     27 C16        1.1204   -4.1508    7.1102 C.ar      2 RES2    0.0000
     28 C17        1.4468   -4.9286    5.9867 C.ar      2 RES2    0.0000
     29 C18        1.8851   -4.3942    4.8166 C.ar      2 RES2    0.0000
     30 C19        2.4556   -2.3561    3.4684 C.2       2 RES2    0.0000
     31 C20        3.1900   -2.7481    1.2310 C.3       2 RES2    0.0000
     32 C21        3.3130   -3.9758    0.3024 C.3       2 RES2    0.0000
     33 H4         1.7688   -1.4462    5.7608 H         2 RES2    0.0000
     34 H5         2.0254   -4.9845    4.1473 H         2 RES2    0.0000
     35 H6         4.2270   -2.3608    1.4820 H         2 RES2    0.0000
     36 H7         2.5386   -1.9038    0.8008 H         2 RES2    0.0000
     37 H8         0.8235   -4.5193    7.8165 H         2 RES2    0.0000
     38 H9         3.9079   -4.7848    0.8008 H         2 RES2    0.0000
     39 H10        2.4207   -4.4179    0.1195 H         2 RES2    0.0000
     40 N3         0.9227   -1.9183    8.2121 N.pl3     2 RES2    0.0000
     41 N4         1.3378   -6.3987    6.0954 N.pl3     2 RES2    0.0000
     42 O7         2.6858   -3.2589    2.4991 O.3       2 RES2    0.0000
     43 O8         2.6097   -1.1564    3.3752 O.2       2 RES2    0.0000
     44 O9         0.9519   -0.6996    8.0352 O.2       2 RES2    0.0000
     45 O10        0.7191   -2.4526    9.2328 O.2       2 RES2    0.0000
     46 O11        0.7462   -6.8772    7.0432 O.2       2 RES2    0.0000
     47 O12        1.8731   -7.0790    5.2206 O.2       2 RES2    0.0000
@<TRIPOS>BOND
     1    1    2 1
     2    2    3 1
     3    3    4 1
     4    4    5 1
     5    5    6 1
     6    6    1 1
     7    7    1 1
     8    8   14 1
     9    9    6 1
    10   10    4 1
    11   11    2 1
    12   12    3 1
    13   13    5 1
    14   14    7 1
    15   15    7 1
    16   16   12 1
    17   17   12 1
    18   18   13 1
    19   19   13 1
    20   20   25 ar
    21   21   22 1
    22   23   21 1
    23   24   21 1
    24   25   26 ar
    25   26   27 ar
    26   27   28 ar
    27   28   29 ar
    28   29   20 ar
    29   30   20 1
    30   31   32 1
    31   32   21 1
    32   33   25 1
    33   34   29 1
    34   35   31 1
    35   36   31 1
    36   37   27 1
    37   38   32 1
    38   39   32 1
    39   40   26 1
    40   41   28 1
    41   42   30 1
    42   43   30 2
    43   44   40 2
    44   45   40 2
    45   46   41 2
    46   47   41 2
    47   31   42 1
@<TRIPOS>SUBSTRUCTURE
     1 RES1 1
     2 RES2 20

@<TRIPOS>CRYSIN
  11.3470   11.9060   13.1980  95.0400 111.3200 109.0500   2 1

