# MOL2 file generated by ConQuest
# Please check atom types

@<TRIPOS>MOLECULE
DMEGLY01
    16    15     1
SMALL
NO_CHARGES
****
Generated from CSD

@<TRIPOS>ATOM
      1 C1         0.5792    0.3188   -0.3291 C.2       1 RES1    0.0000
      2 C2         1.5690   -0.5031   -1.0957 C.3       1 RES1    0.0000
      3 N1         0.6415    1.5914   -0.1821 N.2       1 RES1    0.0000
      4 O1         1.7452    2.1734   -0.8242 O.3       1 RES1    0.0000
      5 H1         2.0608   -1.1015   -0.5379 H         1 RES1    0.0000
      6 H2         1.1267   -1.1552   -1.6739 H         1 RES1    0.0000
      7 H3         2.2334   -0.0078   -1.5498 H         1 RES1    0.0000
      8 H4         1.6295    3.0038   -0.5793 H         1 RES1    0.0000
      9 C1A       -0.5792   -0.3188    0.3291 C.2       1 RES1    0.0000
     10 C2A       -1.5690    0.5031    1.0957 C.3       1 RES1    0.0000
     11 N1A       -0.6415   -1.5914    0.1821 N.2       1 RES1    0.0000
     12 H1A       -2.0608    1.1015    0.5379 H         1 RES1    0.0000
     13 H2A       -1.1267    1.1552    1.6739 H         1 RES1    0.0000
     14 H3A       -2.2334    0.0078    1.5498 H         1 RES1    0.0000
     15 O1A       -1.7452   -2.1734    0.8242 O.3       1 RES1    0.0000
     16 H4A       -1.6295   -3.0038    0.5793 H         1 RES1    0.0000
@<TRIPOS>BOND
     1    1    2 1
     2    2    5 1
     3    3    1 2
     4    4    3 1
     5    6    2 1
     6    7    2 1
     7    8    4 1
     8    9    1 1
     9   10    9 1
    10   11    9 2
    11   12   10 1
    12   13   10 1
    13   14   10 1
    14   15   11 1
    15   16   15 1
@<TRIPOS>SUBSTRUCTURE
     1 RES1 1

@<TRIPOS>CRYSIN
   6.0750    6.3140    4.4840 122.5000  91.6600  77.7500   2 1

