# MOL2 file generated by ConQuest
# Please check atom types

@<TRIPOS>MOLECULE
DMTOXA
    34    38     1
SMALL
NO_CHARGES
****
Generated from CSD

@<TRIPOS>ATOM
      1 C1         8.6503    3.2462    2.9598 C.3       1 RES1    0.0000
      2 C2         8.5592    1.7144    3.1130 C.3       1 RES1    0.0000
      3 C3         7.6428    1.4052    4.2595 C.2       1 RES1    0.0000
      4 C4         8.0978    1.9664    5.5780 C.3       1 RES1    0.0000
      5 C5         9.5003    1.4100    5.8710 C.3       1 RES1    0.0000
      6 C6        10.4473    1.7849    4.7506 C.3       1 RES1    0.0000
      7 C7         9.9768    1.1796    3.4112 C.3       1 RES1    0.0000
      8 C8        10.9254    1.5389    2.2774 C.3       1 RES1    0.0000
      9 C9        11.0070    3.0516    2.1301 C.3       1 RES1    0.0000
     10 C10       11.5017    3.6569    3.4538 C.3       1 RES1    0.0000
     11 C11       10.5385    3.3035    4.5847 C.3       1 RES1    0.0000
     12 C12        9.1363    3.8467    4.2827 C.3       1 RES1    0.0000
     13 C13        8.1772    3.4957    5.4210 C.3       1 RES1    0.0000
     14 C14        9.6254    3.6020    1.8155 C.3       1 RES1    0.0000
     15 N1         6.5799    0.7474    4.0159 N.2       1 RES1    0.0000
     16 O1         5.7764    0.5456    5.1647 O.3       1 RES1    0.0000
     17 H1         7.6764    3.6760    2.8043 H         1 RES1    0.0000
     18 H2         8.2527    1.3133    2.2998 H         1 RES1    0.0000
     19 H3         7.4843    1.7562    6.2783 H         1 RES1    0.0000
     20 H4         9.4601    0.3737    5.9510 H         1 RES1    0.0000
     21 H5         9.8245    1.8732    6.6603 H         1 RES1    0.0000
     22 H6        11.3091    1.4339    5.0062 H         1 RES1    0.0000
     23 H7         9.9190    0.1982    3.5233 H         1 RES1    0.0000
     24 H8        10.5934    1.1330    1.4089 H         1 RES1    0.0000
     25 H9        11.7876    1.2273    2.4478 H         1 RES1    0.0000
     26 H10       11.7187    3.2355    1.4336 H         1 RES1    0.0000
     27 H11       11.5768    4.6419    3.3148 H         1 RES1    0.0000
     28 H12       12.4364    3.3214    3.6444 H         1 RES1    0.0000
     29 H13       10.8500    3.7011    5.4278 H         1 RES1    0.0000
     30 H14        9.1630    4.8389    4.1669 H         1 RES1    0.0000
     31 H15        7.2603    3.8384    5.2439 H         1 RES1    0.0000
     32 H16        8.4273    3.9506    6.2582 H         1 RES1    0.0000
     33 H17        9.6106    4.5905    1.7422 H         1 RES1    0.0000
     34 H18        9.3096    3.2426    1.0157 H         1 RES1    0.0000
@<TRIPOS>BOND
     1    1    2 1
     2    2    3 1
     3    3    4 1
     4    4    5 1
     5    5    6 1
     6    6    7 1
     7    7    2 1
     8    8    7 1
     9    9    8 1
    10   10    9 1
    11   11    6 1
    12   12    1 1
    13   13    4 1
    14   14    1 1
    15   15    3 2
    16   16   15 1
    17   17    1 1
    18   18    2 1
    19   19    4 1
    20   20    5 1
    21   21    5 1
    22   22    6 1
    23   23    7 1
    24   24    8 1
    25   25    8 1
    26   26    9 1
    27   27   10 1
    28   28   10 1
    29   29   11 1
    30   30   12 1
    31   31   13 1
    32   32   13 1
    33   33   14 1
    34   34   14 1
    35    9   14 1
    36   10   11 1
    37   11   12 1
    38   12   13 1
@<TRIPOS>SUBSTRUCTURE
     1 RES1 1

@<TRIPOS>CRYSIN
  12.9030   11.9390    7.8220  90.0000 107.1500  90.0000 231 1

