# MOL2 file generated by ConQuest
# Please check atom types

@<TRIPOS>MOLECULE
DMTOXB
    35    39     1
SMALL
NO_CHARGES
****
Generated from CSD

@<TRIPOS>ATOM
      1 C1         4.2526    4.4308    4.6350 C.3       1 RES1    0.0000
      2 C2         3.4846    4.7655    3.3342 C.3       1 RES1    0.0000
      3 C3         2.0472    4.3777    3.5119 C.2       1 RES1    0.0000
      4 C4         1.8395    2.9301    3.8356 C.3       1 RES1    0.0000
      5 C5         2.4335    2.1000    2.6841 C.3       1 RES1    0.0000
      6 C6         3.9140    2.4432    2.5078 C.3       1 RES1    0.0000
      7 C7         4.0957    3.9294    2.1854 C.3       1 RES1    0.0000
      8 C8         5.5792    4.2822    2.0341 C.3       1 RES1    0.0000
      9 C9         6.3151    3.9354    3.3164 C.3       1 RES1    0.0000
     10 C10        6.1683    2.4553    3.6315 C.3       1 RES1    0.0000
     11 C11        4.6896    2.1290    3.8026 C.3       1 RES1    0.0000
     12 C12        4.0770    2.9470    4.9521 C.3       1 RES1    0.0000
     13 C13        2.5917    2.6196    5.1358 C.3       1 RES1    0.0000
     14 C14        5.7371    4.7776    4.4646 C.3       1 RES1    0.0000
     15 N1         1.0275    5.1232    3.3990 N.2       1 RES1    0.0000
     16 O1         1.3482    6.4620    3.0640 O.3       1 RES1    0.0000
     17 H1         3.9669    5.0084    5.3088 H         1 RES1    0.0000
     18 H2         3.4967    5.6681    3.1909 H         1 RES1    0.0000
     19 H3         0.9222    2.7295    3.9869 H         1 RES1    0.0000
     20 H4         2.3829    1.1068    2.9002 H         1 RES1    0.0000
     21 H5         1.8853    2.4081    1.7923 H         1 RES1    0.0000
     22 H6         4.2965    1.8934    1.6958 H         1 RES1    0.0000
     23 H7         3.5545    4.1433    1.4052 H         1 RES1    0.0000
     24 H8         5.5924    5.2501    1.8161 H         1 RES1    0.0000
     25 H9         5.9857    3.7494    1.2321 H         1 RES1    0.0000
     26 H10        7.2030    4.1807    3.2285 H         1 RES1    0.0000
     27 H11        6.6289    2.2354    4.5438 H         1 RES1    0.0000
     28 H12        6.4711    1.9260    2.8295 H         1 RES1    0.0000
     29 H13        4.6258    1.1866    3.9691 H         1 RES1    0.0000
     30 H14        4.5658    2.7803    5.7957 H         1 RES1    0.0000
     31 H15        2.4499    1.6493    5.4139 H         1 RES1    0.0000
     32 H16        2.2392    3.1416    5.8717 H         1 RES1    0.0000
     33 H17        5.7938    5.8482    4.1620 H         1 RES1    0.0000
     34 H18        6.2661    4.5166    5.3914 H         1 RES1    0.0000
     35 H19        0.4944    6.7133    3.0548 H         1 RES1    0.0000
@<TRIPOS>BOND
     1    1    2 1
     2    2    3 1
     3    3    4 1
     4    4    5 1
     5    5    6 1
     6    6    7 1
     7    7    2 1
     8    8    7 1
     9    9    8 1
    10   10    9 1
    11   11    6 1
    12   12    1 1
    13   13    4 1
    14   14    1 1
    15   15    3 2
    16   16   15 1
    17   17    1 1
    18   18    2 1
    19   19    4 1
    20   20    5 1
    21   21    5 1
    22   22    6 1
    23   23    7 1
    24   24    8 1
    25   25    8 1
    26   26    9 1
    27   27   10 1
    28   28   10 1
    29   29   11 1
    30   30   12 1
    31   31   13 1
    32   32   13 1
    33   33   14 1
    34   34   14 1
    35   35   16 1
    36    9   14 1
    37   10   11 1
    38   11   12 1
    39   12   13 1
@<TRIPOS>SUBSTRUCTURE
     1 RES1 1

@<TRIPOS>CRYSIN
  14.4070   12.0830    6.6160  90.0000  93.1000  90.0000 231 1

