# MOL2 file generated by ConQuest
# Please check atom types

@<TRIPOS>MOLECULE
DMTZOX
    19    19     1
SMALL
USER_CHARGES
****
Generated from CSD

@<TRIPOS>ATOM
      1 N1         4.9174    1.2644    1.4747 N.3       1 RES1    0.0000
      2 N2         5.2569    1.9924    2.6234 N.pl3     1 RES1    1.0000
      3 N3         5.2207    3.2630    2.6265 N.2       1 RES1    0.0000
      4 N4         4.8757    3.7984    1.3753 N.3       1 RES1    0.0000
      5 O1         5.4887    1.3461    3.6903 O.2       1 RES1   -1.0000
      6 C1         5.7454    3.2408    0.3280 C.3       1 RES1    0.0000
      7 C2         5.4732    1.7829    0.2101 C.3       1 RES1    0.0000
      8 C3         5.0596   -0.1758    1.6371 C.3       1 RES1    0.0000
      9 C4         4.9895    5.2528    1.4726 C.3       1 RES1    0.0000
     10 H1         5.5848    3.7034   -0.4905 H         1 RES1    0.0000
     11 H2         6.6891    3.4122    0.6157 H         1 RES1    0.0000
     12 H3         6.2771    1.2963    0.0062 H         1 RES1    0.0000
     13 H4         4.8323    1.5787   -0.4978 H         1 RES1    0.0000
     14 H5         4.7846   -0.5825    0.8072 H         1 RES1    0.0000
     15 H6         4.4997   -0.4528    2.3853 H         1 RES1    0.0000
     16 H7         6.0259   -0.4182    1.7530 H         1 RES1    0.0000
     17 H8         4.7988    5.6408    0.6126 H         1 RES1    0.0000
     18 H9         5.9018    5.4997    1.6578 H         1 RES1    0.0000
     19 H10        4.4013    5.5298    2.1753 H         1 RES1    0.0000
@<TRIPOS>BOND
     1    1    2 1
     2    2    3 2
     3    3    4 1
     4    4    6 1
     5    5    2 1
     6    6    7 1
     7    7    1 1
     8    8    1 1
     9    9    4 1
    10   10    6 1
    11   11    6 1
    12   12    7 1
    13   13    7 1
    14   14    8 1
    15   15    8 1
    16   16    8 1
    17   17    9 1
    18   18    9 1
    19   19    9 1
@<TRIPOS>SUBSTRUCTURE
     1 RES1 1

@<TRIPOS>CRYSIN
  14.3980    8.8790   10.3760  90.0000  94.1700  90.0000  15 1

