# MOL2 file generated by ConQuest
# Please check atom types

@<TRIPOS>MOLECULE
DMXZHX
    20    22     1
SMALL
NO_CHARGES
****
Generated from CSD

@<TRIPOS>ATOM
      1 C1         4.2033   -2.6215    4.8489 C.3       1 RES1    0.0000
      2 C2         3.5279   -3.8728    5.4912 C.3       1 RES1    0.0000
      3 C3         5.3872   -2.0949    5.6550 C.3       1 RES1    0.0000
      4 C4         2.7462   -1.6307    3.3376 C.3       1 RES1    0.0000
      5 C5         3.8132   -2.2818    2.4308 C.3       1 RES1    0.0000
      6 C6         4.7287   -1.3136    1.6751 C.3       1 RES1    0.0000
      7 C7         3.1644   -3.2896    1.5113 C.3       1 RES1    0.0000
      8 N1         4.6961   -2.9782    3.4635 N.3       1 RES1    0.0000
      9 O1         5.6316   -3.7766    3.2242 O.2       1 RES1    0.0000
     10 O2         3.2227   -1.6307    4.5970 O.3       1 RES1    0.0000
     11 C3B        3.0668   -3.5671    6.9396 C.3       1 RES1    0.0000
     12 C2B        4.9261   -1.7892    7.1033 C.3       1 RES1    0.0000
     13 C1B        4.2507   -3.0405    7.7457 C.3       1 RES1    0.0000
     14 N1B        3.7579   -2.6838    9.1311 N.3       1 RES1    0.0000
     15 O2B        5.2313   -4.0313    7.9976 O.3       1 RES1    0.0000
     16 C5B        4.6408   -3.3802   10.1638 C.3       1 RES1    0.0000
     17 O1B        2.8224   -1.8854    9.3704 O.2       1 RES1    0.0000
     18 C4B        5.7078   -4.0313    9.2570 C.3       1 RES1    0.0000
     19 C6B        3.7253   -4.3484   10.9195 C.3       1 RES1    0.0000
     20 C7B        5.2895   -2.3724   11.0832 C.3       1 RES1    0.0000
@<TRIPOS>BOND
     1    1    2 1
     2    2   11 1
     3    3    1 1
     4    4    5 1
     5    5    6 1
     6    7    5 1
     7    8    1 1
     8    9    8 1
     9   10    1 1
    10   11   13 1
    11   12    3 1
    12   13   12 1
    13   14   13 1
    14   15   13 1
    15   16   14 1
    16   17   14 1
    17   18   15 1
    18   19   16 1
    19   20   16 1
    20    4   10 1
    21    5    8 1
    22   16   18 1
@<TRIPOS>SUBSTRUCTURE
     1 RES1 1

@<TRIPOS>CRYSIN
  10.5390    5.6620   12.7660  90.0000  99.4000  90.0000  14 2

