# MOL2 file generated by ConQuest
# Please check atom types

@<TRIPOS>MOLECULE
DNBENZ15
    16    16     1
SMALL
NO_CHARGES
****
Generated from CSD

@<TRIPOS>ATOM
      1 C1         5.1519   11.4431    0.7296 C.ar      1 RES1    0.0000
      2 C2         6.3293   10.9034    1.2026 C.ar      1 RES1    0.0000
      3 H1         7.0054   11.4351    1.5569 H         1 RES1    0.0000
      4 C3         6.4491    9.5264    1.1204 C.ar      1 RES1    0.0000
      5 C4         5.4350    8.7222    0.6224 C.ar      1 RES1    0.0000
      6 H2         5.5378    7.7984    0.5878 H         1 RES1    0.0000
      7 C5         4.2660    9.3217    0.1764 C.ar      1 RES1    0.0000
      8 H3         3.5745    8.7940   -0.1540 H         1 RES1    0.0000
      9 C6         4.1238   10.6854    0.2194 C.ar      1 RES1    0.0000
     10 H4         3.3464   11.0895   -0.0905 H         1 RES1    0.0000
     11 N1         4.9829   12.8972    0.7836 N.pl3     1 RES1    0.0000
     12 N2         7.6927    8.9322    1.6098 N.pl3     1 RES1    0.0000
     13 O1         4.0294   13.3850    0.2019 O.2       1 RES1    0.0000
     14 O2         5.7927   13.5618    1.4052 O.2       1 RES1    0.0000
     15 O3         8.4645    9.6314    2.2242 O.2       1 RES1    0.0000
     16 O4         7.9124    7.7705    1.3231 O.2       1 RES1    0.0000
@<TRIPOS>BOND
     1    1    2 ar
     2    2    3 1
     3    4    2 ar
     4    5    4 ar
     5    6    5 1
     6    7    5 ar
     7    8    7 1
     8    9    1 ar
     9   10    9 1
    10   11    1 1
    11   12    4 1
    12   13   11 2
    13   14   11 2
    14   15   12 2
    15   16   12 2
    16    7    9 ar
@<TRIPOS>SUBSTRUCTURE
     1 RES1 1

@<TRIPOS>CRYSIN
  14.0840   13.2920    3.8020  90.0000  90.0000  90.0000  33 1

