# MOL2 file generated by ConQuest
# Please check atom types

@<TRIPOS>MOLECULE
DNBENZ13
    16    16     1
SMALL
NO_CHARGES
****
Generated from CSD

@<TRIPOS>ATOM
      1 C1         5.1277    8.4292    0.6592 C.ar      1 RES1    0.0000
      2 C2         6.3133    8.9831    1.1109 C.ar      1 RES1    0.0000
      3 H1         7.0021    8.4647    1.4585 H         1 RES1    0.0000
      4 C3         6.4067   10.3623    1.0117 C.ar      1 RES1    0.0000
      5 C4         5.3918   11.1637    0.5244 C.ar      1 RES1    0.0000
      6 H2         5.4929   12.0867    0.4791 H         1 RES1    0.0000
      7 C5         4.2150   10.5541    0.1036 C.ar      1 RES1    0.0000
      8 H3         3.5144   11.0751   -0.2180 H         1 RES1    0.0000
      9 C6         4.0787    9.1735    0.1612 C.ar      1 RES1    0.0000
     10 H4         3.2980    8.7609   -0.1300 H         1 RES1    0.0000
     11 N1         4.9785    6.9659    0.7105 N.pl3     1 RES1    0.0000
     12 N2         7.6647   10.9905    1.4611 N.pl3     1 RES1    0.0000
     13 O1         4.0357    6.4639    0.1222 O.2       1 RES1    0.0000
     14 O2         5.7973    6.3178    1.3500 O.2       1 RES1    0.0000
     15 O3         8.4295   10.3108    2.1244 O.2       1 RES1    0.0000
     16 O4         7.8747   12.1476    1.1276 O.2       1 RES1    0.0000
@<TRIPOS>BOND
     1    1    2 ar
     2    2    3 1
     3    4    2 ar
     4    5    4 ar
     5    6    5 1
     6    7    5 ar
     7    8    7 1
     8    9    1 ar
     9   10    9 1
    10   11    1 1
    11   12    4 1
    12   13   11 2
    13   14   11 2
    14   15   12 2
    15   16   12 2
    16    7    9 ar
@<TRIPOS>SUBSTRUCTURE
     1 RES1 1

@<TRIPOS>CRYSIN
  14.0520   13.2240    3.7140  90.0000  90.0000  90.0000  33 1

