# MOL2 file generated by ConQuest
# Please check atom types

@<TRIPOS>MOLECULE
DNBZPY01
    28    29     1
SMALL
NO_CHARGES
****
Generated from CSD

@<TRIPOS>ATOM
      1 C1         0.5187    1.2841    7.1401 C.ar      1 RES1    0.0000
      2 C2         0.7822    2.5894    7.5665 C.ar      1 RES1    0.0000
      3 C3         0.0101    3.6716    7.2079 C.ar      1 RES1    0.0000
      4 C4        -1.0557    3.4515    6.3627 C.ar      1 RES1    0.0000
      5 C5        -1.3747    2.1917    5.9062 C.ar      1 RES1    0.0000
      6 C6        -0.5999    1.1368    6.3160 C.ar      1 RES1    0.0000
      7 N1         1.9447    2.8975    8.4080 N.pl3     1 RES1    0.0000
      8 O1         2.9561    2.2130    8.2807 O.2       1 RES1    0.0000
      9 O2         1.8670    3.8431    9.1742 O.2       1 RES1    0.0000
     10 N2        -1.8506    4.5974    5.9220 N.pl3     1 RES1    0.0000
     11 O3        -1.6791    5.6685    6.4893 O.2       1 RES1    0.0000
     12 O4        -2.6433    4.4320    4.9999 O.2       1 RES1    0.0000
     13 C7         1.3269    0.0683    7.4995 C.3       1 RES1    0.0000
     14 C8         1.3031   -0.3020    8.9753 C.ar      1 RES1    0.0000
     15 C9         1.9025   -1.4799    9.3836 C.ar      1 RES1    0.0000
     16 C10        1.8251   -1.8365   10.7140 C.ar      1 RES1    0.0000
     17 C11        1.1537   -1.0276   11.5894 C.ar      1 RES1    0.0000
     18 C12        0.6008    0.1229   11.0959 C.ar      1 RES1    0.0000
     19 N3         0.6655    0.5085    9.8130 N.ar      1 RES1    0.0000
     20 H1         0.2051    4.5413    7.5334 H         1 RES1    0.0000
     21 H2        -2.1113    2.0566    5.3216 H         1 RES1    0.0000
     22 H3        -0.8351    0.2626    6.0252 H         1 RES1    0.0000
     23 H4         2.3575   -2.0323    8.7598 H         1 RES1    0.0000
     24 H5         2.2331   -2.6364   11.0198 H         1 RES1    0.0000
     25 H6         1.0736   -1.2552   12.5077 H         1 RES1    0.0000
     26 H7         0.1387    0.6860   11.7046 H         1 RES1    0.0000
     27 H8         2.3231    0.2201    7.1326 H         1 RES1    0.0000
     28 H9         0.9278   -0.7452    6.9495 H         1 RES1    0.0000
@<TRIPOS>BOND
     1    1    2 ar
     2    2    3 ar
     3    3    4 ar
     4    4    5 ar
     5    5    6 ar
     6    6    1 ar
     7    7    2 1
     8    8    7 2
     9    9    7 2
    10   10    4 1
    11   11   10 2
    12   12   10 2
    13   13    1 1
    14   14   13 1
    15   15   14 ar
    16   16   15 ar
    17   17   16 ar
    18   18   17 ar
    19   19   14 ar
    20   20    3 1
    21   21    5 1
    22   22    6 1
    23   23   15 1
    24   24   16 1
    25   25   17 1
    26   26   18 1
    27   27   13 1
    28   28   13 1
    29   18   19 ar
@<TRIPOS>SUBSTRUCTURE
     1 RES1 1

@<TRIPOS>CRYSIN
  10.1000   15.1780    7.6850  90.0000 101.4000  90.0000  14 1

