# MOL2 file generated by ConQuest
# Please check atom types

@<TRIPOS>MOLECULE
DNBZFX
    16    17     1
SMALL
USER_CHARGES
****
Generated from CSD

@<TRIPOS>ATOM
      1 C1         0.5861    2.6602    0.3405 C.2       1 RES1    0.0000
      2 C2        -0.0959    1.7300    1.1452 C.2       1 RES1    0.0000
      3 C3        -1.3309    1.3859    0.7180 C.2       1 RES1    0.0000
      4 C4        -1.8830    1.8324   -0.4890 C.2       1 RES1    0.0000
      5 C5        -1.0678    2.7625   -1.2071 C.2       1 RES1    0.0000
      6 C6         0.1918    3.1904   -0.8666 C.2       1 RES1    0.0000
      7 N1        -1.6679    3.3113   -2.4822 N.pl3     1 RES1    0.0000
      8 N2        -2.0970    0.4186    1.4670 N.pl3     1 RES1    0.0000
      9 N3         0.6832    1.4045    2.2284 N.2       1 RES1    0.0000
     10 N4         1.8217    2.9113    0.9595 N.pl3     1 RES1    1.0000
     11 O1        -0.8895    3.9903   -3.1693 O.2       1 RES1    0.0000
     12 O2        -2.8265    3.0508   -2.6741 O.2       1 RES1    0.0000
     13 O3        -3.1615    0.0279    1.0771 O.2       1 RES1    0.0000
     14 O4        -1.5573    0.0558    2.5317 O.2       1 RES1    0.0000
     15 O5         1.8949    2.1393    2.1356 O.3       1 RES1    0.0000
     16 O6         2.7867    3.5624    0.5881 O.2       1 RES1   -1.0000
@<TRIPOS>BOND
     1    1    2 1
     2    2    3 1
     3    3    4 2
     4    4    5 1
     5    5    6 2
     6    6    1 1
     7    7    5 1
     8    8    3 1
     9    9    2 2
    10   10    1 2
    11   11    7 2
    12   12    7 2
    13   13    8 2
    14   14    8 2
    15   15    9 1
    16   16   10 1
    17   10   15 1
@<TRIPOS>SUBSTRUCTURE
     1 RES1 1

@<TRIPOS>CRYSIN
   7.4000    9.7800    6.1900  90.0000  90.0000 108.0000   4 3

