# MOL2 file generated by ConQuest
# Please check atom types

@<TRIPOS>MOLECULE
DNBZIL01
    30    31     1
SMALL
NO_CHARGES
****
Generated from CSD

@<TRIPOS>ATOM
      1 O1         3.9390    0.5115    2.6706 O.2       1 RES1    0.0000
      2 O2        -2.0661    2.1245   -1.0215 O.2       1 RES1    0.0000
      3 O3         4.4906    4.8167    8.2859 O.2       1 RES1    0.0000
      4 N1        -0.8661    2.2664   -1.1995 N.pl3     1 RES1    0.0000
      5 N2         3.8299    3.8222    8.5525 N.pl3     1 RES1    0.0000
      6 O4        -0.3809    2.7749   -2.1968 O.2       1 RES1    0.0000
      7 C1         2.2880    1.0043    6.6967 C.ar      1 RES1    0.0000
      8 H1         1.7634    0.2555    6.8644 H         1 RES1    0.0000
      9 C2         1.7792    1.0190    1.8167 C.ar      1 RES1    0.0000
     10 O5         1.5719   -0.5948    4.4935 O.2       1 RES1    0.0000
     11 C3         0.4196    1.1415    2.0921 C.ar      1 RES1    0.0000
     12 H2         0.1002    0.9503    2.9449 H         1 RES1    0.0000
     13 C4         3.8467    3.2575    6.1684 C.ar      1 RES1    0.0000
     14 H3         4.3570    4.0173    6.0062 H         1 RES1    0.0000
     15 C5         2.2552    0.3890    4.3003 C.2       1 RES1    0.0000
     16 C6        -0.4539    1.5449    1.0990 C.ar      1 RES1    0.0000
     17 H4        -1.3653    1.6299    1.2681 H         1 RES1    0.0000
     18 C7         2.7534    0.6542    2.8763 C.2       1 RES1    0.0000
     19 O6         3.4580    3.5375    9.6745 O.2       1 RES1    0.0000
     20 C8         1.4051    1.6994   -0.4540 C.ar      1 RES1    0.0000
     21 H5         1.7191    1.8912   -1.3078 H         1 RES1    0.0000
     22 C9         3.4683    2.4198    5.1351 C.ar      1 RES1    0.0000
     23 H6         3.7344    2.6090    4.2646 H         1 RES1    0.0000
     24 C10        2.6633    1.8254    7.7379 C.ar      1 RES1    0.0000
     25 H7         2.4036    1.6416    8.6112 H         1 RES1    0.0000
     26 C11        2.6882    1.2933    5.3922 C.ar      1 RES1    0.0000
     27 C12        3.4397    2.9335    7.4470 C.ar      1 RES1    0.0000
     28 C13        0.0623    1.8193   -0.1488 C.ar      1 RES1    0.0000
     29 C14        2.2617    1.2920    0.5383 C.ar      1 RES1    0.0000
     30 H8         3.1691    1.1982    0.3584 H         1 RES1    0.0000
@<TRIPOS>BOND
     1    1   18 2
     2    2    4 2
     3    3    5 2
     4    4    6 2
     5    5   19 2
     6    7    8 1
     7    9   11 ar
     8   10   15 2
     9   11   12 1
    10   13   14 1
    11   15   18 1
    12   16   11 ar
    13   17   16 1
    14   18    9 1
    15   20   21 1
    16   22   13 ar
    17   23   22 1
    18   24    7 ar
    19   25   24 1
    20   26    7 ar
    21   27    5 1
    22   28    4 1
    23   29    9 ar
    24   30   29 1
    25   13   27 ar
    26   15   26 1
    27   16   28 ar
    28   20   28 ar
    29   20   29 ar
    30   22   26 ar
    31   24   27 ar
@<TRIPOS>SUBSTRUCTURE
     1 RES1 1

@<TRIPOS>CRYSIN
   7.1021    7.3989   13.2870  84.6470  86.1630  63.6940   2 1

