# MOL2 file generated by ConQuest
# Please check atom types

@<TRIPOS>MOLECULE
DNBZPY
    26    27     1
SMALL
NO_CHARGES
****
Generated from CSD

@<TRIPOS>ATOM
      1 C1         2.2883   -7.2950   -1.4356 C.ar      1 RES1    0.0000
      2 C2         4.6209  -11.0581    1.1527 C.ar      1 RES1    0.0000
      3 C3         4.9493   -9.8027    1.5963 C.ar      1 RES1    0.0000
      4 C4         4.1753   -8.7419    1.2003 C.ar      1 RES1    0.0000
      5 C5         1.6994   -6.1066   -1.8468 C.ar      1 RES1    0.0000
      6 C6         1.7733   -5.7448   -3.1745 C.ar      1 RES1    0.0000
      7 C7         2.4452   -6.5503   -4.0564 C.ar      1 RES1    0.0000
      8 C8         2.9945   -7.6963   -3.5638 C.ar      1 RES1    0.0000
      9 C9         2.2512   -7.6704    0.0309 C.3       1 RES1    0.0000
     10 C10        3.0591   -8.8984    0.3825 C.ar      1 RES1    0.0000
     11 C11        2.7752  -10.1948   -0.0324 C.ar      1 RES1    0.0000
     12 C12        3.5477  -11.2891    0.3214 C.ar      1 RES1    0.0000
     13 H1         1.2577   -5.4409   -1.1467 H         1 RES1    0.0000
     14 H2         1.2927   -4.9090   -3.5683 H         1 RES1    0.0000
     15 H3         2.4888   -6.2312   -5.0092 H         1 RES1    0.0000
     16 H4         3.4831   -8.2221   -4.3604 H         1 RES1    0.0000
     17 H5         3.3097  -12.1888    0.0453 H         1 RES1    0.0000
     18 H6         5.6090   -9.7723    2.0671 H         1 RES1    0.0000
     19 H7         4.5703   -7.8422    1.4334 H         1 RES1    0.0000
     20 N1         2.9337   -8.0914   -2.2836 N.ar      1 RES1    0.0000
     21 N2         1.5982  -10.4988   -0.8691 N.pl3     1 RES1    0.0000
     22 N3         5.4215  -12.2116    1.5888 N.pl3     1 RES1    0.0000
     23 O1         0.6006   -9.8179   -0.7227 O.2       1 RES1    0.0000
     24 O2         1.6805  -11.4304   -1.6438 O.2       1 RES1    0.0000
     25 O3         5.2463  -13.2861    1.0275 O.2       1 RES1    0.0000
     26 O4         6.2043  -12.0399    2.4918 O.2       1 RES1    0.0000
@<TRIPOS>BOND
     1    1    5 ar
     2    2    3 ar
     3    3    4 ar
     4    4   10 ar
     5    5    6 ar
     6    6    7 ar
     7    7    8 ar
     8    8   16 1
     9    9    1 1
    10   10    9 1
    11   11   10 ar
    12   12    2 ar
    13   13    5 1
    14   14    6 1
    15   15    7 1
    16   17   12 1
    17   18    3 1
    18   19    4 1
    19   20    1 ar
    20   21   11 1
    21   22    2 1
    22   23   21 2
    23   24   21 2
    24   25   22 2
    25   26   22 2
    26    8   20 ar
    27   11   12 ar
@<TRIPOS>SUBSTRUCTURE
     1 RES1 1

@<TRIPOS>CRYSIN
  10.2760   15.1980    7.7080  90.0000 101.8400  90.0000  14 1

