# MOL2 file generated by ConQuest
# Please check atom types

@<TRIPOS>MOLECULE
DNEIBA
    26    27     1
SMALL
NO_CHARGES
****
Generated from CSD

@<TRIPOS>ATOM
      1 C1         1.0431    4.1378   -3.1295 C.ar      1 RES1    0.0000
      2 C2        -0.1145    3.7161   -2.4510 C.ar      1 RES1    0.0000
      3 C3        -1.3888    3.9691   -2.9126 C.ar      1 RES1    0.0000
      4 C4        -1.5244    4.7114   -4.1029 C.ar      1 RES1    0.0000
      5 C5        -0.4382    5.1712   -4.7895 C.ar      1 RES1    0.0000
      6 C6         0.8363    4.8796   -4.3179 C.ar      1 RES1    0.0000
      7 C7         3.2953    4.5813   -2.0687 C.3       1 RES1    0.0000
      8 C8         2.5901    3.5738   -1.2494 C.3       1 RES1    0.0000
      9 C9        -2.5729    3.5639   -2.0624 C.2       1 RES1    0.0000
     10 H1         0.1062    3.2378   -1.6789 H         1 RES1    0.0000
     11 H2        -2.2803    1.6601   -2.3077 H         1 RES1    0.0000
     12 H3        -3.3498    2.0476   -1.4148 H         1 RES1    0.0000
     13 H4        -0.5876    5.6449   -5.6340 H         1 RES1    0.0000
     14 H5         3.0336    5.4738   -1.9618 H         1 RES1    0.0000
     15 H6         4.1096    4.5666   -2.3454 H         1 RES1    0.0000
     16 H7         1.9531    3.8575   -0.6791 H         1 RES1    0.0000
     17 H8         3.0207    2.7626   -0.9306 H         1 RES1    0.0000
     18 N1         2.2907    3.7064   -2.6919 N.3       1 RES1    0.0000
     19 N2         1.9344    5.2651   -5.2032 N.pl3     1 RES1    0.0000
     20 N3        -2.8457    4.9230   -4.7046 N.pl3     1 RES1    0.0000
     21 N4        -2.7231    2.2503   -1.9034 N.am      1 RES1    0.0000
     22 O1        -3.2637    4.4163   -1.5393 O.2       1 RES1    0.0000
     23 O2        -3.7279    4.1356   -4.4449 O.2       1 RES1    0.0000
     24 O3        -2.9871    5.8773   -5.4699 O.2       1 RES1    0.0000
     25 O4         3.0795    5.1558   -4.8121 O.2       1 RES1    0.0000
     26 O5         1.6558    5.6371   -6.3376 O.2       1 RES1    0.0000
@<TRIPOS>BOND
     1    1    2 ar
     2    2    3 ar
     3    3    4 ar
     4    4    5 ar
     5    5    6 ar
     6    6    1 ar
     7    7    8 1
     8    8   16 1
     9    9    3 1
    10   10    2 1
    11   11   21 1
    12   12   21 1
    13   13    5 1
    14   14    7 1
    15   15    7 1
    16   17    8 1
    17   18    1 1
    18   19    6 1
    19   20    4 1
    20   21    9 1
    21   22    9 2
    22   23   20 2
    23   24   20 2
    24   25   19 2
    25   26   19 2
    26    7   18 1
    27    8   18 1
@<TRIPOS>SUBSTRUCTURE
     1 RES1 1

@<TRIPOS>CRYSIN
   9.9450    8.9890    7.6330 116.5300  99.6400 110.8300   2 1

