# MOL2 file generated by ConQuest
# Please check atom types

@<TRIPOS>MOLECULE
DNITBZ03
    16    16     1
SMALL
NO_CHARGES
****
Generated from CSD

@<TRIPOS>ATOM
      1 O1         1.2666    2.5012    2.2012 O.2       1 RES1    0.0000
      2 O2         2.4175    2.6019    0.3682 O.2       1 RES1    0.0000
      3 N1         1.5274    2.1235    1.0649 N.pl3     1 RES1    0.0000
      4 C1         0.7328    1.0160    0.5104 C.ar      1 RES1    0.0000
      5 C2        -0.4022    0.6065    1.2020 C.ar      1 RES1    0.0000
      6 C3         1.1520    0.4353   -0.6792 C.ar      1 RES1    0.0000
      7 H1        -0.6897    1.0994    2.1129 H         1 RES1    0.0000
      8 H2         2.0413    0.7841   -1.1777 H         1 RES1    0.0000
      9 C3B       -1.1520   -0.4353    0.6792 C.ar      1 RES1    0.0000
     10 C2B        0.4022   -0.6065   -1.2020 C.ar      1 RES1    0.0000
     11 C1B       -0.7328   -1.0160   -0.5104 C.ar      1 RES1    0.0000
     12 H2B       -2.0413   -0.7841    1.1777 H         1 RES1    0.0000
     13 H1B        0.6897   -1.0994   -2.1129 H         1 RES1    0.0000
     14 N1B       -1.5274   -2.1235   -1.0649 N.pl3     1 RES1    0.0000
     15 O1B       -1.2666   -2.5012   -2.2012 O.2       1 RES1    0.0000
     16 O2B       -2.4175   -2.6019   -0.3682 O.2       1 RES1    0.0000
@<TRIPOS>BOND
     1    1    3 2
     2    2    3 2
     3    3    4 1
     4    4    5 ar
     5    5    7 1
     6    6    4 ar
     7    8    6 1
     8    9    5 ar
     9   10    6 ar
    10   11    9 ar
    11   12    9 1
    12   13   10 1
    13   14   11 1
    14   15   14 2
    15   16   14 2
    16   10   11 ar
@<TRIPOS>SUBSTRUCTURE
     1 RES1 1

@<TRIPOS>CRYSIN
  10.9410    5.3813    5.6684  90.0000  92.1160  90.0000 231 1

