# MOL2 file generated by ConQuest
# Please check atom types

@<TRIPOS>MOLECULE
DNITBZ02
    16    16     1
SMALL
NO_CHARGES
****
Generated from CSD

@<TRIPOS>ATOM
      1 O1         1.2672    2.4975    2.2062 O.2       1 RES1    0.0000
      2 O2         2.4166    2.6023    0.3666 O.2       1 RES1    0.0000
      3 N1         1.5290    2.1218    1.0666 N.pl3     1 RES1    0.0000
      4 C1         0.7322    1.0189    0.5091 C.ar      1 RES1    0.0000
      5 C2        -0.4007    0.6106    1.2022 C.ar      1 RES1    0.0000
      6 C3         1.1538    0.4364   -0.6806 C.ar      1 RES1    0.0000
      7 H1        -0.6681    1.0407    2.0313 H         1 RES1    0.0000
      8 H2         1.9285    0.7200   -1.1142 H         1 RES1    0.0000
      9 C3B       -1.1538   -0.4364    0.6806 C.ar      1 RES1    0.0000
     10 C2B        0.4007   -0.6106   -1.2022 C.ar      1 RES1    0.0000
     11 C1B       -0.7322   -1.0189   -0.5091 C.ar      1 RES1    0.0000
     12 H2B       -1.9285   -0.7200    1.1142 H         1 RES1    0.0000
     13 H1B        0.6681   -1.0407   -2.0313 H         1 RES1    0.0000
     14 N1B       -1.5290   -2.1218   -1.0666 N.pl3     1 RES1    0.0000
     15 O1B       -1.2672   -2.4975   -2.2062 O.2       1 RES1    0.0000
     16 O2B       -2.4166   -2.6023   -0.3666 O.2       1 RES1    0.0000
@<TRIPOS>BOND
     1    1    3 2
     2    2    3 2
     3    3    4 1
     4    4    5 ar
     5    5    7 1
     6    6    4 ar
     7    8    6 1
     8    9    5 ar
     9   10    6 ar
    10   11    9 ar
    11   12    9 1
    12   13   10 1
    13   14   11 1
    14   15   14 2
    15   16   14 2
    16   10   11 ar
@<TRIPOS>SUBSTRUCTURE
     1 RES1 1

@<TRIPOS>CRYSIN
  10.9410    5.3813    5.6684  90.0000  92.1160  90.0000 231 1

