# MOL2 file generated by ConQuest
# Please check atom types

@<TRIPOS>MOLECULE
DNITBZ12
    16    16     1
SMALL
NO_CHARGES
****
Generated from CSD

@<TRIPOS>ATOM
      1 N1         3.8479    0.5653    1.5653 N.pl3     1 RES1    0.0000
      2 O1         3.1169    0.0803    2.4236 O.2       1 RES1    0.0000
      3 O2         4.9951    0.1921    1.3452 O.2       1 RES1    0.0000
      4 C1         3.3171    1.6683    0.7488 C.ar      1 RES1    0.0000
      5 C2         2.1110    2.2448    1.1268 C.ar      1 RES1    0.0000
      6 C3         4.0506    2.0805   -0.3589 C.ar      1 RES1    0.0000
      7 H1         1.6319    1.9790    1.8557 H         1 RES1    0.0000
      8 H2         4.9259    1.6437   -0.5542 H         1 RES1    0.0000
      9 N1B        1.8157    4.8079   -1.5653 N.pl3     1 RES1    0.0000
     10 O1B        2.5467    5.2929   -2.4236 O.2       1 RES1    0.0000
     11 O2B        0.6685    5.1811   -1.3452 O.2       1 RES1    0.0000
     12 C1B        2.3464    3.7050   -0.7488 C.ar      1 RES1    0.0000
     13 C2B        3.5526    3.1285   -1.1268 C.ar      1 RES1    0.0000
     14 C3B        1.6130    3.2927    0.3589 C.ar      1 RES1    0.0000
     15 H1B        4.0317    3.3943   -1.8557 H         1 RES1    0.0000
     16 H2B        0.7377    3.7296    0.5542 H         1 RES1    0.0000
@<TRIPOS>BOND
     1    1    2 2
     2    3    1 2
     3    4    1 1
     4    5    4 ar
     5    6    4 ar
     6    7    5 1
     7    8    6 1
     8    9   10 2
     9   11    9 2
    10   12    9 1
    11   13    6 ar
    12   14    5 ar
    13   15   13 1
    14   16   14 1
    15   12   13 ar
    16   12   14 ar
@<TRIPOS>SUBSTRUCTURE
     1 RES1 1

@<TRIPOS>CRYSIN
   5.6636    5.3733   10.9161  90.0000  92.0201  90.0000 231 1

