# MOL2 file generated by ConQuest
# Please check atom types

@<TRIPOS>MOLECULE
DNITBZ
    12    12     1
SMALL
NO_CHARGES
****
Generated from CSD

@<TRIPOS>ATOM
      1 C1         0.7402    0.9859    0.4996 C.ar      1 RES1    0.0000
      2 C2        -0.3966    0.6379    1.1528 C.ar      1 RES1    0.0000
      3 C3         1.1380    0.3929   -0.6577 C.ar      1 RES1    0.0000
      4 N1         1.5491    2.1154    1.0489 N.pl3     1 RES1    0.0000
      5 O1         2.3856    2.5577    0.3314 O.2       1 RES1    0.0000
      6 O2         1.2738    2.5062    2.1515 O.2       1 RES1    0.0000
      7 C3B       -1.1380   -0.3929    0.6577 C.ar      1 RES1    0.0000
      8 C2B        0.3966   -0.6379   -1.1528 C.ar      1 RES1    0.0000
      9 C1B       -0.7402   -0.9859   -0.4996 C.ar      1 RES1    0.0000
     10 N1B       -1.5491   -2.1154   -1.0489 N.pl3     1 RES1    0.0000
     11 O1B       -2.3856   -2.5577   -0.3314 O.2       1 RES1    0.0000
     12 O2B       -1.2738   -2.5062   -2.1515 O.2       1 RES1    0.0000
@<TRIPOS>BOND
     1    1    2 ar
     2    2    7 ar
     3    3    1 ar
     4    4    1 1
     5    5    4 2
     6    6    4 2
     7    7    9 ar
     8    8    3 ar
     9    9    8 ar
    10   10    9 1
    11   11   10 2
    12   12   10 2
@<TRIPOS>SUBSTRUCTURE
     1 RES1 1

@<TRIPOS>CRYSIN
  11.0500    5.4200    5.6500  90.0000  92.3000  90.0000 231 1

