# MOL2 file generated by ConQuest
# Please check atom types

@<TRIPOS>MOLECULE
DNNAPH
    16    17     1
SMALL
NO_CHARGES
****
Generated from CSD

@<TRIPOS>ATOM
      1 C1         0.6161    0.2611    0.2825 C.ar      1 RES1    0.0000
      2 C2         0.9208    1.6157   -0.0616 C.ar      1 RES1    0.0000
      3 C3         0.0883    2.4806   -0.7570 C.ar      1 RES1    0.0000
      4 C4        -1.1710    1.9747   -1.1554 C.ar      1 RES1    0.0000
      5 C5         1.4592   -0.6691    0.9272 C.ar      1 RES1    0.0000
      6 N1         2.2196    2.2195    0.3332 N.pl3     1 RES1    0.0000
      7 O1         3.2225    1.5830    0.1014 O.2       1 RES1    0.0000
      8 O2         2.1773    3.2640    0.9815 O.2       1 RES1    0.0000
      9 C1B       -0.6161   -0.2611   -0.2825 C.ar      1 RES1    0.0000
     10 C5B       -1.4592    0.6691   -0.9272 C.ar      1 RES1    0.0000
     11 C4B        1.1710   -1.9747    1.1554 C.ar      1 RES1    0.0000
     12 C2B       -0.9208   -1.6157    0.0616 C.ar      1 RES1    0.0000
     13 C3B       -0.0883   -2.4806    0.7570 C.ar      1 RES1    0.0000
     14 N1B       -2.2196   -2.2195   -0.3332 N.pl3     1 RES1    0.0000
     15 O1B       -3.2225   -1.5830   -0.1014 O.2       1 RES1    0.0000
     16 O2B       -2.1773   -3.2640   -0.9815 O.2       1 RES1    0.0000
@<TRIPOS>BOND
     1    1    2 ar
     2    2    3 ar
     3    3    4 ar
     4    4   10 ar
     5    5    1 ar
     6    6    2 1
     7    7    6 2
     8    8    6 2
     9    9    1 ar
    10   10    9 ar
    11   11    5 ar
    12   12    9 ar
    13   13   11 ar
    14   14   12 1
    15   15   14 2
    16   16   14 2
    17   12   13 ar
@<TRIPOS>SUBSTRUCTURE
     1 RES1 1

@<TRIPOS>CRYSIN
   7.7600   16.3200    3.7000  90.0000 101.8000  90.0000  14 2

