# MOL2 file generated by ConQuest
# Please check atom types

@<TRIPOS>MOLECULE
DNNEPH10
    20    22     1
SMALL
NO_CHARGES
****
Generated from CSD

@<TRIPOS>ATOM
      1 C1         4.8151   -9.0564   -0.6376 C.ar      1 RES1    0.0000
      2 C2         2.5382   -8.7749    0.3279 C.ar      1 RES1    0.0000
      3 C3         5.1172   -7.7498   -0.2995 C.ar      1 RES1    0.0000
      4 C4         4.0845   -6.9550    0.3843 C.ar      1 RES1    0.0000
      5 C5         2.8412   -7.4316    0.7123 C.ar      1 RES1    0.0000
      6 C6         1.3309   -9.4834    0.4870 C.ar      1 RES1    0.0000
      7 C7         1.2442  -10.7916   -0.0214 C.ar      1 RES1    0.0000
      8 C8         2.3092  -11.5192   -0.7247 C.ar      1 RES1    0.0000
      9 C9         3.4754  -10.8555   -0.8391 C.ar      1 RES1    0.0000
     10 C10        3.5695   -9.5378   -0.3244 C.ar      1 RES1    0.0000
     11 H1         6.0850   -7.3612   -0.5481 H         1 RES1    0.0000
     12 H2         4.2756   -5.9123    0.6419 H         1 RES1    0.0000
     13 H3         2.2947   -6.6448    1.3020 H         1 RES1    0.0000
     14 H4         0.3800   -9.1987    0.9834 H         1 RES1    0.0000
     15 H5         0.3115  -11.2825    0.1058 H         1 RES1    0.0000
     16 H6         2.2157  -12.5427   -1.1444 H         1 RES1    0.0000
     17 N1         5.5300  -10.1263   -1.3654 N.pl3     1 RES1    0.0000
     18 N2         4.7341  -11.2090   -1.4903 N.pl3     1 RES1    0.0000
     19 O1         6.6994  -10.1455   -1.8746 O.2       1 RES1    0.0000
     20 O2         5.0996  -12.2772   -2.1201 O.2       1 RES1    0.0000
@<TRIPOS>BOND
     1    1    3 ar
     2    2    5 ar
     3    3    4 ar
     4    4    5 ar
     5    5   13 1
     6    6    2 ar
     7    7    6 ar
     8    8    7 ar
     9    9    8 ar
    10   10    1 ar
    11   11    3 1
    12   12    4 1
    13   14    6 1
    14   15    7 1
    15   16    8 1
    16   17    1 1
    17   18    9 1
    18   19   17 2
    19   20   18 2
    20    2   10 ar
    21    9   10 ar
    22   17   18 1
@<TRIPOS>SUBSTRUCTURE
     1 RES1 1

@<TRIPOS>CRYSIN
  13.1300   16.0100    3.8900  90.0000  90.0000  92.7000  14 3

