# MOL2 file generated by ConQuest
# Please check atom types

@<TRIPOS>MOLECULE
DNOPHL02
    17    17     1
SMALL
NO_CHARGES
****
Generated from CSD

@<TRIPOS>ATOM
      1 C1         3.9173    6.2100    2.5843 C.ar      1 RES1    0.0000
      2 O1         4.3627    5.0509    2.1013 O.3       1 RES1    0.0000
      3 H1         3.9998    4.8994    1.3589 H         1 RES1    0.0000
      4 C2         2.8253    6.9441    2.0938 C.ar      1 RES1    0.0000
      5 N1         2.0419    6.4473    0.9699 N.pl3     1 RES1    0.0000
      6 O2         1.0543    7.0777    0.6132 O.2       1 RES1    0.0000
      7 O3         2.4038    5.4072    0.4111 O.2       1 RES1    0.0000
      8 C3         2.4349    8.1491    2.6572 C.ar      1 RES1    0.0000
      9 H2         1.6957    8.6355    2.3112 H         1 RES1    0.0000
     10 C4         3.1527    8.6183    3.7322 C.ar      1 RES1    0.0000
     11 N2         2.7520    9.8712    4.3563 N.pl3     1 RES1    0.0000
     12 O4         3.4454   10.3232    5.2642 O.2       1 RES1    0.0000
     13 O5         1.7344   10.4268    3.9389 O.2       1 RES1    0.0000
     14 C5         4.2512    7.9253    4.2529 C.ar      1 RES1    0.0000
     15 H3         4.7338    8.2730    4.9924 H         1 RES1    0.0000
     16 C6         4.6193    6.7392    3.6792 C.ar      1 RES1    0.0000
     17 H4         5.3646    6.2646    4.0286 H         1 RES1    0.0000
@<TRIPOS>BOND
     1    1    2 1
     2    2    3 1
     3    4    1 ar
     4    5    4 1
     5    6    5 2
     6    7    5 2
     7    8    4 ar
     8    9    8 1
     9   10    8 ar
    10   11   10 1
    11   12   11 2
    12   13   11 2
    13   14   10 ar
    14   15   14 1
    15   16    1 ar
    16   17   16 1
    17   14   16 ar
@<TRIPOS>SUBSTRUCTURE
     1 RES1 1

@<TRIPOS>CRYSIN
   5.0907    6.1327   22.8380  90.0000  90.0000  90.0000  19 1

