# MOL2 file generated by ConQuest
# Please check atom types

@<TRIPOS>MOLECULE
DNOPHL
    17    17     1
SMALL
NO_CHARGES
****
Generated from CSD

@<TRIPOS>ATOM
      1 O1        -1.0850    2.1241    0.6672 O.3       1 RES1    0.0000
      2 O2        -0.7291    0.4323    2.6005 O.2       1 RES1    0.0000
      3 O3         0.9214    0.6135    3.9385 O.2       1 RES1    0.0000
      4 O4         4.2009    4.0461    3.3561 O.2       1 RES1    0.0000
      5 O5         4.1136    5.3591    1.6770 O.2       1 RES1    0.0000
      6 N1         0.3004    0.9877    2.9835 N.pl3     1 RES1    0.0000
      7 N2         3.6636    4.4458    2.3571 N.pl3     1 RES1    0.0000
      8 C1         0.0641    2.6191    1.1204 C.ar      1 RES1    0.0000
      9 C2         0.7761    2.1172    2.2202 C.ar      1 RES1    0.0000
     10 C3         1.9728    2.7144    2.6222 C.ar      1 RES1    0.0000
     11 C4         2.4253    3.8021    1.9266 C.ar      1 RES1    0.0000
     12 C5         1.7439    4.3133    0.8408 C.ar      1 RES1    0.0000
     13 C6         0.5788    3.7254    0.4439 C.ar      1 RES1    0.0000
     14 H1        -1.3006    1.2782    1.0129 H         1 RES1    0.0000
     15 H2         2.4241    2.3937    3.5246 H         1 RES1    0.0000
     16 H3         2.0760    5.0896    0.3669 H         1 RES1    0.0000
     17 H4         0.0794    3.9973   -0.2946 H         1 RES1    0.0000
@<TRIPOS>BOND
     1    1    8 1
     2    2    6 2
     3    3    6 2
     4    4    7 2
     5    5    7 2
     6    6    9 1
     7    7   11 1
     8    8    9 ar
     9    9   10 ar
    10   10   11 ar
    11   11   12 ar
    12   12   13 ar
    13   13    8 ar
    14   14    1 1
    15   15   10 1
    16   16   12 1
    17   17   13 1
@<TRIPOS>SUBSTRUCTURE
     1 RES1 1

@<TRIPOS>CRYSIN
   6.1060   23.2400    5.1680  90.0000  90.0000  90.0000  19 1

