# MOL2 file generated by ConQuest
# Please check atom types

@<TRIPOS>MOLECULE
DNOPHL03
    17    17     1
SMALL
NO_CHARGES
****
Generated from CSD

@<TRIPOS>ATOM
      1 O1         3.2684    4.1327    2.1002 O.3       1 RES1    0.0000
      2 H1         2.6181    4.3874    2.5292 H         1 RES1    0.0000
      3 C1         4.8105    2.2638    2.1213 C.ar      1 RES1    0.0000
      4 N1         4.9429   -0.6161    4.4380 N.pl3     1 RES1    0.0000
      5 O2         5.9496   -1.1572    4.0324 O.2       1 RES1    0.0000
      6 O3         4.2647   -1.0603    5.3497 O.2       1 RES1    0.0000
      7 C2         5.2181    1.0719    2.7081 C.ar      1 RES1    0.0000
      8 H2         5.9449    0.5966    2.3761 H         1 RES1    0.0000
      9 C3         3.4220    1.3040    4.3060 C.ar      1 RES1    0.0000
     10 H3         2.9606    0.9701    5.0422 H         1 RES1    0.0000
     11 C4         3.7133    2.9822    2.6086 C.ar      1 RES1    0.0000
     12 O4         6.5466    2.1200    0.6163 O.2       1 RES1    0.0000
     13 N2         5.5782    2.7482    0.9813 N.pl3     1 RES1    0.0000
     14 C5         3.0371    2.4691    3.7164 C.ar      1 RES1    0.0000
     15 H4         2.3082    2.9335    4.0584 H         1 RES1    0.0000
     16 O5         5.2067    3.7738    0.4288 O.2       1 RES1    0.0000
     17 C6         4.5166    0.6228    3.7892 C.ar      1 RES1    0.0000
@<TRIPOS>BOND
     1    1    2 1
     2    3    7 ar
     3    4    5 2
     4    6    4 2
     5    7    8 1
     6    9   10 1
     7   11    1 1
     8   12   13 2
     9   13    3 1
    10   14    9 ar
    11   15   14 1
    12   16   13 2
    13   17    4 1
    14    3   11 ar
    15    7   17 ar
    16    9   17 ar
    17   11   14 ar
@<TRIPOS>SUBSTRUCTURE
     1 RES1 1

@<TRIPOS>CRYSIN
   5.1731    6.0936   23.2040  90.0000  90.0000  90.0000  19 1

