# MOL2 file generated by ConQuest
# Please check atom types

@<TRIPOS>MOLECULE
DNPBUB
    63    64     1
SMALL
NO_CHARGES
****
Generated from CSD

@<TRIPOS>ATOM
      1 C1         2.9239    5.5909   -4.4439 C.ar      1 RES1    0.0000
      2 C2         2.2720    5.5520    0.3912 C.ar      1 RES1    0.0000
      3 C3         2.3403    4.3364   -0.2748 C.ar      1 RES1    0.0000
      4 C4         2.9086    4.1995   -1.5409 C.ar      1 RES1    0.0000
      5 C5         4.2988    7.7954   -1.9989 C.3       1 RES1    0.0000
      6 C6         3.7957    8.3795   -3.3290 C.3       1 RES1    0.0000
      7 C7         5.7481    7.3198   -2.1647 C.3       1 RES1    0.0000
      8 C8         4.2983    8.9625   -0.9894 C.3       1 RES1    0.0000
      9 C9         1.6042    5.7034    1.7754 C.3       1 RES1    0.0000
     10 C10        2.6456    6.2508    2.7767 C.3       1 RES1    0.0000
     11 C11        1.1099    4.3831    2.3186 C.3       1 RES1    0.0000
     12 C12        3.3322    5.5071   -5.7896 C.ar      1 RES1    0.0000
     13 C13        0.4621    6.7048    1.6517 C.3       1 RES1    0.0000
     14 C14        3.0819    2.7941   -2.1839 C.3       1 RES1    0.0000
     15 C15        2.1542    2.5913   -3.3895 C.3       1 RES1    0.0000
     16 C16        4.5405    2.5849   -2.5907 C.3       1 RES1    0.0000
     17 C17        2.7541    1.6872   -1.1625 C.3       1 RES1    0.0000
     18 C18        2.4593    5.8501   -6.8202 C.ar      1 RES1    0.0000
     19 C19        1.2043    6.2900   -6.5042 C.ar      1 RES1    0.0000
     20 C20        0.7537    6.3401   -5.1905 C.ar      1 RES1    0.0000
     21 C21        1.6183    5.9859   -4.1801 C.ar      1 RES1    0.0000
     22 C22        3.3637    5.3635   -2.1290 C.ar      1 RES1    0.0000
     23 C23        3.4700    6.6059   -1.4639 C.ar      1 RES1    0.0000
     24 C24        2.8787    6.6427   -0.2080 C.ar      1 RES1    0.0000
     25 H1         1.9360    3.5928    0.1191 H         1 RES1    0.0000
     26 H2         2.8701    8.4812   -3.3254 H         1 RES1    0.0000
     27 H3         5.7395    6.5741   -2.8124 H         1 RES1    0.0000
     28 H4         3.3208    9.3319   -0.8428 H         1 RES1    0.0000
     29 H5         3.0361    7.1848    2.4551 H         1 RES1    0.0000
     30 H6         1.8837    3.6964    2.3727 H         1 RES1    0.0000
     31 H7        -0.2249    5.9282    1.1817 H         1 RES1    0.0000
     32 H8         1.1678    2.6845   -3.0872 H         1 RES1    0.0000
     33 H9         4.7016    1.6945   -2.8490 H         1 RES1    0.0000
     34 H10        1.7753    1.6729   -1.0077 H         1 RES1    0.0000
     35 H11        4.0181    7.7944   -4.0857 H         1 RES1    0.0000
     36 H12        6.0924    6.9979   -1.2825 H         1 RES1    0.0000
     37 H13        4.6004    8.6815   -0.1466 H         1 RES1    0.0000
     38 H14        3.4766    5.5991    2.8857 H         1 RES1    0.0000
     39 H15        0.7058    4.4931    3.1605 H         1 RES1    0.0000
     40 H16        0.8634    7.5838    1.3650 H         1 RES1    0.0000
     41 H17        2.4415    3.2037   -4.1499 H         1 RES1    0.0000
     42 H18        4.2432    3.1484   -3.2338 H         1 RES1    0.0000
     43 H19        3.3490    1.8199   -0.2931 H         1 RES1    0.0000
     44 H20        2.7868    5.7627   -7.6310 H         1 RES1    0.0000
     45 H21        4.2954    9.1712   -3.4994 H         1 RES1    0.0000
     46 H22        6.3799    8.0586   -2.4093 H         1 RES1    0.0000
     47 H23        4.9081    9.6273   -1.3100 H         1 RES1    0.0000
     48 H24        2.2592    6.3020    3.6185 H         1 RES1    0.0000
     49 H25        0.2651    4.1678    1.7131 H         1 RES1    0.0000
     50 H26        0.0493    6.8121    2.4643 H         1 RES1    0.0000
     51 H27        2.1582    1.6430   -3.6369 H         1 RES1    0.0000
     52 H28        5.1900    2.8340   -1.8230 H         1 RES1    0.0000
     53 H29        2.9837    0.8359   -1.5482 H         1 RES1    0.0000
     54 H30       -0.1985    6.6110   -4.9835 H         1 RES1    0.0000
     55 H31        1.2987    5.9941   -3.3437 H         1 RES1    0.0000
     56 H32        2.9512    7.4434    0.1924 H         1 RES1    0.0000
     57 N1         4.6658    5.0626   -6.1836 N.pl3     1 RES1    0.0000
     58 N2         0.3048    6.7364   -7.5788 N.pl3     1 RES1    0.0000
     59 O1         4.8469    4.7763   -7.3507 O.2       1 RES1    0.0000
     60 O2         5.5490    5.0361   -5.3719 O.2       1 RES1    0.0000
     61 O3        -0.7927    7.1391   -7.2691 O.2       1 RES1    0.0000
     62 O4         0.7313    6.7163   -8.7202 O.2       1 RES1    0.0000
     63 O5         3.8235    5.2972   -3.4811 O.3       1 RES1    0.0000
@<TRIPOS>BOND
     1    1   12 ar
     2    2    3 ar
     3    3    4 ar
     4    4   14 1
     5    5    6 1
     6    6   26 1
     7    7    5 1
     8    8    5 1
     9    9    2 1
    10   10    9 1
    11   11    9 1
    12   12   18 ar
    13   13    9 1
    14   14   15 1
    15   15   32 1
    16   16   14 1
    17   17   14 1
    18   18   19 ar
    19   19   20 ar
    20   20   21 ar
    21   21    1 ar
    22   22    4 ar
    23   23    5 1
    24   24    2 ar
    25   25    3 1
    26   27    7 1
    27   28    8 1
    28   29   10 1
    29   30   11 1
    30   31   13 1
    31   33   16 1
    32   34   17 1
    33   35    6 1
    34   36    7 1
    35   37    8 1
    36   38   10 1
    37   39   11 1
    38   40   13 1
    39   41   15 1
    40   42   16 1
    41   43   17 1
    42   44   18 1
    43   45    6 1
    44   46    7 1
    45   47    8 1
    46   48   10 1
    47   49   11 1
    48   50   13 1
    49   51   15 1
    50   52   16 1
    51   53   17 1
    52   54   20 1
    53   55   21 1
    54   56   24 1
    55   57   12 1
    56   58   19 1
    57   59   57 2
    58   60   57 2
    59   61   58 2
    60   62   58 2
    61   63    1 1
    62   22   23 ar
    63   22   63 1
    64   23   24 ar
@<TRIPOS>SUBSTRUCTURE
     1 RES1 1

@<TRIPOS>CRYSIN
  12.1600   10.5640   10.6840 119.2300  96.0600  96.5500   2 1

