# MOL2 file generated by ConQuest
# Please check atom types

@<TRIPOS>MOLECULE
DNPETY
    20    21     1
SMALL
NO_CHARGES
****
Generated from CSD

@<TRIPOS>ATOM
      1 C1        -4.1795    5.3079    2.2981 C.2       1 RES1    0.0000
      2 C2        -3.3386    8.1596    2.4514 C.ar      1 RES1    0.0000
      3 C3        -3.1899    9.4894    2.7933 C.ar      1 RES1    0.0000
      4 C4        -2.5907    9.7957    3.9939 C.ar      1 RES1    0.0000
      5 C5        -2.1180    8.8206    4.8467 C.ar      1 RES1    0.0000
      6 C6        -2.2592    7.4966    4.4759 C.ar      1 RES1    0.0000
      7 C7        -3.0814    5.7053    2.9277 C.2       1 RES1    0.0000
      8 C8        -1.9929    4.7515    3.2507 C.ar      1 RES1    0.0000
      9 C9        -2.2769    3.4546    3.6849 C.ar      1 RES1    0.0000
     10 C10       -1.2691    2.5299    3.8884 C.ar      1 RES1    0.0000
     11 C11        0.0397    2.9292    3.6610 C.ar      1 RES1    0.0000
     12 C12        0.3557    4.2068    3.2713 C.ar      1 RES1    0.0000
     13 C13       -0.6583    5.1140    3.0669 C.ar      1 RES1    0.0000
     14 C14       -2.8829    7.1379    3.2861 C.ar      1 RES1    0.0000
     15 N1         1.1192    1.9483    3.8077 N.pl3     1 RES1    0.0000
     16 N2        -2.4488   11.2032    4.3779 N.pl3     1 RES1    0.0000
     17 O1         0.8322    0.7774    3.8893 O.2       1 RES1    0.0000
     18 O2         2.2714    2.3496    3.8316 O.2       1 RES1    0.0000
     19 O3        -2.6672   12.0620    3.5522 O.2       1 RES1    0.0000
     20 O4        -2.1184   11.4649    5.5076 O.2       1 RES1    0.0000
@<TRIPOS>BOND
     1    1    7 2
     2    2    3 ar
     3    3    4 ar
     4    4    5 ar
     5    5    6 ar
     6    6   14 ar
     7    7    8 1
     8    8    9 ar
     9    9   10 ar
    10   10   11 ar
    11   11   12 ar
    12   12   13 ar
    13   13    8 ar
    14   14    2 ar
    15   15   11 1
    16   16    4 1
    17   17   15 2
    18   18   15 2
    19   19   16 2
    20   20   16 2
    21    7   14 1
@<TRIPOS>SUBSTRUCTURE
     1 RES1 1

@<TRIPOS>CRYSIN
   7.9780   19.3860    8.3040  90.0000  97.1200  90.0000  14 1

