# MOL2 file generated by ConQuest
# Please check atom types

@<TRIPOS>MOLECULE
DNPMTA
    25    26     1
SMALL
NO_CHARGES
****
Generated from CSD

@<TRIPOS>ATOM
      1 C1        -0.0100   -0.2361    2.2113 C.3       1 RES1    0.0000
      2 C2         1.5928    1.5889    2.3583 C.3       1 RES1    0.0000
      3 C3         3.1262    0.1350    3.6606 C.3       1 RES1    0.0000
      4 C4         1.5322   -1.7024    3.6194 C.3       1 RES1    0.0000
      5 C5         0.8507    0.4672    4.3268 C.3       1 RES1    0.0000
      6 H1        -0.1303   -0.0083    1.2365 H         1 RES1    0.0000
      7 H2         1.1951    1.2923    4.8570 H         1 RES1    0.0000
      8 H3        -0.8462   -0.5550    2.5956 H         1 RES1    0.0000
      9 H4         1.3774    1.8142    1.4593 H         1 RES1    0.0000
     10 H5         1.8173    2.4024    2.9298 H         1 RES1    0.0000
     11 H6         3.4096    0.8698    4.2220 H         1 RES1    0.0000
     12 H7         3.8267   -0.5467    3.4979 H         1 RES1    0.0000
     13 H8         2.2879   -2.3361    3.4868 H         1 RES1    0.0000
     14 H9         0.8677   -2.1456    4.1552 H         1 RES1    0.0000
     15 H10        0.0923    0.0083    4.7233 H         1 RES1    0.0000
     16 N1         0.9582   -1.3693    2.2915 N.3       1 RES1    0.0000
     17 N2         0.4738    0.8972    2.9721 N.3       1 RES1    0.0000
     18 N3         2.8469    0.7944    2.3550 N.3       1 RES1    0.0000
     19 N4         1.9621   -0.4854    4.2688 N.3       1 RES1    0.0000
     20 N5         0.8301   -2.3717    1.4014 N.pl3     1 RES1    0.0000
     21 N6         3.1127    0.0671    1.2053 N.pl3     1 RES1    0.0000
     22 O1         1.3374   -3.4611    1.6866 O.2       1 RES1    0.0000
     23 O2         0.2484   -2.1331    0.3420 O.2       1 RES1    0.0000
     24 O3         3.9226   -0.8483    1.2833 O.2       1 RES1    0.0000
     25 O4         2.5727    0.4134    0.1638 O.2       1 RES1    0.0000
@<TRIPOS>BOND
     1    1    6 1
     2    2    9 1
     3    3   11 1
     4    4   13 1
     5    5    7 1
     6    8    1 1
     7   10    2 1
     8   12    3 1
     9   14    4 1
    10   15    5 1
    11   16    1 1
    12   17    1 1
    13   18    2 1
    14   19    3 1
    15   20   16 1
    16   21   18 1
    17   22   20 2
    18   23   20 2
    19   24   21 2
    20   25   21 2
    21    2   17 1
    22    3   18 1
    23    4   16 1
    24    4   19 1
    25    5   17 1
    26    5   19 1
@<TRIPOS>SUBSTRUCTURE
     1 RES1 1

@<TRIPOS>CRYSIN
   9.3450    8.2840   11.5660  90.0000 105.6000  90.0000  14 1

