# MOL2 file generated by ConQuest
# Please check atom types

@<TRIPOS>MOLECULE
DNPXBB
    74    76     2
SMALL
NO_CHARGES
****
Generated from CSD

@<TRIPOS>ATOM
      1 C1         4.3634    3.1388    2.2542 C.2       1 RES1    0.0000
      2 C2         8.7842   -1.4063    3.0428 C.2       1 RES1    0.0000
      3 C3         8.9892   -0.5357    2.0190 C.2       1 RES1    0.0000
      4 C4         8.1163    0.5183    1.8694 C.2       1 RES1    0.0000
      5 C5         5.0165    4.4447    2.6889 C.3       1 RES1    0.0000
      6 C6         5.5138    4.3415    4.1402 C.3       1 RES1    0.0000
      7 C7         6.1781    4.8009    1.7530 C.3       1 RES1    0.0000
      8 C8         4.0189    5.6126    2.6508 C.3       1 RES1    0.0000
      9 C9         5.0311    1.9150    2.2399 C.2       1 RES1    0.0000
     10 C10        4.4698    0.7451    1.8100 C.2       1 RES1    0.0000
     11 C11        3.1549    0.7316    1.3634 C.2       1 RES1    0.0000
     12 C12        2.4672    1.8995    1.3634 C.2       1 RES1    0.0000
     13 C13        3.0380    3.0558    1.7981 C.2       1 RES1    0.0000
     14 C14        7.0835    0.7693    2.7554 C.2       1 RES1    0.0000
     15 C15        6.9218   -0.1438    3.7767 C.2       1 RES1    0.0000
     16 C16        7.7436   -1.2422    3.9193 C.2       1 RES1    0.0000
     17 H1         9.2744   -2.1427    3.1592 H         1 RES1    0.0000
     18 H2         9.7281   -0.5984    1.3777 H         1 RES1    0.0000
     19 H3         6.2319    3.6678    4.2281 H         1 RES1    0.0000
     20 H4         4.7339    4.0345    4.7269 H         1 RES1    0.0000
     21 H5         5.7991    5.1928    4.4418 H         1 RES1    0.0000
     22 H6         6.8571    4.1407    1.7577 H         1 RES1    0.0000
     23 H7         5.8062    4.8453    0.7839 H         1 RES1    0.0000
     24 H8         6.4941    5.6850    1.9715 H         1 RES1    0.0000
     25 H9         3.2297    5.3955    3.2304 H         1 RES1    0.0000
     26 H10        4.4623    6.4379    2.9454 H         1 RES1    0.0000
     27 H11        3.6939    5.7719    1.7102 H         1 RES1    0.0000
     28 H12        4.9119   -0.0483    1.8527 H         1 RES1    0.0000
     29 H13        2.7742   -0.1351    1.0689 H         1 RES1    0.0000
     30 H14        1.5933    1.8918    0.9976 H         1 RES1    0.0000
     31 H15        2.5669    3.8801    1.8765 H         1 RES1    0.0000
     32 H16        7.5317   -1.8339    4.6081 H         1 RES1    0.0000
     33 N1         5.8634    0.0560    4.7744 N.2       1 RES1    0.0000
     34 N2         8.3003    1.4024    0.7221 N.2       1 RES1    0.0000
     35 O1         6.3837    1.9343    2.6437 O.3       1 RES1    0.0000
     36 O2         5.6871    1.1679    5.2209 O.2       1 RES1    0.0000
     37 O3         5.2535   -0.9362    5.1140 O.2       1 RES1    0.0000
     38 O4         7.3211    1.6611    0.0523 O.2       1 RES1    0.0000
     39 O5         9.4220    1.7750    0.4679 O.2       1 RES1    0.0000
     40 C17        1.7799   -1.6920    8.6485 C.2       2 RES2    0.0000
     41 C18       -2.8110   -5.9582    7.4205 C.2       2 RES2    0.0000
     42 C19       -1.8900   -6.1560    8.3967 C.2       2 RES2    0.0000
     43 C20       -1.0113   -5.1484    8.7530 C.2       2 RES2    0.0000
     44 C21        1.1786   -0.6708    9.6105 C.3       2 RES2    0.0000
     45 C22       -0.0300    0.0396    8.9098 C.3       2 RES2    0.0000
     46 C23        2.1945    0.4092    9.9811 C.3       2 RES2    0.0000
     47 C24        0.7280   -1.3378   10.9074 C.3       2 RES2    0.0000
     48 C25        1.0628   -2.7643    8.1283 C.2       2 RES2    0.0000
     49 C26        1.6030   -3.6871    7.2661 C.2       2 RES2    0.0000
     50 C27        2.9260   -3.5867    6.8813 C.2       2 RES2    0.0000
     51 C28        3.6648   -2.5549    7.3682 C.2       2 RES2    0.0000
     52 C29        3.1156   -1.6379    8.2186 C.2       2 RES2    0.0000
     53 C30       -1.0326   -3.9274    8.1117 C.2       2 RES2    0.0000
     54 C31       -1.9933   -3.7623    7.1236 C.2       2 RES2    0.0000
     55 C32       -2.8739   -4.7623    6.7958 C.2       2 RES2    0.0000
     56 H17       -3.4051   -6.6599    7.1259 H         2 RES2    0.0000
     57 H18       -1.8223   -6.9494    8.9074 H         2 RES2    0.0000
     58 H19       -0.3259    0.5791    9.4775 H         2 RES2    0.0000
     59 H20        0.7488    0.6949    8.0048 H         2 RES2    0.0000
     60 H21       -0.8499   -0.8687    8.5511 H         2 RES2    0.0000
     61 H22        2.7714    0.8397    9.0499 H         2 RES2    0.0000
     62 H23        1.7493    0.9942   10.5701 H         2 RES2    0.0000
     63 H24        2.9910    0.0386   10.3564 H         2 RES2    0.0000
     64 H25       -0.0194   -1.9787   10.7364 H         2 RES2    0.0000
     65 H26        1.4737   -1.8435   11.3540 H         2 RES2    0.0000
     66 H27        0.4304   -0.6563   11.5203 H         2 RES2    0.0000
     67 H28        1.1023   -4.4110    6.8884 H         2 RES2    0.0000
     68 H29        3.2654   -4.2179    6.2471 H         2 RES2    0.0000
     69 H30        4.5893   -2.4806    7.1022 H         2 RES2    0.0000
     70 H31        3.5843   -0.8783    8.5749 H         2 RES2    0.0000
     71 H32       -3.4903   -4.5268    6.1045 H         2 RES2    0.0000
     72 N3        -0.0950   -5.3906    9.8623 N.2       2 RES2    0.0000
     73 N4        -2.0886   -2.5008    6.3777 N.2       2 RES2    0.0000
     74 O6        -0.2808   -2.8657    8.5297 O.3       2 RES2    0.0000
@<TRIPOS>BOND
     1    1    5 1
     2    2    3 1
     3    3    4 1
     4    4   14 1
     5    5    6 1
     6    6   19 1
     7    7    5 1
     8    8    5 1
     9    9    1 1
    10   10    9 1
    11   11   10 1
    12   12   11 1
    13   13    1 1
    14   14   15 1
    15   15   16 1
    16   16    2 1
    17   17    2 1
    18   18    3 1
    19   20    6 1
    20   21    6 1
    21   22    7 1
    22   23    7 1
    23   24    7 1
    24   25    8 1
    25   26    8 1
    26   27    8 1
    27   28   10 1
    28   29   11 1
    29   30   12 1
    30   31   13 1
    31   32   16 1
    32   33   15 1
    33   34    4 1
    34   35    9 1
    35   36   33 1
    36   37   33 1
    37   38   34 1
    38   39   34 1
    39   40   44 1
    40   41   42 1
    41   42   43 1
    42   43   53 1
    43   44   45 1
    44   45   58 1
    45   46   44 1
    46   47   44 1
    47   48   40 1
    48   49   48 1
    49   50   49 1
    50   51   50 1
    51   52   40 1
    52   53   54 1
    53   54   55 1
    54   55   41 1
    55   56   41 1
    56   57   42 1
    57   59   45 1
    58   60   45 1
    59   61   46 1
    60   62   46 1
    61   63   46 1
    62   64   47 1
    63   65   47 1
    64   66   47 1
    65   67   49 1
    66   68   50 1
    67   69   51 1
    68   70   52 1
    69   71   55 1
    70   72   43 1
    71   73   54 1
    72   74   48 1
    73   12   13 1
    74   14   35 1
    75   51   52 1
    76   53   74 1
@<TRIPOS>SUBSTRUCTURE
     1 RES1 1
     2 RES2 40

@<TRIPOS>CRYSIN
  13.9490    9.6520   23.8060  90.0000  93.8200  90.0000  14 1

