# MOL2 file generated by ConQuest
# Please check atom types

@<TRIPOS>MOLECULE
DNTANT
    20    22     1
SMALL
NO_CHARGES
****
Generated from CSD

@<TRIPOS>ATOM
      1 C1         1.5968    2.3630    2.4477 C.ar      1 RES1    0.0000
      2 C2         1.0791    2.3407    1.1939 C.ar      1 RES1    0.0000
      3 C3         0.5689    1.1983    0.5366 C.ar      1 RES1    0.0000
      4 C4         0.0360    1.1134   -0.7434 C.ar      1 RES1    0.0000
      5 C5         0.4602    0.0310    1.3950 C.ar      1 RES1    0.0000
      6 C6         0.9912    0.0988    2.7005 C.ar      1 RES1    0.0000
      7 C7         1.5317    1.2062    3.2338 C.ar      1 RES1    0.0000
      8 N1         0.1133    2.3214   -1.5410 N.pl3     1 RES1    0.0000
      9 O1        -0.5110    3.3322   -1.1841 O.2       1 RES1    0.0000
     10 O2         0.8347    2.3496   -2.5503 O.2       1 RES1    0.0000
     11 C5A       -0.4602   -0.0310   -1.3950 C.ar      1 RES1    0.0000
     12 C4A       -0.0360   -1.1134    0.7434 C.ar      1 RES1    0.0000
     13 C3A       -0.5689   -1.1983   -0.5366 C.ar      1 RES1    0.0000
     14 C6A       -0.9912   -0.0988   -2.7005 C.ar      1 RES1    0.0000
     15 N1A       -0.1133   -2.3214    1.5410 N.pl3     1 RES1    0.0000
     16 C2A       -1.0791   -2.3407   -1.1939 C.ar      1 RES1    0.0000
     17 C7A       -1.5317   -1.2062   -3.2338 C.ar      1 RES1    0.0000
     18 O1A        0.5110   -3.3322    1.1841 O.2       1 RES1    0.0000
     19 O2A       -0.8347   -2.3496    2.5503 O.2       1 RES1    0.0000
     20 C1A       -1.5968   -2.3630   -2.4477 C.ar      1 RES1    0.0000
@<TRIPOS>BOND
     1    1    2 ar
     2    2    3 ar
     3    3    4 ar
     4    4    8 1
     5    5    3 ar
     6    6    5 ar
     7    7    1 ar
     8    8    9 2
     9   10    8 2
    10   11    4 ar
    11   12    5 ar
    12   13   11 ar
    13   14   11 ar
    14   15   12 1
    15   16   13 ar
    16   17   14 ar
    17   18   15 2
    18   19   15 2
    19   20   16 ar
    20    6    7 ar
    21   12   13 ar
    22   17   20 ar
@<TRIPOS>SUBSTRUCTURE
     1 RES1 1

@<TRIPOS>CRYSIN
   3.9500    8.6800    8.7600 106.7700  98.9800  98.0200   2 1

