# MOL2 file generated by ConQuest
# Please check atom types

@<TRIPOS>MOLECULE
DNTDPH
    26    27     1
SMALL
NO_CHARGES
****
Generated from CSD

@<TRIPOS>ATOM
      1 C1         0.2102    0.6517    0.3722 C.ar      1 RES1    0.0000
      2 C2        -0.8257   -2.7027   -1.7989 C.ar      1 RES1    0.0000
      3 C3        -1.0508   -2.8081   -0.4187 C.ar      1 RES1    0.0000
      4 C4        -0.7356   -1.6868    0.2791 C.ar      1 RES1    0.0000
      5 C5         0.7356    0.4984    1.7059 C.ar      1 RES1    0.0000
      6 C6         1.0809    1.7060    2.4037 C.ar      1 RES1    0.0000
      7 C7         0.9495    2.8944    1.8455 C.ar      1 RES1    0.0000
      8 C8         0.4504    3.1052    0.5428 C.ar      1 RES1    0.0000
      9 C9         0.0225    2.0031   -0.2016 C.ar      1 RES1    0.0000
     10 C10       -0.2740   -0.5463   -0.3877 C.ar      1 RES1    0.0000
     11 C11       -0.1051   -0.5655   -1.7679 C.ar      1 RES1    0.0000
     12 C12       -0.3640   -1.6964   -2.4968 C.ar      1 RES1    0.0000
     13 H1        -0.8669   -1.6868    1.3492 H         1 RES1    0.0000
     14 H2         0.8407   -0.4888    2.1401 H         1 RES1    0.0000
     15 H3         1.4787    1.6005    3.3807 H         1 RES1    0.0000
     16 H4         0.3453    4.0924    0.1086 H         1 RES1    0.0000
     17 H5        -0.3791    2.1181   -1.1786 H         1 RES1    0.0000
     18 H6         0.2702    0.3163   -2.2952 H         1 RES1    0.0000
     19 H7        -0.2214   -1.6964   -3.5668 H         1 RES1    0.0000
     20 H8        -1.4224   -3.6898    0.1086 H         1 RES1    0.0000
     21 N1         1.2798    4.1978    2.5588 N.pl3     1 RES1    0.0000
     22 N2        -1.3211   -3.9774   -2.5123 N.pl3     1 RES1    0.0000
     23 O1         1.9140    3.8911    3.5823 O.2       1 RES1    0.0000
     24 O2         0.9795    5.1562    2.0315 O.2       1 RES1    0.0000
     25 O3        -1.1447   -3.9678   -3.7529 O.2       1 RES1    0.0000
     26 O4        -1.7827   -4.9166   -1.9850 O.2       1 RES1    0.0000
@<TRIPOS>BOND
     1    1    5 ar
     2    2    3 ar
     3    3    4 ar
     4    4   10 ar
     5    5    6 ar
     6    6    7 ar
     7    7    8 ar
     8    8    9 ar
     9    9    1 ar
    10   10    1 1
    11   11   10 ar
    12   12    2 ar
    13   13    4 1
    14   14    5 1
    15   15    6 1
    16   16    8 1
    17   17    9 1
    18   18   11 1
    19   19   12 1
    20   20    3 1
    21   21    7 1
    22   22    2 1
    23   23   21 2
    24   24   21 2
    25   25   22 2
    26   26   22 2
    27   11   12 ar
@<TRIPOS>SUBSTRUCTURE
     1 RES1 1

@<TRIPOS>CRYSIN
   3.7530    9.5840   15.5080  90.0000  90.0000  90.0000   7 1

