# MOL2 file generated by ConQuest
# Please check atom types

@<TRIPOS>MOLECULE
DNTNAP01
    22    23     1
SMALL
NO_CHARGES
****
Generated from CSD

@<TRIPOS>ATOM
      1 O1        -3.9153   -3.7540   -1.0189 O.2       1 RES1    0.0000
      2 O2        -3.8903   -3.1191    1.0485 O.2       1 RES1    0.0000
      3 O3        -6.7238   -3.6581   -2.5825 O.2       1 RES1    0.0000
      4 O4        -6.6316   -3.3467   -0.4488 O.2       1 RES1    0.0000
      5 N1        -4.1109   -3.9397    0.1773 N.pl3     1 RES1    0.0000
      6 N2        -6.5702   -4.0565   -1.4402 N.pl3     1 RES1    0.0000
      7 C1        -4.5682   -5.2828    0.5711 C.ar      1 RES1    0.0000
      8 C2        -3.9016   -5.8369    1.6320 C.ar      1 RES1    0.0000
      9 C3        -4.1064   -7.1965    1.9391 C.ar      1 RES1    0.0000
     10 C4        -4.9265   -7.9542    1.1735 C.ar      1 RES1    0.0000
     11 C5        -6.5156   -8.2087   -0.6864 C.ar      1 RES1    0.0000
     12 C6        -7.2288   -7.6847   -1.7274 C.ar      1 RES1    0.0000
     13 C7        -7.1685   -6.3056   -1.9833 C.ar      1 RES1    0.0000
     14 C8        -6.3734   -5.5000   -1.2328 C.ar      1 RES1    0.0000
     15 C9        -5.5237   -5.9896   -0.1977 C.ar      1 RES1    0.0000
     16 C10       -5.6488   -7.3822    0.0889 C.ar      1 RES1    0.0000
     17 H1        -3.2271   -5.2379    2.2263 H         1 RES1    0.0000
     18 H2        -3.6070   -7.6367    2.7894 H         1 RES1    0.0000
     19 H3        -5.0346   -9.0069    1.3890 H         1 RES1    0.0000
     20 H4        -6.6089   -9.2584   -0.4472 H         1 RES1    0.0000
     21 H5        -7.8351   -8.3270   -2.3492 H         1 RES1    0.0000
     22 H6        -7.7589   -5.8818   -2.7829 H         1 RES1    0.0000
@<TRIPOS>BOND
     1    1    5 2
     2    2    5 2
     3    3    6 2
     4    4    6 2
     5    5    7 1
     6    6   14 1
     7    7    8 ar
     8    8    9 ar
     9    9   10 ar
    10   10   16 ar
    11   11   12 ar
    12   12   13 ar
    13   13   14 ar
    14   14   15 ar
    15   15    7 ar
    16   16   11 ar
    17   17    8 1
    18   18    9 1
    19   19   10 1
    20   20   11 1
    21   21   12 1
    22   22   13 1
    23   15   16 ar
@<TRIPOS>SUBSTRUCTURE
     1 RES1 1

@<TRIPOS>CRYSIN
  11.3750   14.9740    5.3880  90.0000  90.0000  90.0000  19 1

