# MOL2 file generated by ConQuest
# Please check atom types

@<TRIPOS>MOLECULE
DNTNAP02
    22    23     1
SMALL
NO_CHARGES
****
Generated from CSD

@<TRIPOS>ATOM
      1 O1        -3.9554   -3.7685   -1.0291 O.2       1 RES1    0.0000
      2 O2        -3.9313   -3.1309    1.0367 O.2       1 RES1    0.0000
      3 O3        -6.7794   -3.6710   -2.5807 O.2       1 RES1    0.0000
      4 O4        -6.6865   -3.3559   -0.4481 O.2       1 RES1    0.0000
      5 N1        -4.1471   -3.9590    0.1676 N.pl3     1 RES1    0.0000
      6 N2        -6.6291   -4.0700   -1.4441 N.pl3     1 RES1    0.0000
      7 C1        -4.6026   -5.2897    0.5685 C.ar      1 RES1    0.0000
      8 C2        -3.9313   -5.8463    1.6204 C.ar      1 RES1    0.0000
      9 C3        -4.1367   -7.2070    1.9367 C.ar      1 RES1    0.0000
     10 C4        -4.9847   -7.9616    1.1664 C.ar      1 RES1    0.0000
     11 C5        -6.5706   -8.2166   -0.6803 C.ar      1 RES1    0.0000
     12 C6        -7.2797   -7.6945   -1.7230 C.ar      1 RES1    0.0000
     13 C7        -7.2304   -6.3053   -1.9893 C.ar      1 RES1    0.0000
     14 C8        -6.4421   -5.5042   -1.2195 C.ar      1 RES1    0.0000
     15 C9        -5.5791   -6.0023   -0.2024 C.ar      1 RES1    0.0000
     16 C10       -5.7123   -7.3960    0.0949 C.ar      1 RES1    0.0000
     17 H1        -3.2474   -5.2492    2.2063 H         1 RES1    0.0000
     18 H2        -3.6295   -7.6510    2.7803 H         1 RES1    0.0000
     19 H3        -5.0995   -9.0132    1.3839 H         1 RES1    0.0000
     20 H4        -6.6635   -9.2652   -0.4432 H         1 RES1    0.0000
     21 H5        -7.8787   -8.3426   -2.3458 H         1 RES1    0.0000
     22 H6        -7.8122   -5.8838   -2.7950 H         1 RES1    0.0000
@<TRIPOS>BOND
     1    1    5 2
     2    2    5 2
     3    3    6 2
     4    4    6 2
     5    5    7 1
     6    6   14 1
     7    7    8 ar
     8    8    9 ar
     9    9   10 ar
    10   10   16 ar
    11   11   12 ar
    12   12   13 ar
    13   13   14 ar
    14   14   15 ar
    15   15    7 ar
    16   16   11 ar
    17   17    8 1
    18   18    9 1
    19   19   10 1
    20   20   11 1
    21   21   12 1
    22   22   13 1
    23   15   16 ar
@<TRIPOS>SUBSTRUCTURE
     1 RES1 1

@<TRIPOS>CRYSIN
  11.4750   15.0020    5.4250  90.0000  90.0000  90.0000  19 1

