# MOL2 file generated by ConQuest
# Please check atom types

@<TRIPOS>MOLECULE
DOBDAB
    70    74     2
SMALL
NO_CHARGES
****
Generated from CSD

@<TRIPOS>ATOM
      1 O1         1.3582   10.2382   15.0792 O.3       1 RES1    0.0000
      2 O2         1.9284    8.0451   16.5100 O.3       1 RES1    0.0000
      3 O3         0.9374    5.9499   17.8382 O.3       1 RES1    0.0000
      4 N1         1.5589   11.2937   14.1627 N.2       1 RES1    0.0000
      5 N2        -0.0662    9.9224   13.4372 N.2       1 RES1    0.0000
      6 C1        -0.1197    8.3166   15.3072 C.ar      1 RES1    0.0000
      7 C2        -1.4146    7.8626   15.0212 C.ar      1 RES1    0.0000
      8 C3        -1.9353    6.7880   15.7004 C.ar      1 RES1    0.0000
      9 C4        -1.1887    6.1347   16.6765 C.ar      1 RES1    0.0000
     10 C5         0.0965    6.5515   16.9544 C.ar      1 RES1    0.0000
     11 C6         0.6344    7.6606   16.2854 C.ar      1 RES1    0.0000
     12 C7         0.3750    9.4770   14.5764 C.2       1 RES1    0.0000
     13 C8         0.6909   11.0480   13.2197 C.2       1 RES1    0.0000
     14 C9         0.5576   11.8991   12.0320 C.ar      1 RES1    0.0000
     15 C10       -0.1759   11.4575   10.9302 C.ar      1 RES1    0.0000
     16 C11       -0.2789   12.2459    9.8109 C.ar      1 RES1    0.0000
     17 C12        0.3295   13.4788    9.7615 C.ar      1 RES1    0.0000
     18 C13        1.0399   13.9333   10.8493 C.ar      1 RES1    0.0000
     19 C14        1.1634   13.1534   11.9832 C.ar      1 RES1    0.0000
     20 C15        0.4050    4.9452   18.6979 C.3       1 RES1    0.0000
     21 C16        2.2023    8.5427   17.8261 C.3       1 RES1    0.0000
     22 H1        -1.9229    8.2904   14.3705 H         1 RES1    0.0000
     23 H2        -2.7953    6.4940   15.5063 H         1 RES1    0.0000
     24 H3        -1.5554    5.4179   17.1404 H         1 RES1    0.0000
     25 H4        -0.5952   10.6278   10.9542 H         1 RES1    0.0000
     26 H5        -0.7646   11.9436    9.0784 H         1 RES1    0.0000
     27 H6         0.2601   14.0026    8.9969 H         1 RES1    0.0000
     28 H7         1.4405   14.7719   10.8213 H         1 RES1    0.0000
     29 H8         1.6494   13.4652   12.7122 H         1 RES1    0.0000
     30 H9         1.0878    4.6475   19.3032 H         1 RES1    0.0000
     31 H10        0.0982    4.2043   18.1720 H         1 RES1    0.0000
     32 H11       -0.3294    5.3088   19.1975 H         1 RES1    0.0000
     33 H12        3.0966    8.8927   17.8563 H         1 RES1    0.0000
     34 H13        2.1166    7.8291   18.4619 H         1 RES1    0.0000
     35 H14        1.5783    9.2404   18.0406 H         1 RES1    0.0000
     36 O4        -3.6867    6.8228    9.0025 O.3       2 RES2    0.0000
     37 O5        -2.1006    8.9907    8.6972 O.3       2 RES2    0.0000
     38 O6        -1.3443   10.8855    6.9756 O.3       2 RES2    0.0000
     39 N3        -4.3981    5.7699    9.6315 N.2       2 RES2    0.0000
     40 N4        -5.7980    7.0988    8.4711 N.2       2 RES2    0.0000
     41 C17       -4.1664    8.6860    7.5184 C.ar      2 RES2    0.0000
     42 C18       -5.0572    9.1266    6.5286 C.ar      2 RES2    0.0000
     43 C19       -4.7059   10.1614    5.6963 C.ar      2 RES2    0.0000
     44 C20       -3.4705   10.7653    5.8052 C.ar      2 RES2    0.0000
     45 C21       -2.5825   10.3518    6.7807 C.ar      2 RES2    0.0000
     46 C22       -2.9319    9.3161    7.6574 C.ar      2 RES2    0.0000
     47 C23       -4.5906    7.5562    8.3358 C.2       2 RES2    0.0000
     48 C24       -5.6325    5.9910    9.2743 C.2       2 RES2    0.0000
     49 C25       -6.7411    5.1348    9.7191 C.ar      2 RES2    0.0000
     50 C26       -8.0517    5.5025    9.4548 C.ar      2 RES2    0.0000
     51 C27       -9.1049    4.7191    9.8935 C.ar      2 RES2    0.0000
     52 C28       -8.8573    3.5805   10.5859 C.ar      2 RES2    0.0000
     53 C29       -7.5570    3.1845   10.8391 C.ar      2 RES2    0.0000
     54 C30       -6.4933    3.9527   10.4039 C.ar      2 RES2    0.0000
     55 C31       -0.9029   11.8982    6.0539 C.3       2 RES2    0.0000
     56 C32       -0.9144    8.2689    8.3307 C.3       2 RES2    0.0000
     57 H15       -5.8864    8.7177    6.4354 H         2 RES2    0.0000
     58 H16       -5.3077   10.4585    5.0520 H         2 RES2    0.0000
     59 H17       -3.2351   11.4505    5.2226 H         2 RES2    0.0000
     60 H18       -8.2239    6.2826    8.9788 H         2 RES2    0.0000
     61 H19       -9.9810    4.9736    9.7143 H         2 RES2    0.0000
     62 H20       -9.5660    3.0612   10.8923 H         2 RES2    0.0000
     63 H21       -7.3975    2.3965   11.3061 H         2 RES2    0.0000
     64 H22       -5.6188    3.6805   10.5676 H         2 RES2    0.0000
     65 H23       -0.0132   12.1755    6.2859 H         2 RES2    0.0000
     66 H24       -1.4952   12.6516    6.0986 H         2 RES2    0.0000
     67 H25       -0.9043   11.5414    5.1622 H         2 RES2    0.0000
     68 H26       -0.2873    8.2927    9.0573 H         2 RES2    0.0000
     69 H27       -0.5204    8.6734    7.5545 H         2 RES2    0.0000
     70 H28       -1.1414    7.3564    8.1345 H         2 RES2    0.0000
@<TRIPOS>BOND
     1    1    4 1
     2    2   11 1
     3    3   10 1
     4    4   13 2
     5    5   12 2
     6    6    7 ar
     7    7    8 ar
     8    8    9 ar
     9    9   10 ar
    10   10   11 ar
    11   11    6 ar
    12   12    1 1
    13   13    5 1
    14   14   13 1
    15   15   14 ar
    16   16   15 ar
    17   17   16 ar
    18   18   17 ar
    19   19   14 ar
    20   20    3 1
    21   21    2 1
    22   22    7 1
    23   23    8 1
    24   24    9 1
    25   25   15 1
    26   26   16 1
    27   27   17 1
    28   28   18 1
    29   29   19 1
    30   30   20 1
    31   31   20 1
    32   32   20 1
    33   33   21 1
    34   34   21 1
    35   35   21 1
    36   36   39 1
    37   37   46 1
    38   38   45 1
    39   39   48 2
    40   40   47 2
    41   41   42 ar
    42   42   43 ar
    43   43   44 ar
    44   44   45 ar
    45   45   46 ar
    46   46   41 ar
    47   47   36 1
    48   48   40 1
    49   49   48 1
    50   50   49 ar
    51   51   50 ar
    52   52   51 ar
    53   53   52 ar
    54   54   49 ar
    55   55   38 1
    56   56   37 1
    57   57   42 1
    58   58   43 1
    59   59   44 1
    60   60   50 1
    61   61   51 1
    62   62   52 1
    63   63   53 1
    64   64   54 1
    65   65   55 1
    66   66   55 1
    67   67   55 1
    68   68   56 1
    69   69   56 1
    70   70   56 1
    71    6   12 1
    72   18   19 ar
    73   41   47 1
    74   53   54 ar
@<TRIPOS>SUBSTRUCTURE
     1 RES1 1
     2 RES2 36

@<TRIPOS>CRYSIN
  16.5580   11.3630   17.3510  90.0000 119.4900  90.0000  14 1

