# MOL2 file generated by ConQuest
# Please check atom types

@<TRIPOS>MOLECULE
DOCHEI
    90    88     2
SMALL
NO_CHARGES
****
Generated from CSD

@<TRIPOS>ATOM
      1 O1         3.3299    0.2257    4.0941 O.3       1 RES1    0.0000
      2 O2         2.6244    0.9486    0.8761 O.2       1 RES1    0.0000
      3 O3         4.7671    0.8649    1.4728 O.3       1 RES1    0.0000
      4 O4         2.6191    3.3872    4.3088 O.3       2 RES2    0.0000
      5 O5         4.6868    3.4503    1.7210 O.2       2 RES2    0.0000
      6 O6         2.5415    3.5576    1.1727 O.3       2 RES2    0.0000
      7 N1         2.0036    0.6850    3.9452 N.2       1 RES1    0.0000
      8 N2         3.9038    2.9026    4.6550 N.2       2 RES2    0.0000
      9 C1         3.6322    0.3078    1.2189 C.2       1 RES1    0.0000
     10 C2         3.6064   -1.2011    1.2720 C.3       1 RES1    0.0000
     11 C3         2.1846   -1.7662    1.5271 C.3       1 RES1    0.0000
     12 C4         1.6787   -1.5547    2.9814 C.3       1 RES1    0.0000
     13 C5         1.2353   -0.1689    3.3911 C.2       1 RES1    0.0000
     14 C6        -0.2160    0.2446    3.2953 C.3       1 RES1    0.0000
     15 C7        -0.3956    1.7472    3.5239 C.3       1 RES1    0.0000
     16 C8        -0.9972   -0.4988    4.3711 C.3       1 RES1    0.0000
     17 C9        -0.8082   -0.0821    1.9368 C.3       1 RES1    0.0000
     18 C10        4.7346   -1.7725    2.1238 C.3       1 RES1    0.0000
     19 C11        1.9885   -3.2483    1.0723 C.3       1 RES1    0.0000
     20 C12        2.7196   -3.5166   -0.2528 C.3       1 RES1    0.0000
     21 C13        2.4521   -4.2805    2.0972 C.3       1 RES1    0.0000
     22 C14        0.5002   -3.4850    0.8033 C.3       1 RES1    0.0000
     23 C15        3.6197    4.0706    1.6644 C.2       2 RES2    0.0000
     24 C16        3.5300    5.5132    2.0799 C.3       2 RES2    0.0000
     25 C17        4.6524    5.9046    3.0783 C.3       2 RES2    0.0000
     26 C18        4.4749    5.2891    4.4934 C.3       2 RES2    0.0000
     27 C19        4.7841    3.8181    4.7058 C.2       2 RES2    0.0000
     28 C20        6.1694    3.3540    5.1340 C.3       2 RES2    0.0000
     29 C21        6.2123    1.8451    5.3799 C.3       2 RES2    0.0000
     30 C22        6.5189    3.9601    6.4741 C.3       2 RES2    0.0000
     31 C23        7.2025    3.7628    4.1056 C.3       2 RES2    0.0000
     32 C24        2.1121    5.9299    2.4435 C.3       2 RES2    0.0000
     33 C25        4.9287    7.4483    3.1684 C.3       2 RES2    0.0000
     34 C26        6.3652    7.6550    3.6497 C.3       2 RES2    0.0000
     35 C27        3.9919    8.2027    4.1252 C.3       2 RES2    0.0000
     36 C28        4.8434    8.1096    1.7868 C.3       2 RES2    0.0000
     37 H1         3.6683    0.9865    4.4865 H         1 RES1    0.0000
     38 H2         4.8427    1.8341    1.4763 H         1 RES1    0.0000
     39 H3         2.0614    2.6201    4.1483 H         2 RES2    0.0000
     40 H4         2.5445    2.6295    0.8922 H         2 RES2    0.0000
     41 H5         3.8094   -1.5294    0.4028 H         1 RES1    0.0000
     42 H6         1.6322   -1.2406    0.9592 H         1 RES1    0.0000
     43 H7         2.3866   -1.8072    3.5631 H         1 RES1    0.0000
     44 H8         0.9394   -2.1339    3.1095 H         1 RES1    0.0000
     45 H9        -1.3162    1.9698    3.4581 H         1 RES1    0.0000
     46 H10       -0.0775    1.9745    4.3907 H         1 RES1    0.0000
     47 H11        0.0951    2.2286    2.8694 H         1 RES1    0.0000
     48 H12       -1.9160   -0.2510    4.3226 H         1 RES1    0.0000
     49 H13       -0.9181   -1.4347    4.2337 H         1 RES1    0.0000
     50 H14       -0.6558   -0.2715    5.2264 H         1 RES1    0.0000
     51 H15       -1.7194    0.1894    1.9172 H         1 RES1    0.0000
     52 H16       -0.3257    0.3788    1.2639 H         1 RES1    0.0000
     53 H17       -0.7528   -1.0180    1.7856 H         1 RES1    0.0000
     54 H18        4.6806   -2.7195    2.1261 H         1 RES1    0.0000
     55 H19        5.5707   -1.5042    1.7602 H         1 RES1    0.0000
     56 H20        4.6562   -1.4458    3.0114 H         1 RES1    0.0000
     57 H21        2.5886   -4.4210   -0.5056 H         1 RES1    0.0000
     58 H22        2.3782   -2.9421   -0.9234 H         1 RES1    0.0000
     59 H23        3.6508   -3.3524   -0.1350 H         1 RES1    0.0000
     60 H24        2.2990   -5.1518    1.7475 H         1 RES1    0.0000
     61 H25        3.3743   -4.1621    2.2646 H         1 RES1    0.0000
     62 H26        1.9592   -4.1684    2.8983 H         1 RES1    0.0000
     63 H27        0.3753   -4.3878    0.5263 H         1 RES1    0.0000
     64 H28        0.0099   -3.3256    1.5975 H         1 RES1    0.0000
     65 H29        0.2087   -2.8994    0.1189 H         1 RES1    0.0000
     66 H30        3.7175    6.0593    1.3251 H         2 RES2    0.0000
     67 H31        5.4272    5.5132    2.6963 H         2 RES2    0.0000
     68 H32        3.5690    5.4232    4.7416 H         2 RES2    0.0000
     69 H33        5.0390    5.7800    5.0798 H         2 RES2    0.0000
     70 H34        7.1339    1.6005    5.5311 H         2 RES2    0.0000
     71 H35        5.6311    1.5452    5.9108 H         2 RES2    0.0000
     72 H36        6.0593    1.4458    4.4230 H         2 RES2    0.0000
     73 H37        7.3819    3.6634    6.7407 H         2 RES2    0.0000
     74 H38        6.5111    4.9040    6.4106 H         2 RES2    0.0000
     75 H39        5.8790    3.6792    7.1251 H         2 RES2    0.0000
     76 H40        8.0615    3.4677    4.3826 H         2 RES2    0.0000
     77 H41        6.9883    3.3666    3.2665 H         2 RES2    0.0000
     78 H42        7.2050    4.7082    4.0156 H         2 RES2    0.0000
     79 H43        2.1066    6.8438    2.6951 H         2 RES2    0.0000
     80 H44        1.5482    5.8068    1.6852 H         2 RES2    0.0000
     81 H45        1.8008    5.3948    3.1603 H         2 RES2    0.0000
     82 H46        6.5468    8.5847    3.7109 H         2 RES2    0.0000
     83 H47        6.4718    7.2541    4.5061 H         2 RES2    0.0000
     84 H48        6.9651    7.2526    3.0356 H         2 RES2    0.0000
     85 H49        4.2177    9.1261    4.1252 H         2 RES2    0.0000
     86 H50        3.0917    8.0986    3.8355 H         2 RES2    0.0000
     87 H51        4.0852    7.8523    5.0025 H         2 RES2    0.0000
     88 H52        5.0130    9.0393    1.8699 H         2 RES2    0.0000
     89 H53        5.4876    7.7182    1.2085 H         2 RES2    0.0000
     90 H54        3.9728    7.9770    1.4255 H         2 RES2    0.0000
@<TRIPOS>BOND
     1    1    7 1
     2    2    9 2
     3    3    9 1
     4    4    8 1
     5    5   23 2
     6    6   23 1
     7    7   13 2
     8    8   27 2
     9    9   10 1
    10   10   11 1
    11   11   12 1
    12   12   13 1
    13   13   14 1
    14   14   15 1
    15   15   45 1
    16   16   14 1
    17   17   14 1
    18   18   10 1
    19   19   11 1
    20   20   19 1
    21   21   19 1
    22   22   19 1
    23   23   24 1
    24   24   25 1
    25   25   26 1
    26   26   27 1
    27   27   28 1
    28   28   29 1
    29   29   70 1
    30   30   28 1
    31   31   28 1
    32   32   24 1
    33   33   25 1
    34   34   33 1
    35   35   33 1
    36   36   33 1
    37   37    1 1
    38   38    3 1
    39   39    4 1
    40   40    6 1
    41   41   10 1
    42   42   11 1
    43   43   12 1
    44   44   12 1
    45   46   15 1
    46   47   15 1
    47   48   16 1
    48   49   16 1
    49   50   16 1
    50   51   17 1
    51   52   17 1
    52   53   17 1
    53   54   18 1
    54   55   18 1
    55   56   18 1
    56   57   20 1
    57   58   20 1
    58   59   20 1
    59   60   21 1
    60   61   21 1
    61   62   21 1
    62   63   22 1
    63   64   22 1
    64   65   22 1
    65   66   24 1
    66   67   25 1
    67   68   26 1
    68   69   26 1
    69   71   29 1
    70   72   29 1
    71   73   30 1
    72   74   30 1
    73   75   30 1
    74   76   31 1
    75   77   31 1
    76   78   31 1
    77   79   32 1
    78   80   32 1
    79   81   32 1
    80   82   34 1
    81   83   34 1
    82   84   34 1
    83   85   35 1
    84   86   35 1
    85   87   35 1
    86   88   36 1
    87   89   36 1
    88   90   36 1
@<TRIPOS>SUBSTRUCTURE
     1 RES1 1
     2 RES2 4

@<TRIPOS>CRYSIN
  17.1100   15.7836   12.3850  90.0000 111.2570  90.0000  14 1

