# MOL2 file generated by ConQuest
# Please check atom types

@<TRIPOS>MOLECULE
DOCHOS10
    43    43     1
SMALL
NO_CHARGES
****
Generated from CSD

@<TRIPOS>ATOM
      1 O1         1.5281   -4.6612    4.8119 O.3       1 RES1    0.0000
      2 O2         2.5080    0.0961    1.2010 O.2       1 RES1    0.0000
      3 N1         1.6226   -3.4756    5.5706 N.2       1 RES1    0.0000
      4 N2         1.6657   -1.2540   -0.4375 N.am      1 RES1    0.0000
      5 C1         1.7416   -2.4329    4.8440 C.2       1 RES1    0.0000
      6 C2         1.7419   -2.4496    3.3333 C.3       1 RES1    0.0000
      7 C3         3.1265   -2.4440    2.6581 C.3       1 RES1    0.0000
      8 C4         2.9963   -2.2967    1.1398 C.3       1 RES1    0.0000
      9 C5         2.3730   -1.0079    0.6736 C.2       1 RES1    0.0000
     10 C6         2.1988   -3.3574    0.3845 C.3       1 RES1    0.0000
     11 C7         1.7584   -2.6373   -0.8689 C.3       1 RES1    0.0000
     12 C8         1.1737   -0.2252   -1.3245 C.3       1 RES1    0.0000
     13 C9         1.7393   -1.1108    5.5948 C.3       1 RES1    0.0000
     14 C10        2.7854   -0.1488    5.0574 C.3       1 RES1    0.0000
     15 C11        1.9863   -1.3138    7.0813 C.3       1 RES1    0.0000
     16 C12        0.3410   -0.4963    5.4237 C.3       1 RES1    0.0000
     17 C13        3.9748   -3.6480    3.0502 C.3       1 RES1    0.0000
     18 C14        5.4471   -3.4937    2.7459 C.3       1 RES1    0.0000
     19 H1         1.4278   -5.5123    5.3814 H         1 RES1    0.0000
     20 H2         1.2520   -1.6794    3.0320 H         1 RES1    0.0000
     21 H3         1.2698   -3.2309    3.0472 H         1 RES1    0.0000
     22 H4         3.5953   -1.6766    2.9821 H         1 RES1    0.0000
     23 H5         3.9232   -2.3690    0.9234 H         1 RES1    0.0000
     24 H6         1.4552   -3.6605    0.9082 H         1 RES1    0.0000
     25 H7         2.7458   -4.1193    0.1801 H         1 RES1    0.0000
     26 H8         0.9059   -2.9570   -1.1610 H         1 RES1    0.0000
     27 H9         2.3888   -2.7360   -1.5607 H         1 RES1    0.0000
     28 H10        1.1680    0.6242   -0.8992 H         1 RES1    0.0000
     29 H11        1.7135   -0.1738   -2.1117 H         1 RES1    0.0000
     30 H12        0.2701   -0.4268   -1.6031 H         1 RES1    0.0000
     31 H13        2.7750    0.6604    5.5085 H         1 RES1    0.0000
     32 H14        3.6511   -0.5575    5.1164 H         1 RES1    0.0000
     33 H15        2.6079    0.0042    4.1144 H         1 RES1    0.0000
     34 H16        1.9693   -0.4616    7.5399 H         1 RES1    0.0000
     35 H17        1.3106   -1.8643    7.4673 H         1 RES1    0.0000
     36 H18        2.8358   -1.7100    7.2281 H         1 RES1    0.0000
     37 H19        0.3181    0.3337    5.8930 H         1 RES1    0.0000
     38 H20       -0.3000   -1.0844    5.7825 H         1 RES1    0.0000
     39 H21        3.6494   -4.4224    2.5900 H         1 RES1    0.0000
     40 H22        3.8766   -3.8051    3.9948 H         1 RES1    0.0000
     41 H23        5.9317   -4.2639    3.0078 H         1 RES1    0.0000
     42 H24        5.5667   -3.3505    1.8089 H         1 RES1    0.0000
     43 H25        5.7940   -2.7332    3.2152 H         1 RES1    0.0000
@<TRIPOS>BOND
     1    1    3 1
     2    2    9 2
     3    3    5 2
     4    4    9 1
     5    5    6 1
     6    6    7 1
     7    7    8 1
     8    8    9 1
     9   10    8 1
    10   11    4 1
    11   12    4 1
    12   13    5 1
    13   14   13 1
    14   15   13 1
    15   16   13 1
    16   17    7 1
    17   18   17 1
    18   19    1 1
    19   20    6 1
    20   21    6 1
    21   22    7 1
    22   23    8 1
    23   24   10 1
    24   25   10 1
    25   26   11 1
    26   27   11 1
    27   28   12 1
    28   29   12 1
    29   30   12 1
    30   31   14 1
    31   32   14 1
    32   33   14 1
    33   34   15 1
    34   35   15 1
    35   36   15 1
    36   37   16 1
    37   38   16 1
    38   39   17 1
    39   40   17 1
    40   41   18 1
    41   42   18 1
    42   43   18 1
    43   10   11 1
@<TRIPOS>SUBSTRUCTURE
     1 RES1 1

@<TRIPOS>CRYSIN
   7.1792   13.9024   15.1388  90.0000  90.7740  90.0000 231 1

