# MOL2 file generated by ConQuest
# Please check atom types

@<TRIPOS>MOLECULE
DOCHUY
    39    38     1
SMALL
NO_CHARGES
****
Generated from CSD

@<TRIPOS>ATOM
      1 O1        -0.1580    4.9288    3.4166 O.2       1 RES1    0.0000
      2 O2        -2.2125    5.5141    2.9119 O.3       1 RES1    0.0000
      3 O3        -0.5646    5.6742    8.9742 O.3       1 RES1    0.0000
      4 N1         0.4299    6.6220    8.6873 N.2       1 RES1    0.0000
      5 C1        -1.2981    5.0872    3.7412 C.2       1 RES1    0.0000
      6 C2        -1.8269    4.8031    5.1328 C.3       1 RES1    0.0000
      7 C3        -1.3448    5.8516    6.1576 C.3       1 RES1    0.0000
      8 C4         0.1541    5.7345    6.4209 C.3       1 RES1    0.0000
      9 C5         0.7564    6.6555    7.4531 C.2       1 RES1    0.0000
     10 C6         1.8915    7.5645    7.0760 C.3       1 RES1    0.0000
     11 C7         2.3780    8.4296    8.2238 C.3       1 RES1    0.0000
     12 C8         3.0653    6.6400    6.6524 C.3       1 RES1    0.0000
     13 C9         1.5038    8.4597    5.9209 C.3       1 RES1    0.0000
     14 C10       -1.4606    3.3751    5.5318 C.3       1 RES1    0.0000
     15 C11       -1.7737    7.2572    5.7854 C.3       1 RES1    0.0000
     16 C12       -3.2835    7.4741    5.7584 C.3       1 RES1    0.0000
     17 H1        -1.9412    5.7500    2.0516 H         1 RES1    0.0000
     18 H2        -0.5636    5.7500    9.8936 H         1 RES1    0.0000
     19 H3        -2.7721    4.8754    5.1278 H         1 RES1    0.0000
     20 H4        -1.7727    5.6613    6.9824 H         1 RES1    0.0000
     21 H5         0.6043    5.8998    5.5958 H         1 RES1    0.0000
     22 H6         0.3290    4.8410    6.6967 H         1 RES1    0.0000
     23 H7         3.0892    8.9796    7.9134 H         1 RES1    0.0000
     24 H8         1.6624    8.9770    8.5242 H         1 RES1    0.0000
     25 H9         2.6802    7.8770    8.9232 H         1 RES1    0.0000
     26 H10        3.8152    7.1780    6.4086 H         1 RES1    0.0000
     27 H11        3.3108    6.0857    7.3864 H         1 RES1    0.0000
     28 H12        2.8049    6.1064    5.9209 H         1 RES1    0.0000
     29 H13        2.2458    9.0235    5.7189 H         1 RES1    0.0000
     30 H14        1.2857    7.9303    5.1796 H         1 RES1    0.0000
     31 H15        0.7668    8.9925    6.1844 H         1 RES1    0.0000
     32 H16       -1.7821    3.1918    6.4110 H         1 RES1    0.0000
     33 H17       -1.8423    2.7588    4.9210 H         1 RES1    0.0000
     34 H18       -0.5094    3.2735    5.5268 H         1 RES1    0.0000
     35 H19       -1.4382    7.4681    4.9259 H         1 RES1    0.0000
     36 H20       -1.4079    7.8666    6.4258 H         1 RES1    0.0000
     37 H21       -3.4574    8.3917    5.5244 H         1 RES1    0.0000
     38 H22       -3.6686    6.9086    5.1205 H         1 RES1    0.0000
     39 H23       -3.6383    7.3071    6.6179 H         1 RES1    0.0000
@<TRIPOS>BOND
     1    1    5 2
     2    2    5 1
     3    3    4 1
     4    4    9 2
     5    5    6 1
     6    6    7 1
     7    7    8 1
     8    8    9 1
     9    9   10 1
    10   10   11 1
    11   11   23 1
    12   12   10 1
    13   13   10 1
    14   14    6 1
    15   15    7 1
    16   16   15 1
    17   17    2 1
    18   18    3 1
    19   19    6 1
    20   20    7 1
    21   21    8 1
    22   22    8 1
    23   24   11 1
    24   25   11 1
    25   26   12 1
    26   27   12 1
    27   28   12 1
    28   29   13 1
    29   30   13 1
    30   31   13 1
    31   32   14 1
    32   33   14 1
    33   34   14 1
    34   35   15 1
    35   36   15 1
    36   37   16 1
    37   38   16 1
    38   39   16 1
@<TRIPOS>SUBSTRUCTURE
     1 RES1 1

@<TRIPOS>CRYSIN
   9.9394    9.9394   24.6294  90.0000  90.0000 120.0000 154 1

