# MOL2 file generated by ConQuest
# Please check atom types

@<TRIPOS>MOLECULE
DOCJAG
    45    46     1
SMALL
NO_CHARGES
****
Generated from CSD

@<TRIPOS>ATOM
      1 O1         0.3468    3.6648    3.0543 O.2       1 RES1    0.0000
      2 O2         4.2971   -0.5417    4.4120 O.3       1 RES1    0.0000
      3 N1         0.4237    3.0238    0.9089 N.am      1 RES1    0.0000
      4 N2         4.0943    0.3528    5.4635 N.2       1 RES1    0.0000
      5 C1         0.4030    2.0573   -0.1989 C.3       1 RES1    0.0000
      6 C2         0.2943    2.9219   -1.4358 C.3       1 RES1    0.0000
      7 C3         0.7868    4.2624   -1.0397 C.3       1 RES1    0.0000
      8 C4         0.4370    4.4040    0.4123 C.3       1 RES1    0.0000
      9 C5         0.3680    2.7530    2.2135 C.2       1 RES1    0.0000
     10 C6         0.2601    1.3044    2.6501 C.3       1 RES1    0.0000
     11 C7         0.9968    1.0622    3.9743 C.3       1 RES1    0.0000
     12 C8         2.4967    1.3715    3.8482 C.3       1 RES1    0.0000
     13 C9         3.2176    1.2560    5.1595 C.2       1 RES1    0.0000
     14 C10        2.9213    2.2001    6.2590 C.ar      1 RES1    0.0000
     15 C11        2.9718    1.8063    7.5897 C.ar      1 RES1    0.0000
     16 C12        2.6990    2.7058    8.6051 C.ar      1 RES1    0.0000
     17 C13        2.3750    3.9941    8.3189 C.ar      1 RES1    0.0000
     18 C14        2.3184    4.3941    7.0125 C.ar      1 RES1    0.0000
     19 C15        2.5799    3.5158    5.9890 C.ar      1 RES1    0.0000
     20 C16       -1.2190    0.9727    2.7406 C.3       1 RES1    0.0000
     21 C17        0.8062   -0.3628    4.4723 C.3       1 RES1    0.0000
     22 H1         1.2114    1.5355   -0.2183 H         1 RES1    0.0000
     23 H2        -0.3339    1.4485   -0.1180 H         1 RES1    0.0000
     24 H3         0.7915    2.5704   -2.1408 H         1 RES1    0.0000
     25 H4        -0.6342    2.9828   -1.6929 H         1 RES1    0.0000
     26 H5         1.7260    4.3220   -1.1690 H         1 RES1    0.0000
     27 H6         0.3619    4.9494   -1.5571 H         1 RES1    0.0000
     28 H7         1.0805    4.9233    0.8958 H         1 RES1    0.0000
     29 H8        -0.4262    4.8115    0.5433 H         1 RES1    0.0000
     30 H9         0.7046    0.6907    2.0066 H         1 RES1    0.0000
     31 H10        0.6179    1.6486    4.6470 H         1 RES1    0.0000
     32 H11        2.8962    0.7765    3.2031 H         1 RES1    0.0000
     33 H12        2.6153    2.2722    3.5022 H         1 RES1    0.0000
     34 H13        3.2190    0.8883    7.8015 H         1 RES1    0.0000
     35 H14        2.7057    2.3964    9.5284 H         1 RES1    0.0000
     36 H15        2.2164    4.6450    9.0158 H         1 RES1    0.0000
     37 H16        2.0787    5.3084    6.8281 H         1 RES1    0.0000
     38 H17        2.5155    3.7891    5.0770 H         1 RES1    0.0000
     39 H18       -1.3751    0.0721    3.0187 H         1 RES1    0.0000
     40 H19       -1.6347    1.5541    3.3971 H         1 RES1    0.0000
     41 H20       -1.6681    1.1156    1.9096 H         1 RES1    0.0000
     42 H21        1.2289   -0.4733    5.3309 H         1 RES1    0.0000
     43 H22       -0.1391   -0.5330    4.6001 H         1 RES1    0.0000
     44 H23        1.1531   -0.9727    3.8628 H         1 RES1    0.0000
     45 H24        5.0358   -1.0435    4.7052 H         1 RES1    0.0000
@<TRIPOS>BOND
     1    1    9 2
     2    2    4 1
     3    3    5 1
     4    4   13 2
     5    5    6 1
     6    6    7 1
     7    7    8 1
     8    8    3 1
     9    9    3 1
    10   10    9 1
    11   11   10 1
    12   12   11 1
    13   13   12 1
    14   14   13 1
    15   15   14 ar
    16   16   15 ar
    17   17   16 ar
    18   18   17 ar
    19   19   14 ar
    20   20   10 1
    21   21   11 1
    22   22    5 1
    23   23    5 1
    24   24    6 1
    25   25    6 1
    26   26    7 1
    27   27    7 1
    28   28    8 1
    29   29    8 1
    30   30   10 1
    31   31   11 1
    32   32   12 1
    33   33   12 1
    34   34   15 1
    35   35   16 1
    36   36   17 1
    37   37   18 1
    38   38   19 1
    39   39   20 1
    40   40   20 1
    41   41   20 1
    42   42   21 1
    43   43   21 1
    44   44   21 1
    45   45    2 1
    46   18   19 ar
@<TRIPOS>SUBSTRUCTURE
     1 RES1 1

@<TRIPOS>CRYSIN
   8.1136   12.4232   16.5662  90.0000 102.5730  90.0000  14 1

