# MOL2 file generated by ConQuest
# Please check atom types

@<TRIPOS>MOLECULE
DOCXAV
    53    56     1
SMALL
NO_CHARGES
****
Generated from CSD

@<TRIPOS>ATOM
      1 N1        17.7674    3.4911    5.4169 N.2       1 RES1    0.0000
      2 O1        17.4450    4.3459    4.3589 O.3       1 RES1    0.0000
      3 O2        17.5733    2.3825    7.7225 O.3       1 RES1    0.0000
      4 H1        17.3570    2.8841    7.1101 H         1 RES1    0.0000
      5 C1        16.2086    5.0062    4.6589 C.3       1 RES1    0.0000
      6 H2        16.3116    5.5721    5.4403 H         1 RES1    0.0000
      7 H3        15.5140    4.3534    4.8396 H         1 RES1    0.0000
      8 C2        15.8410    5.8428    3.4485 C.3       1 RES1    0.0000
      9 H4        15.0901    6.4144    3.6761 H         1 RES1    0.0000
     10 H5        16.5918    6.4144    3.2209 H         1 RES1    0.0000
     11 C3        18.8364    2.8421    5.2169 C.2       1 RES1    0.0000
     12 H6        19.3079    2.9820    4.4272 H         1 RES1    0.0000
     13 C4        19.3483    1.8869    6.1797 C.ar      1 RES1    0.0000
     14 C5        18.7064    1.7218    7.3873 C.ar      1 RES1    0.0000
     15 C6        19.1893    0.8161    8.3522 C.ar      1 RES1    0.0000
     16 H7        18.7309    0.7013    9.1529 H         1 RES1    0.0000
     17 C7        20.3053    0.1232    8.1184 C.ar      1 RES1    0.0000
     18 H8        20.6257   -0.4549    8.7722 H         1 RES1    0.0000
     19 C8        21.0051    0.2440    6.9121 C.ar      1 RES1    0.0000
     20 C9        20.5250    1.1264    5.9245 C.ar      1 RES1    0.0000
     21 C10       21.2382    1.1894    4.7196 C.ar      1 RES1    0.0000
     22 H9        20.9320    1.7530    4.0458 H         1 RES1    0.0000
     23 C11       22.3569    0.4582    4.5037 C.ar      1 RES1    0.0000
     24 H10       22.8101    0.5338    3.6961 H         1 RES1    0.0000
     25 C12       22.8326   -0.4111    5.4920 C.ar      1 RES1    0.0000
     26 H11       23.6012   -0.9145    5.3424 H         1 RES1    0.0000
     27 C13       22.1682   -0.5151    6.6687 C.ar      1 RES1    0.0000
     28 H12       22.4828   -1.0946    7.3239 H         1 RES1    0.0000
     29 N1A       13.9145    3.4911    1.4801 N.2       1 RES1    0.0000
     30 O1A       14.2369    4.3459    2.5381 O.3       1 RES1    0.0000
     31 O2A       14.1086    2.3825   -0.8256 O.3       1 RES1    0.0000
     32 H1A       14.3250    2.8841   -0.2131 H         1 RES1    0.0000
     33 C1A       15.4733    5.0062    2.2381 C.3       1 RES1    0.0000
     34 H2A       15.3703    5.5721    1.4566 H         1 RES1    0.0000
     35 H3A       16.1679    4.3534    2.0574 H         1 RES1    0.0000
     36 C3A       12.8456    2.8421    1.6801 C.2       1 RES1    0.0000
     37 H6A       12.3741    2.9820    2.4698 H         1 RES1    0.0000
     38 C4A       12.3336    1.8869    0.7173 C.ar      1 RES1    0.0000
     39 C5A       12.9755    1.7218   -0.4904 C.ar      1 RES1    0.0000
     40 C6A       12.4926    0.8161   -1.4553 C.ar      1 RES1    0.0000
     41 H7A       12.9510    0.7013   -2.2560 H         1 RES1    0.0000
     42 C7A       11.3766    0.1232   -1.2215 C.ar      1 RES1    0.0000
     43 H8A       11.0562   -0.4549   -1.8753 H         1 RES1    0.0000
     44 C8A       10.6768    0.2440   -0.0152 C.ar      1 RES1    0.0000
     45 C9A       11.1569    1.1264    0.9725 C.ar      1 RES1    0.0000
     46 C10A      10.4437    1.1894    2.1774 C.ar      1 RES1    0.0000
     47 H9A       10.7500    1.7530    2.8512 H         1 RES1    0.0000
     48 C11A       9.3250    0.4582    2.3932 C.ar      1 RES1    0.0000
     49 H10A       8.8718    0.5338    3.2009 H         1 RES1    0.0000
     50 C12A       8.8494   -0.4111    1.4049 C.ar      1 RES1    0.0000
     51 H11A       8.0807   -0.9145    1.5546 H         1 RES1    0.0000
     52 C13A       9.5138   -0.5151    0.2283 C.ar      1 RES1    0.0000
     53 H12A       9.1991   -1.0946   -0.4269 H         1 RES1    0.0000
@<TRIPOS>BOND
     1    1    2 1
     2    2    5 1
     3    3    4 1
     4    5    6 1
     5    7    5 1
     6    8    5 1
     7    9    8 1
     8   10    8 1
     9   11    1 2
    10   12   11 1
    11   13   11 1
    12   14    3 1
    13   15   14 ar
    14   16   15 1
    15   17   15 ar
    16   18   17 1
    17   19   17 ar
    18   20   13 ar
    19   21   20 ar
    20   22   21 1
    21   23   21 ar
    22   24   23 1
    23   25   23 ar
    24   26   25 1
    25   27   19 ar
    26   28   27 1
    27   29   30 1
    28   30   33 1
    29   31   32 1
    30   33    8 1
    31   34   33 1
    32   35   33 1
    33   36   29 2
    34   37   36 1
    35   38   36 1
    36   39   31 1
    37   40   39 ar
    38   41   40 1
    39   42   40 ar
    40   43   42 1
    41   44   42 ar
    42   45   38 ar
    43   46   45 ar
    44   47   46 1
    45   48   46 ar
    46   49   48 1
    47   50   48 ar
    48   51   50 1
    49   52   44 ar
    50   53   52 1
    51   13   14 ar
    52   19   20 ar
    53   25   27 ar
    54   38   39 ar
    55   44   45 ar
    56   50   52 ar
@<TRIPOS>SUBSTRUCTURE
     1 RES1 1

@<TRIPOS>CRYSIN
  31.8500    4.6660    6.8990  90.0000  91.3960  90.0000   5 1

