# MOL2 file generated by ConQuest
# Please check atom types

@<TRIPOS>MOLECULE
DODPAP
    78    84     2
SMALL
NO_CHARGES
****
Generated from CSD

@<TRIPOS>ATOM
      1 O1         2.6050    0.4756    4.3794 O.2       1 RES1    0.0000
      2 O2         1.4213   -1.6962   -2.4733 O.2       1 RES1    0.0000
      3 O3         2.8131   -3.0750   -1.5633 O.2       1 RES1    0.0000
      4 N1         1.9975   -2.1551   -1.4948 N.pl3     1 RES1    0.0000
      5 C1         1.4632    0.8916    4.4220 C.2       1 RES1    0.0000
      6 C2         1.0099    1.8020    5.5190 C.ar      1 RES1    0.0000
      7 C3         1.8748    2.0325    6.6003 C.ar      1 RES1    0.0000
      8 H1         2.7340    1.6263    6.6128 H         1 RES1    0.0000
      9 C4         1.4844    2.8470    7.6505 C.ar      1 RES1    0.0000
     10 H2         2.0706    2.9983    8.3829 H         1 RES1    0.0000
     11 C5         0.2187    3.4476    7.6256 C.ar      1 RES1    0.0000
     12 H3        -0.0582    3.9997    8.3475 H         1 RES1    0.0000
     13 C6        -0.6304    3.2423    6.5526 C.ar      1 RES1    0.0000
     14 H4        -1.4792    3.6701    6.5411 H         1 RES1    0.0000
     15 C7        -0.2617    2.4135    5.4795 C.ar      1 RES1    0.0000
     16 C8        -1.1999    2.2015    4.3213 C.3       1 RES1    0.0000
     17 H5        -1.6895    3.0428    4.1374 H         1 RES1    0.0000
     18 H6        -1.8646    1.5072    4.5602 H         1 RES1    0.0000
     19 C9        -0.4442    1.7686    3.0644 C.3       1 RES1    0.0000
     20 H7         0.1444    2.5038    2.7600 H         1 RES1    0.0000
     21 H8        -1.0882    1.5668    2.3403 H         1 RES1    0.0000
     22 C10        0.4048    0.5137    3.3718 C.3       1 RES1    0.0000
     23 H9        -0.2103   -0.1358    3.8185 H         1 RES1    0.0000
     24 C11        0.9617   -0.2030    2.1565 C.ar      1 RES1    0.0000
     25 C12        1.1208    0.4816    0.9796 C.ar      1 RES1    0.0000
     26 H10        1.0003    1.4235    0.9681 H         1 RES1    0.0000
     27 C13        1.4619   -0.1879   -0.2181 C.ar      1 RES1    0.0000
     28 H11        1.5170    0.2905   -1.0367 H         1 RES1    0.0000
     29 C14        1.7115   -1.5334   -0.1828 C.ar      1 RES1    0.0000
     30 C15        1.6770   -2.3076    1.0149 C.ar      1 RES1    0.0000
     31 C16        1.9568   -3.6981    1.1011 C.ar      1 RES1    0.0000
     32 H12        2.2341   -4.1674    0.3231 H         1 RES1    0.0000
     33 C17        1.8336   -4.3702    2.2853 C.ar      1 RES1    0.0000
     34 H13        2.0402   -5.2975    2.3227 H         1 RES1    0.0000
     35 C18        1.4033   -3.7037    3.4581 C.ar      1 RES1    0.0000
     36 H14        1.3070   -4.1823    4.2725 H         1 RES1    0.0000
     37 C19        1.1232   -2.3545    3.4092 C.ar      1 RES1    0.0000
     38 H15        0.8332   -1.9123    4.1987 H         1 RES1    0.0000
     39 C20        1.2585   -1.6135    2.2136 C.ar      1 RES1    0.0000
     40 O4         3.1492    8.7139    5.7901 O.2       2 RES2    0.0000
     41 O5         3.7570    2.9340    2.0329 O.2       2 RES2    0.0000
     42 O6         2.6017    3.8719    0.4560 O.2       2 RES2    0.0000
     43 N2         3.0303    3.8311    1.6205 N.pl3     2 RES2    0.0000
     44 C21        2.0054    8.5403    6.2046 C.2       2 RES2    0.0000
     45 C22        1.5167    9.2671    7.4189 C.ar      2 RES2    0.0000
     46 C23        2.3179   10.2851    7.9601 C.ar      2 RES2    0.0000
     47 H16        3.1611   10.4792    7.5674 H         2 RES2    0.0000
     48 C24        1.8878   11.0148    9.0705 C.ar      2 RES2    0.0000
     49 H17        2.4231   11.7137    9.4279 H         2 RES2    0.0000
     50 C25        0.6463   10.6979    9.6491 C.ar      2 RES2    0.0000
     51 H18        0.3452   11.1793   10.4116 H         2 RES2    0.0000
     52 C26       -0.1463    9.6860    9.1173 C.ar      2 RES2    0.0000
     53 H19       -0.9798    9.4818    9.5255 H         2 RES2    0.0000
     54 C27        0.2629    8.9621    7.9923 C.ar      2 RES2    0.0000
     55 C28       -0.6246    7.8867    7.4054 C.3       2 RES2    0.0000
     56 H20       -1.2999    8.3036    6.8143 H         2 RES2    0.0000
     57 H21       -1.1025    7.4198    8.1367 H         2 RES2    0.0000
     58 C29        0.1960    6.8703    6.6035 C.3       2 RES2    0.0000
     59 H22       -0.4094    6.2100    6.1827 H         2 RES2    0.0000
     60 H23        0.8097    6.3837    7.2101 H         2 RES2    0.0000
     61 C30        1.0083    7.5944    5.5169 C.3       2 RES2    0.0000
     62 H24        0.3623    8.1749    5.0224 H         2 RES2    0.0000
     63 C31        1.6550    6.6908    4.4802 C.ar      2 RES2    0.0000
     64 C32        2.0142    5.3976    4.8251 C.ar      2 RES2    0.0000
     65 H25        1.9297    5.1178    5.7288 H         2 RES2    0.0000
     66 C33        2.5004    4.4914    3.8653 C.ar      2 RES2    0.0000
     67 H26        2.7409    3.6083    4.1187 H         2 RES2    0.0000
     68 C34        2.6230    4.8942    2.5616 C.ar      2 RES2    0.0000
     69 C35        2.3389    6.2167    2.1253 C.ar      2 RES2    0.0000
     70 C36        2.5649    6.7031    0.8061 C.ar      2 RES2    0.0000
     71 H27        2.9034    6.1144    0.1423 H         2 RES2    0.0000
     72 C37        2.3011    8.0067    0.4789 C.ar      2 RES2    0.0000
     73 H28        2.4559    8.3108   -0.4072 H         2 RES2    0.0000
     74 C38        1.7986    8.9052    1.4522 C.ar      2 RES2    0.0000
     75 H29        1.6107    9.8058    1.2154 H         2 RES2    0.0000
     76 C39        1.5857    8.4764    2.7320 C.ar      2 RES2    0.0000
     77 H30        1.2457    9.0881    3.3750 H         2 RES2    0.0000
     78 C40        1.8600    7.1322    3.1277 C.ar      2 RES2    0.0000
@<TRIPOS>BOND
     1    1    5 2
     2    2    4 2
     3    3    4 2
     4    4   29 1
     5    5    6 1
     6    6    7 ar
     7    7    8 1
     8    9    7 ar
     9   10    9 1
    10   11    9 ar
    11   12   11 1
    12   13   11 ar
    13   14   13 1
    14   15    6 ar
    15   16   15 1
    16   17   16 1
    17   18   16 1
    18   19   16 1
    19   20   19 1
    20   21   19 1
    21   22    5 1
    22   23   22 1
    23   24   22 1
    24   25   24 ar
    25   26   25 1
    26   27   25 ar
    27   28   27 1
    28   29   27 ar
    29   30   29 ar
    30   31   30 ar
    31   32   31 1
    32   33   31 ar
    33   34   33 1
    34   35   33 ar
    35   36   35 1
    36   37   35 ar
    37   38   37 1
    38   39   24 ar
    39   40   44 2
    40   41   43 2
    41   42   43 2
    42   43   68 1
    43   44   45 1
    44   45   46 ar
    45   46   47 1
    46   48   46 ar
    47   49   48 1
    48   50   48 ar
    49   51   50 1
    50   52   50 ar
    51   53   52 1
    52   54   45 ar
    53   55   54 1
    54   56   55 1
    55   57   55 1
    56   58   55 1
    57   59   58 1
    58   60   58 1
    59   61   44 1
    60   62   61 1
    61   63   61 1
    62   64   63 ar
    63   65   64 1
    64   66   64 ar
    65   67   66 1
    66   68   66 ar
    67   69   68 ar
    68   70   69 ar
    69   71   70 1
    70   72   70 ar
    71   73   72 1
    72   74   72 ar
    73   75   74 1
    74   76   74 ar
    75   77   76 1
    76   78   63 ar
    77   13   15 ar
    78   19   22 1
    79   30   39 ar
    80   37   39 ar
    81   52   54 ar
    82   58   61 1
    83   69   78 ar
    84   76   78 ar
@<TRIPOS>SUBSTRUCTURE
     1 RES1 1
     2 RES2 40

@<TRIPOS>CRYSIN
   7.1761   10.4020   10.8110  97.2290 101.4800 107.0790   1 1

