# MOL2 file generated by ConQuest
# Please check atom types

@<TRIPOS>MOLECULE
DOFTEZ
    92   100     2
SMALL
NO_CHARGES
****
Generated from CSD

@<TRIPOS>ATOM
      1 O1         1.9379    4.0753    3.4081 O.2       1 RES1    0.0000
      2 O2         2.4510    2.1030    7.5040 O.2       1 RES1    0.0000
      3 O3         2.6144    1.6828    4.6490 O.3       1 RES1    0.0000
      4 O4         4.6984    2.5899    4.5506 O.2       1 RES1    0.0000
      5 O5         5.4550    0.4333    3.0809 O.3       1 RES1    0.0000
      6 O6         3.2477   -0.0450    2.7973 O.2       1 RES1    0.0000
      7 N1         2.2112    2.8258    5.3195 N.am      1 RES1    0.0000
      8 C1         1.8367    3.9693    4.5967 C.2       1 RES1    0.0000
      9 C2         1.3460    4.8900    5.6493 C.ar      1 RES1    0.0000
     10 C3         0.7903    6.1486    5.5312 C.ar      1 RES1    0.0000
     11 C4         0.3987    6.7781    6.7081 C.ar      1 RES1    0.0000
     12 C5         0.5713    6.1740    7.9424 C.ar      1 RES1    0.0000
     13 C6         1.1319    4.9058    8.0547 C.ar      1 RES1    0.0000
     14 C7         1.5075    4.2777    6.8891 C.ar      1 RES1    0.0000
     15 C8         2.1139    2.9314    6.7068 C.2       1 RES1    0.0000
     16 C9         3.9310    1.7569    4.2247 C.2       1 RES1    0.0000
     17 C10        4.1583    0.5726    3.2604 C.2       1 RES1    0.0000
     18 C11        5.9994   -0.5813    2.1334 C.3       1 RES1    0.0000
     19 C12        5.5094   -1.9878    2.4469 C.3       1 RES1    0.0000
     20 C13        6.2287   -2.9631    1.5019 C.3       1 RES1    0.0000
     21 C14        5.8983   -2.5990    0.0509 C.3       1 RES1    0.0000
     22 C15        6.3723   -1.1759   -0.2419 C.3       1 RES1    0.0000
     23 C16        7.8854   -1.0788   -0.0226 C.3       1 RES1    0.0000
     24 C17        8.2192   -1.4484    1.4274 C.3       1 RES1    0.0000
     25 C18        7.5011   -0.4746    2.3645 C.3       1 RES1    0.0000
     26 C19        5.6589   -0.1943    0.7015 C.3       1 RES1    0.0000
     27 C20        7.7417   -2.8715    1.7181 C.3       1 RES1    0.0000
     28 H1         0.6518    6.5697    4.6775 H         1 RES1    0.0000
     29 H2         0.0276    7.6612    6.6582 H         1 RES1    0.0000
     30 H3         0.3234    6.6472    8.7097 H         1 RES1    0.0000
     31 H4         1.2645    4.4643    8.9196 H         1 RES1    0.0000
     32 H5         4.5119   -2.0491    2.2981 H         1 RES1    0.0000
     33 H6         5.7259   -2.1969    3.3580 H         1 RES1    0.0000
     34 H7         5.9371   -3.8658    1.6842 H         1 RES1    0.0000
     35 H8         6.3418   -3.2602   -0.5614 H         1 RES1    0.0000
     36 H9         4.9277   -2.6476   -0.1076 H         1 RES1    0.0000
     37 H10        6.1691   -0.9365   -1.1648 H         1 RES1    0.0000
     38 H11        8.1735   -0.1479   -0.2046 H         1 RES1    0.0000
     39 H12        8.3641   -1.6970   -0.6401 H         1 RES1    0.0000
     40 H13        9.1900   -1.3661    1.5740 H         1 RES1    0.0000
     41 H14        7.7075   -0.6760    3.3081 H         1 RES1    0.0000
     42 H15        7.7772    0.4647    2.1774 H         1 RES1    0.0000
     43 H16        5.9570    0.7323    0.5326 H         1 RES1    0.0000
     44 H17        4.6738   -0.2324    0.5667 H         1 RES1    0.0000
     45 H18        7.9669   -3.1053    2.6339 H         1 RES1    0.0000
     46 H19        8.1929   -3.5208    1.1228 H         1 RES1    0.0000
     47 O7        -4.9219    5.9194   12.2794 O.2       2 RES2    0.0000
     48 O8        -2.5651    5.4862   16.1812 O.2       2 RES2    0.0000
     49 O9        -5.0939    6.1777   15.0983 O.3       2 RES2    0.0000
     50 O10       -5.4811    3.9550   15.3609 O.2       2 RES2    0.0000
     51 O11       -7.0455    6.7090   16.7033 O.3       2 RES2    0.0000
     52 O12       -8.0767    4.7753   16.1041 O.2       2 RES2    0.0000
     53 N2        -3.9612    5.8154   14.3776 N.am      2 RES2    0.0000
     54 C21       -3.9618    5.7610   12.9762 C.2       2 RES2    0.0000
     55 C22       -2.5405    5.4653   12.6601 C.ar      2 RES2    0.0000
     56 C23       -1.9393    5.3030   11.4313 C.ar      2 RES2    0.0000
     57 C24       -0.5766    5.0297   11.4271 C.ar      2 RES2    0.0000
     58 C25        0.1441    4.9171   12.6066 C.ar      2 RES2    0.0000
     59 C26       -0.4663    5.0628   13.8453 C.ar      2 RES2    0.0000
     60 C27       -1.8204    5.3389   13.8419 C.ar      2 RES2    0.0000
     61 C28       -2.7409    5.5395   14.9944 C.2       2 RES2    0.0000
     62 C29       -5.8116    5.0776   15.5188 C.2       2 RES2    0.0000
     63 C30       -7.1397    5.5169   16.1642 C.2       2 RES2    0.0000
     64 C31       -8.1850    7.2915   17.4733 C.3       2 RES2    0.0000
     65 C32       -7.6145    8.6103   17.9683 C.3       2 RES2    0.0000
     66 C33       -8.6871    9.3420   18.7907 C.3       2 RES2    0.0000
     67 C34       -9.0799    8.4688   19.9763 C.3       2 RES2    0.0000
     68 C35       -9.6339    7.1344   19.4757 C.3       2 RES2    0.0000
     69 C36      -10.8537    7.3901   18.5914 C.3       2 RES2    0.0000
     70 C37      -10.4566    8.2674   17.4053 C.3       2 RES2    0.0000
     71 C38       -9.3815    7.5471   16.5750 C.3       2 RES2    0.0000
     72 C39       -8.5598    6.4021   18.6480 C.3       2 RES2    0.0000
     73 C40       -9.9097    9.6004   17.9114 C.3       2 RES2    0.0000
     74 H20       -2.4539    5.3727   10.6091 H         2 RES2    0.0000
     75 H21       -0.1258    4.8938   10.5986 H         2 RES2    0.0000
     76 H22        1.0851    4.7248   12.5530 H         2 RES2    0.0000
     77 H23        0.0231    4.9854   14.6701 H         2 RES2    0.0000
     78 H24       -7.3267    9.1610   17.1886 H         2 RES2    0.0000
     79 H25       -6.8313    8.4146   18.5502 H         2 RES2    0.0000
     80 H26       -8.3382   10.1679   19.0958 H         2 RES2    0.0000
     81 H27       -9.7721    8.9286   20.5072 H         2 RES2    0.0000
     82 H28       -8.2941    8.3019   20.5650 H         2 RES2    0.0000
     83 H29       -9.8963    6.5838   20.2265 H         2 RES2    0.0000
     84 H30      -11.5440    7.8442   19.1221 H         2 RES2    0.0000
     85 H31      -11.2211    6.5275   18.2721 H         2 RES2    0.0000
     86 H32      -11.2555    8.4357   16.8476 H         2 RES2    0.0000
     87 H33       -9.7288    6.6753   16.2284 H         2 RES2    0.0000
     88 H34       -9.0958    8.1188   15.8271 H         2 RES2    0.0000
     89 H35       -7.7619    6.2458   19.1824 H         2 RES2    0.0000
     90 H36       -8.9209    5.5065   18.3246 H         2 RES2    0.0000
     91 H37      -10.6182   10.0764   18.4190 H         2 RES2    0.0000
     92 H38       -9.6851   10.1750   17.1545 H         2 RES2    0.0000
@<TRIPOS>BOND
     1    1    8 2
     2    2   15 2
     3    3    7 1
     4    4   16 2
     5    5   17 1
     6    6   17 2
     7    7    8 1
     8    8    9 1
     9    9   10 ar
    10   10   11 ar
    11   11   12 ar
    12   12   13 ar
    13   13   14 ar
    14   14    9 ar
    15   15    7 1
    16   16    3 1
    17   17   16 1
    18   18    5 1
    19   19   18 1
    20   20   19 1
    21   21   20 1
    22   22   21 1
    23   23   22 1
    24   24   23 1
    25   25   18 1
    26   26   18 1
    27   27   20 1
    28   28   10 1
    29   29   11 1
    30   30   12 1
    31   31   13 1
    32   32   19 1
    33   33   19 1
    34   34   20 1
    35   35   21 1
    36   36   21 1
    37   37   22 1
    38   38   23 1
    39   39   23 1
    40   40   24 1
    41   41   25 1
    42   42   25 1
    43   43   26 1
    44   44   26 1
    45   45   27 1
    46   46   27 1
    47   47   54 2
    48   48   61 2
    49   49   53 1
    50   50   62 2
    51   51   63 1
    52   52   63 2
    53   53   54 1
    54   54   55 1
    55   55   56 ar
    56   56   57 ar
    57   57   58 ar
    58   58   59 ar
    59   59   60 ar
    60   60   55 ar
    61   61   53 1
    62   62   49 1
    63   63   62 1
    64   64   51 1
    65   65   64 1
    66   66   65 1
    67   67   66 1
    68   68   67 1
    69   69   68 1
    70   70   69 1
    71   71   64 1
    72   72   64 1
    73   73   66 1
    74   74   56 1
    75   75   57 1
    76   76   58 1
    77   77   59 1
    78   78   65 1
    79   79   65 1
    80   80   66 1
    81   81   67 1
    82   82   67 1
    83   83   68 1
    84   84   69 1
    85   85   69 1
    86   86   70 1
    87   87   71 1
    88   88   71 1
    89   89   72 1
    90   90   72 1
    91   91   73 1
    92   92   73 1
    93   14   15 1
    94   22   26 1
    95   24   25 1
    96   24   27 1
    97   60   61 1
    98   68   72 1
    99   70   71 1
   100   70   73 1
@<TRIPOS>SUBSTRUCTURE
     1 RES1 1
     2 RES2 47

@<TRIPOS>CRYSIN
  18.6748    7.0415   26.4106  90.0000  96.6267  90.0000  14 1

