# MOL2 file generated by ConQuest
# Please check atom types

@<TRIPOS>MOLECULE
DOHCOS01
    21    21     1
SMALL
NO_CHARGES
****
Generated from CSD

@<TRIPOS>ATOM
      1 C1        -0.3550    5.0821   10.1313 C.ar      1 RES1    0.0000
      2 C2        -0.9875    4.9332   11.3790 C.ar      1 RES1    0.0000
      3 C3        -1.2450    3.7282   12.0396 C.ar      1 RES1    0.0000
      4 C4        -0.8582    2.5878   11.3609 C.ar      1 RES1    0.0000
      5 C5        -0.2293    2.5855   10.1272 C.ar      1 RES1    0.0000
      6 C6        -0.0149    3.8450    9.5638 C.ar      1 RES1    0.0000
      7 C7        -0.1247    6.4561    9.4317 C.3       1 RES1    0.0000
      8 C8        -1.3623    6.7228    8.5387 C.3       1 RES1    0.0000
      9 C9         1.1452    6.4794    8.5596 C.3       1 RES1    0.0000
     10 C10        0.0624    7.6199   10.4109 C.3       1 RES1    0.0000
     11 C11       -1.9034    3.6627   13.4000 C.3       1 RES1    0.0000
     12 C12        0.1786    1.2994    9.4373 C.3       1 RES1    0.0000
     13 N1        -1.4994    6.1048   12.1203 N.pl3     1 RES1    0.0000
     14 N2        -1.1730    1.2839   11.9701 N.pl3     1 RES1    0.0000
     15 N3         0.5948    3.7683    8.2147 N.pl3     1 RES1    0.0000
     16 O1        -2.5734    6.5517   11.7698 O.2       1 RES1    0.0000
     17 O2        -0.8436    6.5072   13.0689 O.2       1 RES1    0.0000
     18 O3        -0.4374    0.8448   12.7991 O.2       1 RES1    0.0000
     19 O4        -2.1870    0.7403   11.6224 O.2       1 RES1    0.0000
     20 O5        -0.1459    3.9039    7.2577 O.2       1 RES1    0.0000
     21 O6         1.7907    3.5148    8.1465 O.2       1 RES1    0.0000
@<TRIPOS>BOND
     1    1    2 ar
     2    2    3 ar
     3    3    4 ar
     4    4    5 ar
     5    5    6 ar
     6    6    1 ar
     7    7    1 1
     8    8    7 1
     9    9    7 1
    10   10    7 1
    11   11    3 1
    12   12    5 1
    13   13    2 1
    14   14    4 1
    15   15    6 1
    16   16   13 2
    17   17   13 2
    18   18   14 2
    19   19   14 2
    20   20   15 2
    21   21   15 2
@<TRIPOS>SUBSTRUCTURE
     1 RES1 1

@<TRIPOS>CRYSIN
   9.2162   11.1158   14.6040  90.0000 107.7470  90.0000  14 2

