# MOL2 file generated by ConQuest
# Please check atom types

@<TRIPOS>MOLECULE
DOHCUY01
    19    19     1
SMALL
NO_CHARGES
****
Generated from CSD

@<TRIPOS>ATOM
      1 C1         0.7718    2.5730    5.9740 C.ar      1 RES1    0.0000
      2 C2         2.0801    2.8107    5.5360 C.ar      1 RES1    0.0000
      3 C3         3.2014    2.0406    5.8303 C.ar      1 RES1    0.0000
      4 C4         3.0455    0.9277    6.6538 C.ar      1 RES1    0.0000
      5 C5         1.7790    0.5951    7.1147 C.ar      1 RES1    0.0000
      6 C6         0.7067    1.4178    6.7480 C.ar      1 RES1    0.0000
      7 C7        -0.4540    3.4700    5.5974 C.3       1 RES1    0.0000
      8 C8        -1.0341    2.9639    4.2753 C.3       1 RES1    0.0000
      9 C9        -1.5718    3.4510    6.6538 C.3       1 RES1    0.0000
     10 C10       -0.0775    4.9592    5.4557 C.3       1 RES1    0.0000
     11 C11        4.5599    2.4038    5.2773 C.3       1 RES1    0.0000
     12 C12        4.2527    0.1094    7.0572 C.3       1 RES1    0.0000
     13 C13        1.5744   -0.6330    7.9739 C.3       1 RES1    0.0000
     14 N1         2.3852    3.9455    4.6371 N.pl3     1 RES1    0.0000
     15 N2        -0.5892    0.9262    7.2683 N.pl3     1 RES1    0.0000
     16 O1         2.1539    3.7894    3.4478 O.2       1 RES1    0.0000
     17 O2         2.9105    4.9374    5.1187 O.2       1 RES1    0.0000
     18 O3        -0.8596    1.1421    8.4377 O.2       1 RES1    0.0000
     19 O4        -1.2960    0.2903    6.4963 O.2       1 RES1    0.0000
@<TRIPOS>BOND
     1    1    2 ar
     2    2    3 ar
     3    3    4 ar
     4    4    5 ar
     5    5    6 ar
     6    6    1 ar
     7    7    1 1
     8    8    7 1
     9    9    7 1
    10   10    7 1
    11   11    3 1
    12   12    4 1
    13   13    5 1
    14   14    2 1
    15   15    6 1
    16   16   14 2
    17   17   14 2
    18   18   15 2
    19   19   15 2
@<TRIPOS>SUBSTRUCTURE
     1 RES1 1

@<TRIPOS>CRYSIN
   9.5893   14.5860   10.9846  90.0000 115.5500  90.0000 231 1

