# MOL2 file generated by ConQuest
# Please check atom types

@<TRIPOS>MOLECULE
DOHCOS
    36    36     1
SMALL
NO_CHARGES
****
Generated from CSD

@<TRIPOS>ATOM
      1 C1         4.2457    0.4719   10.1414 C.ar      1 RES1    0.0000
      2 C2         3.6268    0.6229   11.3916 C.ar      1 RES1    0.0000
      3 C3         3.3602    1.8233   12.0558 C.ar      1 RES1    0.0000
      4 C4         3.7441    2.9670   11.3624 C.ar      1 RES1    0.0000
      5 C5         4.3708    2.9725   10.1428 C.ar      1 RES1    0.0000
      6 C6         4.5918    1.7100    9.5747 C.ar      1 RES1    0.0000
      7 C7         4.4718   -0.8972    9.4369 C.3       1 RES1    0.0000
      8 C8         3.2566   -1.1604    8.5458 C.3       1 RES1    0.0000
      9 C9         5.7437   -0.9172    8.5639 C.3       1 RES1    0.0000
     10 C10        4.6674   -2.0653   10.4143 C.3       1 RES1    0.0000
     11 C11        4.7855    4.2539    9.4425 C.3       1 RES1    0.0000
     12 C12        2.6985    1.8855   13.4021 C.3       1 RES1    0.0000
     13 N1         5.2037    1.7911    8.2340 N.pl3     1 RES1    0.0000
     14 N2         3.1064   -0.5474   12.1309 N.pl3     1 RES1    0.0000
     15 N3         3.4272    4.2650   11.9792 N.pl3     1 RES1    0.0000
     16 O1         4.4624    1.6600    7.2635 O.2       1 RES1    0.0000
     17 O2         6.3963    2.0365    8.1574 O.2       1 RES1    0.0000
     18 O3         2.0288   -0.9927   11.7773 O.2       1 RES1    0.0000
     19 O4         3.7630   -0.9561   13.0749 O.2       1 RES1    0.0000
     20 O5         2.4075    4.8047   11.6492 O.2       1 RES1    0.0000
     21 O6         4.1739    4.7170   12.8062 O.2       1 RES1    0.0000
     22 H1         3.3653   -1.9987    8.1727 H         1 RES1    0.0000
     23 H2         2.4154   -1.2770    9.0916 H         1 RES1    0.0000
     24 H3         3.1004   -0.3997    7.9917 H         1 RES1    0.0000
     25 H4         5.9631   -1.8544    8.2423 H         1 RES1    0.0000
     26 H5         6.6462   -0.6773    9.1612 H         1 RES1    0.0000
     27 H6         5.8186   -0.2998    7.6575 H         1 RES1    0.0000
     28 H7         4.8916   -2.8537    9.8852 H         1 RES1    0.0000
     29 H8         5.2931   -1.8655   11.2218 H         1 RES1    0.0000
     30 H9         3.7754   -2.3318   10.7763 H         1 RES1    0.0000
     31 H10        4.4202    4.9635    9.8017 H         1 RES1    0.0000
     32 H11        4.2184    4.3750    8.5904 H         1 RES1    0.0000
     33 H12        5.8733    4.3972    9.3561 H         1 RES1    0.0000
     34 H13        2.1256    2.5539   13.5887 H         1 RES1    0.0000
     35 H14        2.2098    1.1659   13.7001 H         1 RES1    0.0000
     36 H15        3.3216    2.0320   14.1456 H         1 RES1    0.0000
@<TRIPOS>BOND
     1    1    2 ar
     2    2    3 ar
     3    3    4 ar
     4    4    5 ar
     5    5    6 ar
     6    6    1 ar
     7    7    1 1
     8    8    7 1
     9    9    7 1
    10   10    7 1
    11   11    5 1
    12   12    3 1
    13   13    6 1
    14   14    2 1
    15   15    4 1
    16   16   13 2
    17   17   13 2
    18   18   14 2
    19   19   14 2
    20   20   15 2
    21   21   15 2
    22   22    8 1
    23   23    8 1
    24   24    8 1
    25   25    9 1
    26   26    9 1
    27   27    9 1
    28   28   10 1
    29   29   10 1
    30   30   10 1
    31   31   11 1
    32   32   11 1
    33   33   11 1
    34   34   12 1
    35   35   12 1
    36   36   12 1
@<TRIPOS>SUBSTRUCTURE
     1 RES1 1

@<TRIPOS>CRYSIN
   9.2260   11.1040   14.6220  90.0000 107.7900  90.0000  14 2

