# MOL2 file generated by ConQuest
# Please check atom types

@<TRIPOS>MOLECULE
DOHFEL
    38    41     1
SMALL
NO_CHARGES
****
Generated from CSD

@<TRIPOS>ATOM
      1 O1        -1.8569   -6.6357   -0.7591 O.3       1 RES1    0.0000
      2 O2        -4.3034   -9.0950   -4.1354 O.3       1 RES1    0.0000
      3 O3        -1.4036  -10.7576   -2.4055 O.2       1 RES1    0.0000
      4 O4        -1.6515   -9.9172   -0.4483 O.2       1 RES1    0.0000
      5 N1        -2.2093   -4.8060   -2.1771 N.pl3     1 RES1    0.0000
      6 H1        -2.4836   -3.9914   -2.1596 H         1 RES1    0.0000
      7 N2        -1.6568   -9.8315   -1.6615 N.pl3     1 RES1    0.0000
      8 C1        -2.8656   -5.8263   -1.4128 C.3       1 RES1    0.0000
      9 C2        -1.1118   -5.1806   -2.9497 C.ar      1 RES1    0.0000
     10 C3        -0.5176   -4.3131   -3.8595 C.ar      1 RES1    0.0000
     11 H2        -0.8132   -3.4331   -3.9183 H         1 RES1    0.0000
     12 C4         0.5010   -4.7455   -4.6708 C.ar      1 RES1    0.0000
     13 H3         0.8913   -4.1541   -5.2740 H         1 RES1    0.0000
     14 C5         0.9542   -6.0486   -4.6020 C.ar      1 RES1    0.0000
     15 H4         1.6234   -6.3458   -5.1749 H         1 RES1    0.0000
     16 C6         0.4040   -6.9015   -3.6748 C.ar      1 RES1    0.0000
     17 H5         0.7170   -7.7751   -3.6144 H         1 RES1    0.0000
     18 C7        -0.6131   -6.4797   -2.8247 C.ar      1 RES1    0.0000
     19 C8        -1.1308   -7.3763   -1.7277 C.3       1 RES1    0.0000
     20 H6        -0.3585   -7.7823   -1.2802 H         1 RES1    0.0000
     21 C9        -2.0153   -8.5168   -2.2818 C.3       1 RES1    0.0000
     22 H7        -1.8743   -8.5792   -3.2502 H         1 RES1    0.0000
     23 C10       -3.4954   -8.2288   -2.0219 C.3       1 RES1    0.0000
     24 H8        -3.6637   -8.3587   -1.0647 H         1 RES1    0.0000
     25 C11       -3.7069   -6.7388   -2.3389 C.3       1 RES1    0.0000
     26 H9        -4.6459   -6.5211   -2.2350 H         1 RES1    0.0000
     27 H10       -3.4613   -6.5699   -3.2631 H         1 RES1    0.0000
     28 C12       -4.3822   -9.1460   -2.7685 C.2       1 RES1    0.0000
     29 C13       -5.1810  -10.0348   -4.6050 C.2       1 RES1    0.0000
     30 H11       -5.3288  -10.2144   -5.5046 H         1 RES1    0.0000
     31 C14       -5.7896  -10.6529   -3.6086 C.2       1 RES1    0.0000
     32 H12       -6.4255  -11.3275   -3.6769 H         1 RES1    0.0000
     33 C15       -5.2773  -10.0802   -2.4122 C.2       1 RES1    0.0000
     34 H13       -5.5175  -10.3102   -1.5432 H         1 RES1    0.0000
     35 C16       -3.6834   -5.2109   -0.3054 C.3       1 RES1    0.0000
     36 H14       -3.1195   -4.6564    0.2392 H         1 RES1    0.0000
     37 H15       -4.0661   -5.9068    0.2349 H         1 RES1    0.0000
     38 H16       -4.3860   -4.6781   -0.6854 H         1 RES1    0.0000
@<TRIPOS>BOND
     1    1    8 1
     2    2   28 1
     3    3    7 2
     4    4    7 2
     5    5    6 1
     6    7   21 1
     7    8    5 1
     8    9    5 1
     9   10    9 ar
    10   11   10 1
    11   12   10 ar
    12   13   12 1
    13   14   12 ar
    14   15   14 1
    15   16   14 ar
    16   17   16 1
    17   18    9 ar
    18   19    1 1
    19   20   19 1
    20   21   19 1
    21   22   21 1
    22   23   21 1
    23   24   23 1
    24   25    8 1
    25   26   25 1
    26   27   25 1
    27   28   23 1
    28   29    2 1
    29   30   29 1
    30   31   29 2
    31   32   31 1
    32   33   28 2
    33   34   33 1
    34   35    8 1
    35   36   35 1
    36   37   35 1
    37   38   35 1
    38   16   18 ar
    39   18   19 1
    40   23   25 1
    41   31   33 1
@<TRIPOS>SUBSTRUCTURE
     1 RES1 1

@<TRIPOS>CRYSIN
   7.5790   18.0690   21.5530  90.0000  90.0000  90.0000  61 1

