# MOL2 file generated by ConQuest
# Please check atom types

@<TRIPOS>MOLECULE
DOJGUF
    30    30     1
SMALL
NO_CHARGES
****
Generated from CSD

@<TRIPOS>ATOM
      1 O1         0.2576    6.5346   24.2711 O.2       1 RES1    0.0000
      2 O2        -0.5184    3.3528   25.3801 O.3       1 RES1    0.0000
      3 H1        -0.2533    2.6637   25.0231 H         1 RES1    0.0000
      4 O3        -5.1080    4.7988   21.5180 O.3       1 RES1    0.0000
      5 N1         0.3001    4.4248   24.9930 N.am      1 RES1    0.0000
      6 C1        -1.5611    5.1634   23.6197 C.ar      1 RES1    0.0000
      7 C2        -1.7506    4.0607   22.8005 C.ar      1 RES1    0.0000
      8 H2        -1.0844    3.4150   22.7396 H         1 RES1    0.0000
      9 C3        -2.9152    3.9083   22.0736 C.ar      1 RES1    0.0000
     10 H3        -3.0271    3.1691   21.5213 H         1 RES1    0.0000
     11 C4        -3.9110    4.8560   22.1711 C.ar      1 RES1    0.0000
     12 C5        -3.7301    5.9675   22.9712 C.ar      1 RES1    0.0000
     13 H4        -4.4020    6.6077   23.0373 H         1 RES1    0.0000
     14 C6        -2.5617    6.1270   23.6683 C.ar      1 RES1    0.0000
     15 H5        -2.4363    6.8915   24.1818 H         1 RES1    0.0000
     16 C7        -0.2799    5.4274   24.3233 C.2       1 RES1    0.0000
     17 C8         1.5309    4.5650   25.7819 C.3       1 RES1    0.0000
     18 H6         2.0056    5.3576   25.4547 H         1 RES1    0.0000
     19 C9         1.2280    4.7839   27.2427 C.3       1 RES1    0.0000
     20 H7         0.6905    4.0590   27.5716 H         1 RES1    0.0000
     21 H8         0.7512    5.6100   27.3503 H         1 RES1    0.0000
     22 H9         2.0502    4.8219   27.7382 H         1 RES1    0.0000
     23 C10        2.4259    3.3682   25.5544 C.3       1 RES1    0.0000
     24 H10        2.0052    2.5817   25.9108 H         1 RES1    0.0000
     25 H11        3.2669    3.5085   25.9955 H         1 RES1    0.0000
     26 H12        2.5732    3.2533   24.6134 H         1 RES1    0.0000
     27 C11       -5.3729    3.6542   20.7377 C.3       1 RES1    0.0000
     28 H13       -4.6916    3.5591   20.0682 H         1 RES1    0.0000
     29 H14       -6.2286    3.7483   20.3140 H         1 RES1    0.0000
     30 H15       -5.3785    2.8771   21.3001 H         1 RES1    0.0000
@<TRIPOS>BOND
     1    1   16 2
     2    2    3 1
     3    4   11 1
     4    5    2 1
     5    6    7 ar
     6    7    8 1
     7    9    7 ar
     8   10    9 1
     9   11    9 ar
    10   12   11 ar
    11   13   12 1
    12   14    6 ar
    13   15   14 1
    14   16    5 1
    15   17    5 1
    16   18   17 1
    17   19   17 1
    18   20   19 1
    19   21   19 1
    20   22   19 1
    21   23   17 1
    22   24   23 1
    23   25   23 1
    24   26   23 1
    25   27    4 1
    26   28   27 1
    27   29   27 1
    28   30   27 1
    29    6   16 1
    30   12   14 ar
@<TRIPOS>SUBSTRUCTURE
     1 RES1 1

@<TRIPOS>CRYSIN
   7.1110    5.5000   27.6160  90.0000  98.4700  90.0000  14 1

