# MOL2 file generated by ConQuest
# Please check atom types

@<TRIPOS>MOLECULE
DOJHUG
    43    44     1
SMALL
NO_CHARGES
****
Generated from CSD

@<TRIPOS>ATOM
      1 O1         4.2741    7.8384   18.2943 O.3       1 RES1    0.0000
      2 O2         1.8314   11.0644   19.2593 O.3       1 RES1    0.0000
      3 H1         1.4122   11.7670   19.3149 H         1 RES1    0.0000
      4 O3         8.1124    2.2619   19.2999 O.2       1 RES1    0.0000
      5 N1         6.9115    2.1332   19.1768 N.pl3     1 RES1    0.0000
      6 C1         3.6845    6.6797   18.0228 C.2       1 RES1    0.0000
      7 C2         5.8847    5.6827   18.7692 C.ar      1 RES1    0.0000
      8 H2         6.2370    6.5363   18.8800 H         1 RES1    0.0000
      9 C3         3.4963    9.0470   18.0881 C.3       1 RES1    0.0000
     10 H3         2.5474    8.8477   18.2296 H         1 RES1    0.0000
     11 C4         6.0992    3.3209   18.8853 C.ar      1 RES1    0.0000
     12 C5         4.5772    5.5191   18.3295 C.ar      1 RES1    0.0000
     13 C6         3.9602   10.0418   19.1356 C.3       1 RES1    0.0000
     14 H4         4.9193   10.2085   19.0236 H         1 RES1    0.0000
     15 C7         3.6947    9.5621   16.6707 C.3       1 RES1    0.0000
     16 H5         3.3610    8.9017   16.0284 H         1 RES1    0.0000
     17 O4         2.5831    6.5595   17.5635 O.2       1 RES1    0.0000
     18 C8         6.6607    4.5710   19.0424 C.ar      1 RES1    0.0000
     19 H6         7.5413    4.6646   19.3251 H         1 RES1    0.0000
     20 O5         3.7177    9.5658   20.4448 O.3       1 RES1    0.0000
     21 H7         4.2371    8.9533   20.6135 H         1 RES1    0.0000
     22 O6         5.0999    9.7644   16.4752 O.3       1 RES1    0.0000
     23 O7         6.3384    1.0630   19.2798 O.2       1 RES1    0.0000
     24 C9         4.0489    4.2433   18.1773 C.ar      1 RES1    0.0000
     25 H8         3.1759    4.1401   17.8747 H         1 RES1    0.0000
     26 C10        4.8031    3.1327   18.4697 C.ar      1 RES1    0.0000
     27 H9         4.4464    2.2782   18.3876 H         1 RES1    0.0000
     28 C11        3.1976   11.3480   18.9587 C.3       1 RES1    0.0000
     29 H10        3.5377   12.0089   19.5980 H         1 RES1    0.0000
     30 C12        3.3578   11.8860   17.5487 C.3       1 RES1    0.0000
     31 H11        2.8230   12.6893   17.4501 H         1 RES1    0.0000
     32 H12        4.2863   12.1244   17.4008 H         1 RES1    0.0000
     33 O8         5.4732    8.3414   14.6686 O.3       1 RES1    0.0000
     34 C13        5.5159    9.6435   15.1436 C.3       1 RES1    0.0000
     35 H13        4.9493   10.1999   14.5862 H         1 RES1    0.0000
     36 H14        6.4233    9.9763   15.0662 H         1 RES1    0.0000
     37 C14        2.9315   10.8723   16.5099 C.3       1 RES1    0.0000
     38 H15        3.0923   11.2328   15.6242 H         1 RES1    0.0000
     39 H16        1.9801   10.7034   16.5966 H         1 RES1    0.0000
     40 C15        6.4201    7.4967   15.3040 C.3       1 RES1    0.0000
     41 H17        6.2453    7.4721   16.2479 H         1 RES1    0.0000
     42 H18        7.3052    7.8357   15.1503 H         1 RES1    0.0000
     43 H19        6.3506    6.6100   14.9431 H         1 RES1    0.0000
@<TRIPOS>BOND
     1    1    6 1
     2    2    3 1
     3    4    5 2
     4    5   11 1
     5    6   12 1
     6    7    8 1
     7    9    1 1
     8   10    9 1
     9   11   18 ar
    10   12    7 ar
    11   13    9 1
    12   14   13 1
    13   15    9 1
    14   16   15 1
    15   17    6 2
    16   18    7 ar
    17   19   18 1
    18   20   13 1
    19   21   20 1
    20   22   15 1
    21   23    5 2
    22   24   12 ar
    23   25   24 1
    24   26   11 ar
    25   27   26 1
    26   28    2 1
    27   29   28 1
    28   30   28 1
    29   31   30 1
    30   32   30 1
    31   33   34 1
    32   34   22 1
    33   35   34 1
    34   36   34 1
    35   37   15 1
    36   38   37 1
    37   39   37 1
    38   40   33 1
    39   41   40 1
    40   42   40 1
    41   43   40 1
    42   13   28 1
    43   24   26 ar
    44   30   37 1
@<TRIPOS>SUBSTRUCTURE
     1 RES1 1

@<TRIPOS>CRYSIN
   6.3812   12.2816   20.5150  90.0000  90.0000  90.0000  19 1

