# MOL2 file generated by ConQuest
# Please check atom types

@<TRIPOS>MOLECULE
DOJHAM
    30    30     1
SMALL
NO_CHARGES
****
Generated from CSD

@<TRIPOS>ATOM
      1 N1         4.2355    8.2253    2.7214 N.am      1 RES1    0.0000
      2 N2         5.9592    3.3557    4.1408 N.pl3     1 RES1    0.0000
      3 N3         2.0264    2.8707    1.3030 N.pl3     1 RES1    0.0000
      4 O1         2.1425    7.7095    3.3138 O.2       1 RES1    0.0000
      5 O2         5.3269    7.7541    1.9894 O.3       1 RES1    0.0000
      6 H1         6.0073    7.8164    2.4432 H         1 RES1    0.0000
      7 O3         6.7227    4.0780    4.7467 O.2       1 RES1    0.0000
      8 O4         6.0920    2.1540    4.0496 O.2       1 RES1    0.0000
      9 O5         0.9816    3.3672    0.8997 O.2       1 RES1    0.0000
     10 O6         2.3443    1.7055    1.1246 O.2       1 RES1    0.0000
     11 C1         3.5749    5.8924    2.8339 C.ar      1 RES1    0.0000
     12 C2         4.6425    5.3142    3.5125 C.ar      1 RES1    0.0000
     13 H2         5.2304    5.8405    4.0041 H         1 RES1    0.0000
     14 C3         4.8128    3.9635    3.4466 C.ar      1 RES1    0.0000
     15 C4         3.9884    3.1340    2.7127 C.ar      1 RES1    0.0000
     16 H3         4.1345    2.2157    2.6681 H         1 RES1    0.0000
     17 C5         2.9413    3.7314    2.0534 C.ar      1 RES1    0.0000
     18 C6         2.7085    5.0830    2.1203 C.ar      1 RES1    0.0000
     19 H4         1.9721    5.4529    1.6879 H         1 RES1    0.0000
     20 C7         3.2686    7.3529    2.9570 C.2       1 RES1    0.0000
     21 C8         4.0338    9.6864    2.6817 C.3       1 RES1    0.0000
     22 H5         3.3304    9.9044    3.3293 H         1 RES1    0.0000
     23 C9         5.2920   10.4022    3.1199 C.3       1 RES1    0.0000
     24 H6         5.5880   10.0455    3.9595 H         1 RES1    0.0000
     25 H7         5.1096   11.3404    3.2168 H         1 RES1    0.0000
     26 H8         5.9775   10.2763    2.4597 H         1 RES1    0.0000
     27 C10        3.5600   10.1284    1.3418 C.3       1 RES1    0.0000
     28 H9         4.2408    9.9514    0.6874 H         1 RES1    0.0000
     29 H10        3.3732   11.0693    1.3631 H         1 RES1    0.0000
     30 H11        2.7618    9.6490    1.1101 H         1 RES1    0.0000
@<TRIPOS>BOND
     1    1    5 1
     2    2    7 2
     3    3    9 2
     4    4   20 2
     5    5    6 1
     6    8    2 2
     7   10    3 2
     8   11   12 ar
     9   12   13 1
    10   14    2 1
    11   15   14 ar
    12   16   15 1
    13   17    3 1
    14   18   11 ar
    15   19   18 1
    16   20    1 1
    17   21    1 1
    18   22   21 1
    19   23   21 1
    20   24   23 1
    21   25   23 1
    22   26   23 1
    23   27   21 1
    24   28   27 1
    25   29   27 1
    26   30   27 1
    27   11   20 1
    28   12   14 ar
    29   15   17 ar
    30   17   18 ar
@<TRIPOS>SUBSTRUCTURE
     1 RES1 1

@<TRIPOS>CRYSIN
   5.5650   22.4030    9.7640  90.0000  96.8100  90.0000  14 1

