# MOL2 file generated by ConQuest
# Please check atom types

@<TRIPOS>MOLECULE
DOJLAQ
    28    28     2
SMALL
USER_CHARGES
****
Generated from CSD

@<TRIPOS>ATOM
      1 N1         3.7152    3.2735    1.0751 N.pl3     1 RES1    1.0000
      2 N2         3.5773    5.3920    1.1317 N.pl3     1 RES1    0.0000
      3 O1         3.6465    1.9853    0.6514 O.2       1 RES1   -1.0000
      4 O2         3.3155    6.6879    0.7676 O.3       1 RES1    0.0000
      5 H1         2.5124    6.8547    0.8944 H         1 RES1    0.0000
      6 N3         1.4064   -0.3604   -2.5872 N.pl3     2 RES2    1.0000
      7 N4         1.2700    0.7543   -0.7897 N.pl3     2 RES2    0.0000
      8 O3         1.6815   -1.3519   -3.4884 O.2       2 RES2   -1.0000
      9 O4         1.3654    1.1292    0.5101 O.3       2 RES2    0.0000
     10 H2         2.1285    1.4191    0.6591 H         2 RES2    0.0000
     11 C1         3.3145    4.3299    0.3708 C.2       1 RES1    0.0000
     12 C2         4.2315    3.6719    2.2856 C.2       1 RES1    0.0000
     13 H3         4.5786    3.1134    2.9581 H         1 RES1    0.0000
     14 C3         4.1439    5.0148    2.3202 C.2       1 RES1    0.0000
     15 H4         4.4169    5.5811    3.0196 H         1 RES1    0.0000
     16 C4         2.6904    4.3333   -0.9559 C.3       1 RES1    0.0000
     17 H5         3.0249    3.5835   -1.4728 H         1 RES1    0.0000
     18 H6         2.9055    5.1614   -1.4123 H         1 RES1    0.0000
     19 H7         1.7283    4.2561   -0.8608 H         1 RES1    0.0000
     20 C5         1.6757   -0.3917   -1.3027 C.2       2 RES2    0.0000
     21 C6         0.7992    0.8438   -2.9100 C.2       2 RES2    0.0000
     22 H8         0.5129    1.1180   -3.7622 H         2 RES2    0.0000
     23 C7         0.7008    1.5321   -1.7850 C.2       2 RES2    0.0000
     24 H9         0.3179    2.3837   -1.6803 H         2 RES2    0.0000
     25 C8         2.3073   -1.5041   -0.5668 C.3       2 RES2    0.0000
     26 H10        2.0768   -2.3446   -0.9915 H         2 RES2    0.0000
     27 H11        1.9897   -1.5063    0.3497 H         2 RES2    0.0000
     28 H12        3.2705   -1.3911   -0.5745 H         2 RES2    0.0000
@<TRIPOS>BOND
     1    1    3 1
     2    2    4 1
     3    4    5 1
     4    6    8 1
     5    7    9 1
     6    9   10 1
     7   11    1 2
     8   12    1 1
     9   13   12 1
    10   14    2 1
    11   15   14 1
    12   16   11 1
    13   17   16 1
    14   18   16 1
    15   19   16 1
    16   20    6 2
    17   21    6 1
    18   22   21 1
    19   23    7 1
    20   24   23 1
    21   25   20 1
    22   26   25 1
    23   27   25 1
    24   28   25 1
    25    2   11 1
    26    7   20 1
    27   12   14 2
    28   21   23 2
@<TRIPOS>SUBSTRUCTURE
     1 RES1 1
     2 RES2 6

@<TRIPOS>CRYSIN
   9.5820   11.1913    9.7178  90.0000  98.6500  90.0000  14 1

