# MOL2 file generated by ConQuest
# Please check atom types

@<TRIPOS>MOLECULE
DOKNIC
   116   122     1
SMALL
NO_CHARGES
****
Generated from CSD

@<TRIPOS>ATOM
      1 C1         8.7887    8.8524   12.1831 C.ar      1 RES1    0.0000
      2 C2         7.4695    9.2398   12.4562 C.ar      1 RES1    0.0000
      3 H1         7.1162   10.0045   12.0626 H         1 RES1    0.0000
      4 C3         6.6931    8.4724   13.3167 C.ar      1 RES1    0.0000
      5 H2         5.8126    8.7133   13.4907 H         1 RES1    0.0000
      6 C4         7.2244    7.3788   13.9026 C.ar      1 RES1    0.0000
      7 H3         6.7163    6.8830   14.5038 H         1 RES1    0.0000
      8 C5         8.4858    6.9989   13.6188 C.ar      1 RES1    0.0000
      9 H4         8.8380    6.2356   14.0171 H         1 RES1    0.0000
     10 C6         9.2592    7.7298   12.7446 C.ar      1 RES1    0.0000
     11 H5        10.1188    7.4409   12.5417 H         1 RES1    0.0000
     12 C7         9.6194    9.7507   11.2738 C.3       1 RES1    0.0000
     13 H6         9.0922    9.9746   10.4895 H         1 RES1    0.0000
     14 H7         9.8142   10.5762   11.7422 H         1 RES1    0.0000
     15 C8        12.0740    9.4531   11.5697 C.3       1 RES1    0.0000
     16 H8        12.5938    8.6382   11.6491 H         1 RES1    0.0000
     17 H9        11.8276    9.7287   12.4669 H         1 RES1    0.0000
     18 C9        12.9421   10.5054   10.9808 C.ar      1 RES1    0.0000
     19 C10       14.2991   10.4315   11.0830 C.ar      1 RES1    0.0000
     20 H10       14.6638    9.7083   11.5408 H         1 RES1    0.0000
     21 C11       15.1721   11.3682   10.5490 C.ar      1 RES1    0.0000
     22 H11       16.0937   11.2455   10.5597 H         1 RES1    0.0000
     23 C12       14.6095   12.4526   10.0196 C.ar      1 RES1    0.0000
     24 H12       15.1794   13.1364    9.7404 H         1 RES1    0.0000
     25 C13       13.2445   12.6366    9.8533 C.ar      1 RES1    0.0000
     26 H13       12.8957   13.3877    9.4291 H         1 RES1    0.0000
     27 C14       12.4097   11.6043   10.3736 C.ar      1 RES1    0.0000
     28 H14       11.4859   11.6811   10.2973 H         1 RES1    0.0000
     29 C15       10.9117    8.3010    9.7327 C.ar      1 RES1    0.0000
     30 C16       12.0912    7.7616    9.2567 C.ar      1 RES1    0.0000
     31 H15       12.8927    7.9695    9.6809 H         1 RES1    0.0000
     32 C17       12.1001    6.9341    8.1780 C.ar      1 RES1    0.0000
     33 H16       12.9077    6.5703    7.8942 H         1 RES1    0.0000
     34 C18       10.9395    6.6135    7.4884 C.ar      1 RES1    0.0000
     35 C19        9.7632    7.1389    7.9751 C.ar      1 RES1    0.0000
     36 H17        8.9659    6.9374    7.5418 H         1 RES1    0.0000
     37 C20        9.7340    7.9480    9.0767 C.ar      1 RES1    0.0000
     38 H18        8.9186    8.2655    9.3925 H         1 RES1    0.0000
     39 C21       10.9613    5.7579    6.3410 C.1       1 RES1    0.0000
     40 C22       10.8966    5.1000    5.3584 C.1       1 RES1    0.0000
     41 C23       10.7665    4.3088    4.1683 C.ar      1 RES1    0.0000
     42 C24       11.8128    4.1559    3.2773 C.ar      1 RES1    0.0000
     43 H19       12.6239    4.5771    3.4573 H         1 RES1    0.0000
     44 C25       11.6934    3.4111    2.1498 C.ar      1 RES1    0.0000
     45 H20       12.4193    3.2905    1.5807 H         1 RES1    0.0000
     46 C26       10.4612    2.8315    1.8584 C.ar      1 RES1    0.0000
     47 C27        9.4043    2.9687    2.7418 C.ar      1 RES1    0.0000
     48 C28        9.5352    3.7156    3.8846 C.ar      1 RES1    0.0000
     49 H21        8.8153    3.8242    4.4628 H         1 RES1    0.0000
     50 C29       10.0125    2.0558    0.7049 C.ar      1 RES1    0.0000
     51 C30       10.6310    1.7305   -0.4837 C.ar      1 RES1    0.0000
     52 H22       11.5134    1.9888   -0.6271 H         1 RES1    0.0000
     53 C31        9.9672    1.0368   -1.4479 C.ar      1 RES1    0.0000
     54 H23       10.3869    0.8471   -2.2551 H         1 RES1    0.0000
     55 C32        8.6604    0.6116   -1.2252 C.ar      1 RES1    0.0000
     56 C33        8.0349    0.9191   -0.0122 C.ar      1 RES1    0.0000
     57 H24        7.1732    0.6148    0.1556 H         1 RES1    0.0000
     58 C34        8.6884    1.6691    0.9307 C.ar      1 RES1    0.0000
     59 C35        7.9069   -0.1551   -2.2642 C.2       1 RES1    0.0000
     60 C36        8.5077   -0.1873   -3.6435 C.3       1 RES1    0.0000
     61 H25        8.6903    0.7261   -3.9135 H         1 RES1    0.0000
     62 H26        9.3585   -0.6486   -3.5916 H         1 RES1    0.0000
     63 C37        7.6865   -0.8381   -4.7191 C.ar      1 RES1    0.0000
     64 C38        8.2598   -1.8233   -5.5308 C.ar      1 RES1    0.0000
     65 H27        9.1132   -2.1415   -5.3432 H         1 RES1    0.0000
     66 C39        7.5555   -2.3272   -6.6172 C.ar      1 RES1    0.0000
     67 H28        7.9180   -2.9787   -7.1725 H         1 RES1    0.0000
     68 C40        6.3044   -1.8191   -6.8323 C.ar      1 RES1    0.0000
     69 C41        5.7479   -0.8799   -6.0648 C.ar      1 RES1    0.0000
     70 H29        4.8965   -0.5605   -6.2571 H         1 RES1    0.0000
     71 C42        6.4346   -0.4003   -5.0090 C.ar      1 RES1    0.0000
     72 H30        6.0412    0.2455   -4.4674 H         1 RES1    0.0000
     73 C43        8.1875    2.1992    2.2551 C.3       1 RES1    0.0000
     74 C44        7.7706    1.1063    3.2498 C.3       1 RES1    0.0000
     75 H31        7.4962    1.5321    4.0783 H         1 RES1    0.0000
     76 H32        7.0006    0.6385    2.8913 H         1 RES1    0.0000
     77 C45        8.8310    0.1096    3.5580 C.3       1 RES1    0.0000
     78 H33        9.6246    0.5789    3.8617 H         1 RES1    0.0000
     79 H34        9.0620   -0.3642    2.7433 H         1 RES1    0.0000
     80 C46        8.4233   -0.8967    4.6108 C.3       1 RES1    0.0000
     81 H35        8.1479   -0.4144    5.4057 H         1 RES1    0.0000
     82 H36        7.6514   -1.3867    4.2843 H         1 RES1    0.0000
     83 C47        9.4787   -1.8856    4.9999 C.3       1 RES1    0.0000
     84 H37       10.2478   -1.4182    5.3615 H         1 RES1    0.0000
     85 H38        9.7663   -2.3833    4.2202 H         1 RES1    0.0000
     86 C48        8.8930   -2.8800    6.0908 C.3       1 RES1    0.0000
     87 H39        8.1779   -2.4076    6.5455 H         1 RES1    0.0000
     88 H40        8.4767   -3.6114    5.6056 H         1 RES1    0.0000
     89 C49        9.6140   -3.4038    6.9925 C.3       1 RES1    0.0000
     90 H41       10.3588   -3.8546    6.5851 H         1 RES1    0.0000
     91 H42        9.0945   -4.0353    7.4945 H         1 RES1    0.0000
     92 H43        9.9406   -2.7181    7.5799 H         1 RES1    0.0000
     93 C50        6.9467    3.1267    2.0384 C.3       1 RES1    0.0000
     94 H44        6.2247    2.5926    1.6737 H         1 RES1    0.0000
     95 H45        6.6564    3.4575    2.9020 H         1 RES1    0.0000
     96 C51        7.1692    4.2758    1.1504 C.3       1 RES1    0.0000
     97 H46        7.4367    3.9644    0.2716 H         1 RES1    0.0000
     98 H47        7.8820    4.8293    1.5044 H         1 RES1    0.0000
     99 C52        5.7660    5.1748    1.0268 C.3       1 RES1    0.0000
    100 H48        5.0327    4.6130    0.7278 H         1 RES1    0.0000
    101 H49        5.5322    5.5521    1.8889 H         1 RES1    0.0000
    102 C53        6.0062    6.2023    0.0931 C.3       1 RES1    0.0000
    103 H50        6.1346    5.8046   -0.7827 H         1 RES1    0.0000
    104 H51        6.8263    6.6587    0.3341 H         1 RES1    0.0000
    105 C54        4.7356    7.3702   -0.0153 C.3       1 RES1    0.0000
    106 H52        4.9681    8.1967    0.4394 H         1 RES1    0.0000
    107 H53        4.5004    7.5642   -0.9338 H         1 RES1    0.0000
    108 C55        3.8268    6.7899    0.5645 C.3       1 RES1    0.0000
    109 H54        4.1875    6.0753    1.0924 H         1 RES1    0.0000
    110 H55        3.2133    6.4317   -0.0824 H         1 RES1    0.0000
    111 H56        3.3614    7.4072    1.1352 H         1 RES1    0.0000
    112 N1        10.8679    9.1523   10.8404 N.pl3     1 RES1    0.0000
    113 N2         5.6652   -2.3639   -8.0621 N.pl3     1 RES1    0.0000
    114 O1         6.8614   -0.6847   -1.9850 O.2       1 RES1    0.0000
    115 O2         4.5793   -1.6302   -8.3321 O.2       1 RES1    0.0000
    116 O3         6.0101   -3.2297   -8.6251 O.2       1 RES1    0.0000
@<TRIPOS>BOND
     1    1    2 ar
     2    2    3 1
     3    4    2 ar
     4    5    4 1
     5    6    4 ar
     6    7    6 1
     7    8    6 ar
     8    9    8 1
     9   10    1 ar
    10   11   10 1
    11   12    1 1
    12   13   12 1
    13   14   12 1
    14   15   16 1
    15   17   15 1
    16   18   15 1
    17   19   18 ar
    18   20   19 1
    19   21   19 ar
    20   22   21 1
    21   23   21 ar
    22   24   23 1
    23   25   23 ar
    24   26   25 1
    25   27   18 ar
    26   28   27 1
    27   29   30 ar
    28   30   31 1
    29   32   30 ar
    30   33   32 1
    31   34   32 ar
    32   35   34 ar
    33   36   35 1
    34   37   29 ar
    35   38   37 1
    36   39   34 1
    37   40   39 3
    38   41   40 1
    39   42   41 ar
    40   43   42 1
    41   44   42 ar
    42   45   44 1
    43   46   44 ar
    44   47   46 ar
    45   48   41 ar
    46   49   48 1
    47   50   46 1
    48   51   50 ar
    49   52   51 1
    50   53   51 ar
    51   54   53 1
    52   55   53 ar
    53   56   55 ar
    54   57   56 1
    55   58   50 ar
    56   59   55 1
    57   60   59 1
    58   61   60 1
    59   62   60 1
    60   63   60 1
    61   64   63 ar
    62   65   64 1
    63   66   64 ar
    64   67   66 1
    65   68   66 ar
    66   69   68 ar
    67   70   69 1
    68   71   63 ar
    69   72   71 1
    70   73   47 1
    71   74   73 1
    72   75   74 1
    73   76   74 1
    74   77   74 1
    75   78   77 1
    76   79   77 1
    77   80   77 1
    78   81   80 1
    79   82   80 1
    80   83   80 1
    81   84   83 1
    82   85   83 1
    83   86   83 1
    84   87   86 1
    85   88   86 1
    86   89   86 1
    87   90   89 1
    88   91   89 1
    89   92   89 1
    90   93   73 1
    91   94   93 1
    92   95   93 1
    93   96   93 1
    94   97   96 1
    95   98   96 1
    96   99   96 1
    97  100   99 1
    98  101   99 1
    99  102   99 1
   100  103  102 1
   101  104  102 1
   102  105  102 1
   103  106  105 1
   104  107  105 1
   105  108  105 1
   106  109  108 1
   107  110  108 1
   108  111  108 1
   109  112   12 1
   110  113   68 1
   111  114   59 2
   112  115  113 2
   113  116  113 2
   114    8   10 ar
   115   15  112 1
   116   25   27 ar
   117   29  112 1
   118   35   37 ar
   119   47   48 ar
   120   56   58 ar
   121   58   73 1
   122   69   71 ar
@<TRIPOS>SUBSTRUCTURE
     1 RES1 1

@<TRIPOS>CRYSIN
  10.8810   14.1310   16.3950  69.7400  77.2100  71.6700   2 1

