# MOL2 file generated by ConQuest
# Please check atom types

@<TRIPOS>MOLECULE
DOKRUQ
    54    54     2
SMALL
NO_CHARGES
****
Generated from CSD

@<TRIPOS>ATOM
      1 C1         7.6492    6.2758    7.2487 C.2       1 RES1    0.0000
      2 C2         8.3676    5.9131    8.6496 C.3       1 RES1    0.0000
      3 C3         9.4877    4.9706    8.4700 C.2       1 RES1    0.0000
      4 C4        10.0039    4.7312    7.3192 C.2       1 RES1    0.0000
      5 C5         9.5063    5.1155    5.9819 C.3       1 RES1    0.0000
      6 C6         7.9978    5.4184    6.0634 C.3       1 RES1    0.0000
      7 C7         8.6709    7.1573    9.4274 C.3       1 RES1    0.0000
      8 C8         7.2501    4.0632    6.1504 C.3       1 RES1    0.0000
      9 N1         7.2688    5.1748    9.4398 N.pl3     1 RES1    0.0000
     10 N2        11.2331    3.8812    7.2764 N.pl3     1 RES1    0.0000
     11 N3        10.1528    6.5238    5.6324 N.pl3     1 RES1    0.0000
     12 O1         6.7899    7.0913    7.2529 O.2       1 RES1    0.0000
     13 O2         7.6333    6.0692    4.8504 O.3       1 RES1    0.0000
     14 O3         7.2954    3.9694    9.4467 O.2       1 RES1    0.0000
     15 O4         6.4706    5.8144   10.0670 O.2       1 RES1    0.0000
     16 O5        11.5683    3.3458    8.3070 O.2       1 RES1    0.0000
     17 O6        11.7918    3.7640    6.1546 O.2       1 RES1    0.0000
     18 O7        10.8792    6.5849    4.6888 O.2       1 RES1    0.0000
     19 O8         9.8416    7.4990    6.3383 O.2       1 RES1    0.0000
     20 H1         9.8416    4.5209    9.2409 H         1 RES1    0.0000
     21 H2         9.7061    4.4154    5.3562 H         1 RES1    0.0000
     22 H3         9.3525    7.6588    8.9742 H         1 RES1    0.0000
     23 H4         8.9782    6.9198   10.3052 H         1 RES1    0.0000
     24 H5         7.8759    7.6909    9.4997 H         1 RES1    0.0000
     25 H6         7.4909    3.6172    6.9657 H         1 RES1    0.0000
     26 H7         7.4941    3.5142    5.4015 H         1 RES1    0.0000
     27 H8         6.3022    4.2174    6.1383 H         1 RES1    0.0000
     28 C9         9.9852    2.9337   14.6605 C.2       2 RES2    0.0000
     29 C10       10.8180    3.2465   13.4171 C.3       2 RES2    0.0000
     30 C11       11.9807    4.1755   13.6990 C.2       2 RES2    0.0000
     31 C12       12.3292    4.4382   14.9216 C.2       2 RES2    0.0000
     32 C13       11.6880    3.9898   16.2119 C.3       2 RES2    0.0000
     33 C14       10.1928    3.7326   15.8983 C.3       2 RES2    0.0000
     34 C15       11.3102    1.9486   12.7236 C.3       2 RES2    0.0000
     35 C16        9.4850    5.1421   15.6869 C.3       2 RES2    0.0000
     36 N4         9.8815    4.0052   12.4128 N.pl3     2 RES2    0.0000
     37 N5        13.5637    5.3518   15.1330 N.pl3     2 RES2    0.0000
     38 N6        12.3133    2.6228   16.5697 N.pl3     2 RES2    0.0000
     39 O9         9.1392    2.0973   14.6107 O.2       2 RES2    0.0000
     40 O10        9.6766    3.1268   17.0546 O.3       2 RES2    0.0000
     41 O11       10.0571    5.1408   12.1752 O.2       2 RES2    0.0000
     42 O12        9.0061    3.2847   11.8975 O.2       2 RES2    0.0000
     43 O13       14.0107    5.8952   14.1272 O.2       2 RES2    0.0000
     44 O14       13.9974    5.4110   16.2810 O.2       2 RES2    0.0000
     45 O15       12.9757    2.6457   17.5782 O.2       2 RES2    0.0000
     46 O16       12.0419    1.7173   15.8292 O.2       2 RES2    0.0000
     47 H9        12.4617    4.5715   12.9692 H         2 RES2    0.0000
     48 H10       11.8061    4.6301   16.9178 H         2 RES2    0.0000
     49 H11       11.8873    1.4663   13.3197 H         2 RES2    0.0000
     50 H12       11.7912    2.1762   11.9257 H         2 RES2    0.0000
     51 H13       10.5549    1.4002   12.4968 H         2 RES2    0.0000
     52 H14        9.8328    5.5597   14.8966 H         2 RES2    0.0000
     53 H15        9.6556    5.7022   16.4476 H         2 RES2    0.0000
     54 H16        8.5381    5.0131   15.5911 H         2 RES2    0.0000
@<TRIPOS>BOND
     1    1    2 1
     2    2    3 1
     3    3    4 2
     4    4    5 1
     5    5    6 1
     6    6    1 1
     7    7    2 1
     8    8    6 1
     9    9    2 1
    10   10    4 1
    11   11    5 1
    12   12    1 2
    13   13    6 1
    14   14    9 2
    15   15    9 2
    16   16   10 2
    17   17   10 2
    18   18   11 2
    19   19   11 2
    20   20    3 1
    21   21    5 1
    22   22    7 1
    23   23    7 1
    24   24    7 1
    25   25    8 1
    26   26    8 1
    27   27    8 1
    28   28   29 1
    29   29   30 1
    30   30   31 2
    31   31   32 1
    32   32   33 1
    33   33   28 1
    34   34   29 1
    35   35   33 1
    36   36   29 1
    37   37   31 1
    38   38   32 1
    39   39   28 2
    40   40   33 1
    41   41   36 2
    42   42   36 2
    43   43   37 2
    44   44   37 2
    45   45   38 2
    46   46   38 2
    47   47   30 1
    48   48   32 1
    49   49   34 1
    50   50   34 1
    51   51   34 1
    52   52   35 1
    53   53   35 1
    54   54   35 1
@<TRIPOS>SUBSTRUCTURE
     1 RES1 1
     2 RES2 28

@<TRIPOS>CRYSIN
  26.6060    6.1685   13.8150  90.0000  90.0000  90.0000  33 1

