# MOL2 file generated by ConQuest
# Please check atom types

@<TRIPOS>MOLECULE
DOKSAX
    50    50     2
SMALL
NO_CHARGES
****
Generated from CSD

@<TRIPOS>ATOM
      1 C1        -1.3187   -1.2098    3.3728 C.2       1 RES1    0.0000
      2 C2        -0.9932   -0.5629    4.7228 C.3       1 RES1    0.0000
      3 C3        -0.2012    0.6928    4.5630 C.2       1 RES1    0.0000
      4 C4         0.0177    1.2710    3.4023 C.2       1 RES1    0.0000
      5 C5        -0.4730    0.7590    2.1014 C.3       1 RES1    0.0000
      6 C6        -0.5878   -0.7717    2.1336 C.3       1 RES1    0.0000
      7 C7        -2.2442   -0.3107    5.5317 C.3       1 RES1    0.0000
      8 C8         0.8059   -1.3907    2.1743 C.3       1 RES1    0.0000
      9 N1         0.7345    2.5521    3.3672 N.pl3     1 RES1    0.0000
     10 N2        -1.8745    1.3041    1.8392 N.pl3     1 RES1    0.0000
     11 O1        -2.0806   -2.1395    3.3364 O.2       1 RES1    0.0000
     12 O2        -0.1074   -1.4773    5.4308 O.3       1 RES1    0.0000
     13 O3        -1.2757   -1.1232    0.9589 O.3       1 RES1    0.0000
     14 O4         0.7121    3.1736    2.3187 O.2       1 RES1    0.0000
     15 O5         1.2857    2.9291    4.3906 O.2       1 RES1    0.0000
     16 O6        -2.7369    0.9653    2.6341 O.2       1 RES1    0.0000
     17 O7        -2.0492    2.0198    0.8790 O.2       1 RES1    0.0000
     18 H1         0.1697    1.1003    5.3494 H         1 RES1    0.0000
     19 H2         0.1418    1.0315    1.4159 H         1 RES1    0.0000
     20 H3        -2.8145    0.2955    5.0523 H         1 RES1    0.0000
     21 H4        -2.0097    0.0739    6.3784 H         1 RES1    0.0000
     22 H5        -2.7065   -1.1385    5.6733 H         1 RES1    0.0000
     23 H6         1.2493   -1.1385    2.9873 H         1 RES1    0.0000
     24 H7         1.3132   -1.0748    1.4215 H         1 RES1    0.0000
     25 H8         0.7315   -2.3458    2.1336 H         1 RES1    0.0000
     26 C9         1.8343    7.6818    6.1359 C.2       2 RES2    0.0000
     27 C10        2.0950    7.2997    4.6822 C.3       2 RES2    0.0000
     28 C11        2.8279    6.0058    4.5546 C.2       2 RES2    0.0000
     29 C12        3.0460    5.1908    5.5597 C.2       2 RES2    0.0000
     30 C13        2.6079    5.4175    6.9588 C.3       2 RES2    0.0000
     31 C14        2.5304    6.9227    7.2489 C.3       2 RES2    0.0000
     32 C15        0.7834    7.2640    3.9111 C.3       2 RES2    0.0000
     33 C16        3.9436    7.4780    7.3793 C.3       2 RES2    0.0000
     34 N3         3.7419    3.9249    5.2906 N.pl3     2 RES2    0.0000
     35 N4         1.2240    4.8113    7.1354 N.pl3     2 RES2    0.0000
     36 O8         1.1479    8.6420    6.4176 O.2       2 RES2    0.0000
     37 O9         3.0161    8.2777    4.1453 O.3       2 RES2    0.0000
     38 O10        1.8083    7.0807    8.4517 O.3       2 RES2    0.0000
     39 O11        3.7943    3.1073    6.1962 O.2       2 RES2    0.0000
     40 O12        4.2082    3.7696    4.1719 O.2       2 RES2    0.0000
     41 O13        0.3049    5.3105    6.5004 O.2       2 RES2    0.0000
     42 O14        1.1075    3.8791    7.8938 O.2       2 RES2    0.0000
     43 H9         3.1571    5.7537    3.6883 H         2 RES2    0.0000
     44 H10        3.2352    5.0049    7.5574 H         2 RES2    0.0000
     45 H11        0.1993    6.6044    4.2939 H         2 RES2    0.0000
     46 H12       -0.0854    7.0425    2.9929 H         2 RES2    0.0000
     47 H13        0.3663    8.1275    3.9588 H         2 RES2    0.0000
     48 H14        4.4152    7.3532    6.5536 H         2 RES2    0.0000
     49 H15        4.4025    7.0144    8.0830 H         2 RES2    0.0000
     50 H16        3.9041    8.4153    7.5868 H         2 RES2    0.0000
@<TRIPOS>BOND
     1    1    2 1
     2    2    3 1
     3    3    4 2
     4    4    5 1
     5    5    6 1
     6    6    1 1
     7    7    2 1
     8    8    6 1
     9    9    4 1
    10   10    5 1
    11   11    1 2
    12   12    2 1
    13   13    6 1
    14   14    9 2
    15   15    9 2
    16   16   10 2
    17   17   10 2
    18   18    3 1
    19   19    5 1
    20   20    7 1
    21   21    7 1
    22   22    7 1
    23   23    8 1
    24   24    8 1
    25   25    8 1
    26   26   27 1
    27   27   28 1
    28   28   29 2
    29   29   30 1
    30   30   31 1
    31   31   26 1
    32   32   27 1
    33   33   31 1
    34   34   29 1
    35   35   30 1
    36   36   26 2
    37   37   27 1
    38   38   31 1
    39   39   34 2
    40   40   34 2
    41   41   35 2
    42   42   35 2
    43   43   28 1
    44   44   30 1
    45   45   32 1
    46   46   32 1
    47   47   32 1
    48   48   33 1
    49   49   33 1
    50   50   33 1
@<TRIPOS>SUBSTRUCTURE
     1 RES1 1
     2 RES2 26

@<TRIPOS>CRYSIN
   5.8040   25.4700   14.0500  90.0000  93.8400  90.0000  14 1

