# MOL2 file generated by ConQuest
# Please check atom types

@<TRIPOS>MOLECULE
DOKSIG
    54    54     2
SMALL
NO_CHARGES
****
Generated from CSD

@<TRIPOS>ATOM
      1 N1         7.1990    3.2982    6.0162 N.2       1 RES1    0.0000
      2 N2         7.3354    4.5805    6.4733 N.am      1 RES1    0.0000
      3 C1         7.1039    0.6634    5.2722 C.ar      1 RES1    0.0000
      4 H1         7.8665    0.9861    5.6953 H         1 RES1    0.0000
      5 O1         8.6074    6.1166    7.4912 O.2       1 RES1    0.0000
      6 C2         6.1129    2.9620    5.4131 C.2       1 RES1    0.0000
      7 C3         6.0494    1.5404    5.0012 C.ar      1 RES1    0.0000
      8 C4         5.9090   -1.1386    4.3072 C.ar      1 RES1    0.0000
      9 C5         7.0408   -0.6674    4.9268 C.ar      1 RES1    0.0000
     10 H2         7.7518   -1.2379    5.1098 H         1 RES1    0.0000
     11 C6         4.9311    1.0227    4.3565 C.ar      1 RES1    0.0000
     12 H3         4.2181    1.5860    4.1569 H         1 RES1    0.0000
     13 N3         5.8265   -2.5685    3.9681 N.pl3     1 RES1    0.0000
     14 C7         8.4949    4.9729    7.0500 C.2       1 RES1    0.0000
     15 O2         4.7874   -2.9712    3.4669 O.2       1 RES1    0.0000
     16 O3         6.7872   -3.2833    4.2165 O.2       1 RES1    0.0000
     17 C8         4.9663    3.8718    5.1161 C.3       1 RES1    0.0000
     18 H4         5.1627    4.7512    5.4465 H         1 RES1    0.0000
     19 H5         4.1745    3.5392    5.5430 H         1 RES1    0.0000
     20 H6         4.8263    3.9106    4.1666 H         1 RES1    0.0000
     21 C9         4.8574   -0.3190    4.0047 C.ar      1 RES1    0.0000
     22 H7         4.1061   -0.6537    3.5714 H         1 RES1    0.0000
     23 N4         4.1632    3.9943    1.2791 N.2       2 RES2    0.0000
     24 O4         1.3837    6.0500    1.0016 O.2       2 RES2    0.0000
     25 N5         2.9182    4.4333    0.9184 N.am      2 RES2    0.0000
     26 C10        6.7629    3.4591    1.9616 C.ar      2 RES2    0.0000
     27 H8         6.4297    4.3156    2.1057 H         2 RES2    0.0000
     28 C11        4.6228    2.9070    0.7929 C.2       2 RES2    0.0000
     29 C12        8.4884    1.8695    2.2191 C.ar      2 RES2    0.0000
     30 C13        5.9872    2.5339    1.2587 C.ar      2 RES2    0.0000
     31 C14        6.5219    1.2708    1.0387 C.ar      2 RES2    0.0000
     32 H9         6.0286    0.6435    0.5617 H         2 RES2    0.0000
     33 C15        8.0043    3.1322    2.4444 C.ar      2 RES2    0.0000
     34 H10        8.5094    3.7563    2.9161 H         2 RES2    0.0000
     35 C16        7.7714    0.9295    1.5162 C.ar      2 RES2    0.0000
     36 H11        8.1206    0.0804    1.3651 H         2 RES2    0.0000
     37 C17        2.4726    5.6177    1.3839 C.2       2 RES2    0.0000
     38 N6         9.7980    1.5085    2.7543 N.pl3     2 RES2    0.0000
     39 C18        3.3291    6.3645    2.3501 C.3       2 RES2    0.0000
     40 H12        2.8957    7.1855    2.5933 H         2 RES2    0.0000
     41 H13        4.1761    6.5579    1.9422 H         2 RES2    0.0000
     42 H14        3.4661    5.8299    3.1355 H         2 RES2    0.0000
     43 C19        3.8953    2.0153   -0.1691 C.3       2 RES2    0.0000
     44 H15        3.0358    2.3927   -0.3689 H         2 RES2    0.0000
     45 H16        3.7802    1.1467    0.2236 H         2 RES2    0.0000
     46 H17        4.4044    1.9349   -0.9795 H         2 RES2    0.0000
     47 O5        10.3463    2.2855    3.5183 O.2       2 RES2    0.0000
     48 O6        10.3012    0.4519    2.4145 O.2       2 RES2    0.0000
     49 C20        9.6093    3.9884    7.1330 C.3       1 RES1    0.0000
     50 H18       10.3655    4.3960    7.5592 H         1 RES1    0.0000
     51 H19        9.8535    3.7077    6.2472 H         1 RES1    0.0000
     52 H20        9.3255    3.2269    7.6430 H         1 RES1    0.0000
     53 H21        6.7208    5.2089    6.4274 H         1 RES1    0.0000
     54 H22        2.4603    4.0302    0.3465 H         2 RES2    0.0000
@<TRIPOS>BOND
     1    1    2 1
     2    2   14 1
     3    3    4 1
     4    5   14 2
     5    6    1 2
     6    7    3 ar
     7    8    9 ar
     8    9    3 ar
     9   10    9 1
    10   11    7 ar
    11   12   11 1
    12   13    8 1
    13   14   49 1
    14   15   13 2
    15   16   13 2
    16   17    6 1
    17   18   17 1
    18   19   17 1
    19   20   17 1
    20   21    8 ar
    21   22   21 1
    22   23   25 1
    23   24   37 2
    24   25   37 1
    25   26   27 1
    26   28   23 2
    27   29   33 ar
    28   30   26 ar
    29   31   30 ar
    30   32   31 1
    31   33   26 ar
    32   34   33 1
    33   35   29 ar
    34   36   35 1
    35   37   39 1
    36   38   29 1
    37   39   40 1
    38   41   39 1
    39   42   39 1
    40   43   28 1
    41   44   43 1
    42   45   43 1
    43   46   43 1
    44   47   38 2
    45   48   38 2
    46   49   50 1
    47   51   49 1
    48   52   49 1
    49   53    2 1
    50   54   25 1
    51    6    7 1
    52   11   21 ar
    53   28   30 1
    54   31   35 ar
@<TRIPOS>SUBSTRUCTURE
     1 RES1 1
     2 RES2 23

@<TRIPOS>CRYSIN
   8.4453    9.5438   14.8200  72.6600  77.3700  75.5900   2 1

