# MOL2 file generated by ConQuest
# Please check atom types

@<TRIPOS>MOLECULE
DOKVUV
    35    36     1
SMALL
NO_CHARGES
****
Generated from CSD

@<TRIPOS>ATOM
      1 O1        -0.5923    1.2074    3.1126 O.3       1 RES1    0.0000
      2 O2         1.2523   -0.0753    3.0306 O.2       1 RES1    0.0000
      3 O3        -0.1554   -4.1819   -1.4326 O.2       1 RES1    0.0000
      4 O4         1.5510   -3.4004   -0.3929 O.2       1 RES1    0.0000
      5 N1         0.3363   -3.3717   -0.6350 N.pl3     1 RES1    0.0000
      6 N2        -2.4636   -2.9398   -1.3268 N.pl3     1 RES1    0.0000
      7 H1        -2.0274   -3.5906   -1.6813 H         1 RES1    0.0000
      8 C1        -0.9564    2.9180    4.7092 C.3       1 RES1    0.0000
      9 H2        -0.5624    3.4380    5.4130 H         1 RES1    0.0000
     10 H3        -1.7091    2.4317    5.0532 H         1 RES1    0.0000
     11 H4        -1.2465    3.5014    4.0042 H         1 RES1    0.0000
     12 C2         0.0319    1.9800    4.1880 C.3       1 RES1    0.0000
     13 H5         0.3302    1.3857    4.8944 H         1 RES1    0.0000
     14 H6         0.8007    2.4624    3.8481 H         1 RES1    0.0000
     15 C3         0.1144    0.1813    2.6496 C.2       1 RES1    0.0000
     16 C4        -0.5675   -0.6002    1.5900 C.ar      1 RES1    0.0000
     17 C5         0.1167   -1.5917    0.9564 C.ar      1 RES1    0.0000
     18 H7         1.0035   -1.7472    1.1866 H         1 RES1    0.0000
     19 C6        -0.4743   -2.3762   -0.0238 C.ar      1 RES1    0.0000
     20 C7        -1.8404   -2.1702   -0.3902 C.ar      1 RES1    0.0000
     21 C8        -2.5026   -1.1440    0.2685 C.ar      1 RES1    0.0000
     22 H8        -3.3890   -0.9747    0.0450 H         1 RES1    0.0000
     23 C9        -1.9122   -0.3665    1.2355 C.ar      1 RES1    0.0000
     24 H9        -2.3960    0.3100    1.6522 H         1 RES1    0.0000
     25 C10       -3.8350   -2.7060   -1.7488 C.ar      1 RES1    0.0000
     26 C11       -4.8038   -3.5539   -1.3281 C.ar      1 RES1    0.0000
     27 H10       -4.5946   -4.2433   -0.7395 H         1 RES1    0.0000
     28 C12       -6.1098   -3.3954   -1.7752 C.ar      1 RES1    0.0000
     29 H11       -6.7803   -3.9739   -1.4908 H         1 RES1    0.0000
     30 C13       -6.3946   -2.3742   -2.6390 C.ar      1 RES1    0.0000
     31 H12       -7.2689   -2.2583   -2.9353 H         1 RES1    0.0000
     32 C14       -5.4208   -1.5214   -3.0742 C.ar      1 RES1    0.0000
     33 H13       -5.6379   -0.8330   -3.6616 H         1 RES1    0.0000
     34 C15       -4.0974   -1.6749   -2.6443 C.ar      1 RES1    0.0000
     35 H14       -3.4216   -1.1113   -2.9446 H         1 RES1    0.0000
@<TRIPOS>BOND
     1    1   12 1
     2    2   15 2
     3    3    5 2
     4    4    5 2
     5    5   19 1
     6    6    7 1
     7    8    9 1
     8   10    8 1
     9   11    8 1
    10   12    8 1
    11   13   12 1
    12   14   12 1
    13   15    1 1
    14   16   15 1
    15   17   16 ar
    16   18   17 1
    17   19   17 ar
    18   20    6 1
    19   21   20 ar
    20   22   21 1
    21   23   16 ar
    22   24   23 1
    23   25    6 1
    24   26   25 ar
    25   27   26 1
    26   28   26 ar
    27   29   28 1
    28   30   28 ar
    29   31   30 1
    30   32   30 ar
    31   33   32 1
    32   34   25 ar
    33   35   34 1
    34   19   20 ar
    35   21   23 ar
    36   32   34 ar
@<TRIPOS>SUBSTRUCTURE
     1 RES1 1

@<TRIPOS>CRYSIN
  10.6830    9.9050   13.6980  90.0000 105.0500  90.0000 231 1

