# MOL2 file generated by ConQuest
# Please check atom types

@<TRIPOS>MOLECULE
DOKVUV01
    35    36     1
SMALL
NO_CHARGES
****
Generated from CSD

@<TRIPOS>ATOM
      1 O1        -2.6312   -1.2713    9.7410 O.3       1 RES1    0.0000
      2 O2        -0.7841    0.0160    9.8271 O.2       1 RES1    0.0000
      3 O3        -0.5612    3.4153   13.1871 O.2       1 RES1    0.0000
      4 O4        -2.3052    4.2323   14.1739 O.2       1 RES1    0.0000
      5 N1        -4.6178    2.9717   14.0350 N.3       1 RES1    0.0000
      6 N2        -1.7723    3.4067   13.4152 N.pl3     1 RES1    0.0000
      7 C1        -1.9659    1.5928   11.8343 C.ar      1 RES1    0.0000
      8 H1        -1.0756    1.7495   11.6194 H         1 RES1    0.0000
      9 C2        -2.5919    2.3945   12.7851 C.ar      1 RES1    0.0000
     10 C3        -3.9595    2.2013   13.1402 C.ar      1 RES1    0.0000
     11 C4        -4.6227    1.1298   12.4818 C.ar      1 RES1    0.0000
     12 H2        -5.5146    0.9600   12.6849 H         1 RES1    0.0000
     13 C5        -3.9894    0.3388   11.5558 C.ar      1 RES1    0.0000
     14 H3        -4.4544   -0.3590   11.1531 H         1 RES1    0.0000
     15 C6        -2.6459    0.5701   11.2071 C.ar      1 RES1    0.0000
     16 C7        -1.9138   -0.2300   10.2054 C.2       1 RES1    0.0000
     17 C8        -1.9760   -2.0621    8.7061 C.3       1 RES1    0.0000
     18 H4        -1.2205   -2.5419    9.0796 H         1 RES1    0.0000
     19 H5        -1.6545   -1.4847    7.9963 H         1 RES1    0.0000
     20 C9        -2.9790   -3.0197    8.1738 C.3       1 RES1    0.0000
     21 H6        -2.5781   -3.5526    7.4840 H         1 RES1    0.0000
     22 H7        -3.7237   -2.5340    7.8110 H         1 RES1    0.0000
     23 H8        -3.2840   -3.5902    8.8829 H         1 RES1    0.0000
     24 C10       -5.9692    2.7546   14.4463 C.ar      1 RES1    0.0000
     25 C11       -6.9391    3.6707   14.0547 C.ar      1 RES1    0.0000
     26 H9        -6.7106    4.3817   13.5000 H         1 RES1    0.0000
     27 C12       -8.2480    3.5245   14.4911 C.ar      1 RES1    0.0000
     28 H10       -8.8952    4.1417   14.2359 H         1 RES1    0.0000
     29 C13       -8.5915    2.4600   15.3065 C.ar      1 RES1    0.0000
     30 H11       -9.4711    2.3545   15.5888 H         1 RES1    0.0000
     31 C14       -7.6206    1.5498   15.7021 C.ar      1 RES1    0.0000
     32 H12       -7.8510    0.8390   16.2557 H         1 RES1    0.0000
     33 C15       -6.3026    1.6950   15.2739 C.ar      1 RES1    0.0000
     34 H13       -5.6524    1.0860   15.5415 H         1 RES1    0.0000
     35 H14       -4.2117    3.6626   14.3432 H         1 RES1    0.0000
@<TRIPOS>BOND
     1    1   16 1
     2    2   16 2
     3    3    6 2
     4    4    6 2
     5    5   10 1
     6    6    9 1
     7    7    8 1
     8    9    7 ar
     9   10    9 ar
    10   11   10 ar
    11   12   11 1
    12   13   11 ar
    13   14   13 1
    14   15    7 ar
    15   16   15 1
    16   17    1 1
    17   18   17 1
    18   19   17 1
    19   20   17 1
    20   21   20 1
    21   22   20 1
    22   23   20 1
    23   24    5 1
    24   25   24 ar
    25   26   25 1
    26   27   25 ar
    27   28   27 1
    28   29   27 ar
    29   30   29 1
    30   31   29 ar
    31   32   31 1
    32   33   24 ar
    33   34   33 1
    34   35    5 1
    35   13   15 ar
    36   31   33 ar
@<TRIPOS>SUBSTRUCTURE
     1 RES1 1

@<TRIPOS>CRYSIN
  10.6464    9.9178   14.7885  90.0000 120.2440  90.0000  14 1

