# MOL2 file generated by ConQuest
# Please check atom types

@<TRIPOS>MOLECULE
DOKYIL
    39    41     1
SMALL
NO_CHARGES
****
Generated from CSD

@<TRIPOS>ATOM
      1 C1        -0.1202    1.8426    7.9360 C.ar      1 RES1    0.0000
      2 C2         0.3252    3.1203    7.7563 C.ar      1 RES1    0.0000
      3 C3         0.9289    3.4573    6.6111 C.ar      1 RES1    0.0000
      4 C4         1.0720    2.5500    5.5866 C.ar      1 RES1    0.0000
      5 C5         0.6249    1.2498    5.7985 C.ar      1 RES1    0.0000
      6 C6         0.0144    0.8989    6.9652 C.ar      1 RES1    0.0000
      7 N1         1.6191    2.8603    4.3743 N.3       1 RES1    0.0000
      8 N2         2.0848    4.1185    4.1598 N.2       1 RES1    0.0000
      9 C7         2.6056    4.3953    3.0119 C.2       1 RES1    0.0000
     10 C8         3.0383    5.8157    2.8590 C.ar      1 RES1    0.0000
     11 C9         4.0934    6.1428    2.0088 C.ar      1 RES1    0.0000
     12 C10        4.5600    7.4178    1.9257 C.ar      1 RES1    0.0000
     13 C11        4.0215    8.4146    2.6793 C.ar      1 RES1    0.0000
     14 C12        2.9646    8.1000    3.5161 C.ar      1 RES1    0.0000
     15 C13        2.4777    6.8166    3.6153 C.ar      1 RES1    0.0000
     16 C14        2.7411    3.4782    1.8854 C.ar      1 RES1    0.0000
     17 C15        3.3415    2.2046    2.0356 C.ar      1 RES1    0.0000
     18 C16        3.3855    1.3575    0.9602 C.ar      1 RES1    0.0000
     19 C17        2.8867    1.7265   -0.2414 C.ar      1 RES1    0.0000
     20 C18        2.3617    3.0071   -0.4238 C.ar      1 RES1    0.0000
     21 C19        2.2813    3.8235    0.6571 C.ar      1 RES1    0.0000
     22 N3        -0.7824    1.4525    9.2314 N.pl3     1 RES1    0.0000
     23 O1        -1.1246    0.2894    9.3521 O.2       1 RES1    0.0000
     24 O2        -0.9095    2.3263   10.0655 O.2       1 RES1    0.0000
     25 H1         0.3557    3.7438    8.2927 H         1 RES1    0.0000
     26 H2         1.1178    4.2695    6.3644 H         1 RES1    0.0000
     27 H3         0.7045    0.4963    5.1789 H         1 RES1    0.0000
     28 H4        -0.2964    0.0503    7.0993 H         1 RES1    0.0000
     29 H5         1.7918    2.0551    3.5885 H         1 RES1    0.0000
     30 H6         4.3017    5.4704    1.3920 H         1 RES1    0.0000
     31 H7         5.4449    7.6862    1.4241 H         1 RES1    0.0000
     32 H8         4.3288    9.3694    2.5667 H         1 RES1    0.0000
     33 H9         2.6124    8.7207    4.1249 H         1 RES1    0.0000
     34 H10        1.7952    6.4574    4.3019 H         1 RES1    0.0000
     35 H11        3.7513    1.9754    2.9475 H         1 RES1    0.0000
     36 H12        3.7598    0.6347    1.1425 H         1 RES1    0.0000
     37 H13        2.8478    1.1603   -1.0460 H         1 RES1    0.0000
     38 H14        2.1373    3.2490   -1.4563 H         1 RES1    0.0000
     39 H15        2.0323    4.6651    0.5900 H         1 RES1    0.0000
@<TRIPOS>BOND
     1    1    2 ar
     2    2    3 ar
     3    3    4 ar
     4    4    5 ar
     5    5    6 ar
     6    6    1 ar
     7    7    4 1
     8    8    7 1
     9    9    8 2
    10   10    9 1
    11   11   10 ar
    12   12   11 ar
    13   13   12 ar
    14   14   13 ar
    15   15   10 ar
    16   16    9 1
    17   17   16 ar
    18   18   17 ar
    19   19   18 ar
    20   20   19 ar
    21   21   16 ar
    22   22    1 1
    23   23   22 2
    24   24   22 2
    25   25    2 1
    26   26    3 1
    27   27    5 1
    28   28    6 1
    29   29    7 1
    30   30   11 1
    31   31   12 1
    32   32   13 1
    33   33   14 1
    34   34   15 1
    35   35   17 1
    36   36   18 1
    37   37   19 1
    38   38   20 1
    39   39   21 1
    40   14   15 ar
    41   20   21 ar
@<TRIPOS>SUBSTRUCTURE
     1 RES1 1

@<TRIPOS>CRYSIN
   8.4680   13.9800   26.8200  90.0000  90.0000  90.0000  61 3

