# MOL2 file generated by ConQuest
# Please check atom types

@<TRIPOS>MOLECULE
DOKYEH
    39    41     1
SMALL
NO_CHARGES
****
Generated from CSD

@<TRIPOS>ATOM
      1 C1        -2.8318    0.2414   -0.7553 C.ar      1 RES1    0.0000
      2 C2        -2.1969   -0.5415    0.2055 C.ar      1 RES1    0.0000
      3 C3        -1.2610    0.0192    1.1589 C.ar      1 RES1    0.0000
      4 C4        -1.0198    1.4163    1.1664 C.ar      1 RES1    0.0000
      5 C5        -1.7510    2.1889    0.1981 C.ar      1 RES1    0.0000
      6 C6        -2.6416    1.6091   -0.7384 C.ar      1 RES1    0.0000
      7 N1        -0.0958    2.0280    2.0605 N.3       1 RES1    0.0000
      8 N2         0.1127    3.3907    1.9884 N.2       1 RES1    0.0000
      9 C7         1.0250    3.8977    2.8296 C.2       1 RES1    0.0000
     10 C8         1.1803    5.3868    2.7533 C.ar      1 RES1    0.0000
     11 C9         0.4418    6.1761    1.8327 C.ar      1 RES1    0.0000
     12 C10        0.5717    7.5579    1.8338 C.ar      1 RES1    0.0000
     13 C11        1.4423    8.2028    2.7215 C.ar      1 RES1    0.0000
     14 C12        2.2053    7.4417    3.5912 C.ar      1 RES1    0.0000
     15 C13        2.0949    6.0560    3.6400 C.ar      1 RES1    0.0000
     16 C14        1.8562    3.0855    3.8232 C.ar      1 RES1    0.0000
     17 C15        3.1204    2.6015    3.5393 C.ar      1 RES1    0.0000
     18 C16        3.8614    1.8812    4.4641 C.ar      1 RES1    0.0000
     19 C17        3.4185    1.6270    5.7354 C.ar      1 RES1    0.0000
     20 C18        2.1895    2.1098    6.0235 C.ar      1 RES1    0.0000
     21 C19        1.4106    2.8262    5.0881 C.ar      1 RES1    0.0000
     22 N3        -0.6171   -0.8723    2.1484 N.pl3     1 RES1    0.0000
     23 O1        -0.8160   -2.0855    2.0297 O.2       1 RES1    0.0000
     24 O2         0.1457   -0.4138    3.0594 O.2       1 RES1    0.0000
     25 H1        -3.4672   -0.2235   -1.3973 H         1 RES1    0.0000
     26 H2        -2.1322   -1.4636    0.2225 H         1 RES1    0.0000
     27 H3        -1.5361    3.1200    0.2299 H         1 RES1    0.0000
     28 H4        -3.1008    2.2617   -1.4121 H         1 RES1    0.0000
     29 H5         0.4333    1.6398    2.6526 H         1 RES1    0.0000
     30 H6        -0.3481    5.6652    1.2564 H         1 RES1    0.0000
     31 H7         0.0563    7.9819    1.1589 H         1 RES1    0.0000
     32 H8         1.5121    9.1402    2.8582 H         1 RES1    0.0000
     33 H9         2.7578    7.7929    4.1304 H         1 RES1    0.0000
     34 H10        2.8073    5.5656    4.1304 H         1 RES1    0.0000
     35 H11        3.4357    2.7649    2.7215 H         1 RES1    0.0000
     36 H12        4.6512    1.5070    4.3889 H         1 RES1    0.0000
     37 H13        3.9382    1.1890    6.3816 H         1 RES1    0.0000
     38 H14        1.8604    1.9757    6.9399 H         1 RES1    0.0000
     39 H15        0.4553    3.2017    5.2544 H         1 RES1    0.0000
@<TRIPOS>BOND
     1    1    2 ar
     2    2    3 ar
     3    3    4 ar
     4    4    5 ar
     5    5    6 ar
     6    6    1 ar
     7    7    4 1
     8    8    7 1
     9    9    8 2
    10   10    9 1
    11   11   10 ar
    12   12   11 ar
    13   13   12 ar
    14   14   13 ar
    15   15   10 ar
    16   16    9 1
    17   17   16 ar
    18   18   17 ar
    19   19   18 ar
    20   20   19 ar
    21   21   16 ar
    22   22    3 1
    23   23   22 2
    24   24   22 2
    25   25    1 1
    26   26    2 1
    27   27    5 1
    28   28    6 1
    29   29    7 1
    30   30   11 1
    31   31   12 1
    32   32   13 1
    33   33   14 1
    34   34   15 1
    35   35   17 1
    36   36   18 1
    37   37   19 1
    38   38   20 1
    39   39   21 1
    40   14   15 ar
    41   20   21 ar
@<TRIPOS>SUBSTRUCTURE
     1 RES1 1

@<TRIPOS>CRYSIN
  12.0740   12.7710   11.9980  90.0000 118.0000  90.0000  14 2

