# MOL2 file generated by ConQuest
# Please check atom types

@<TRIPOS>MOLECULE
DOLQOK
    72    77     1
SMALL
NO_CHARGES
****
Generated from CSD

@<TRIPOS>ATOM
      1 O1         4.0201    3.6639    5.3300 O.3       1 RES1    0.0000
      2 O2         4.7509    0.7545    8.3725 O.2       1 RES1    0.0000
      3 O3         2.9351    4.3119   10.3526 O.2       1 RES1    0.0000
      4 O4         8.2850    4.3056    8.8600 O.3       1 RES1    0.0000
      5 O5         0.2919    7.9089    7.9250 O.3       1 RES1    0.0000
      6 O6         1.8951    2.1925    7.5804 O.2       1 RES1    0.0000
      7 O7         1.2214    2.5834    5.4744 O.3       1 RES1    0.0000
      8 N1         4.8323    2.7610    7.2516 N.am      1 RES1    0.0000
      9 N2         4.3314    2.7088    9.5091 N.am      1 RES1    0.0000
     10 N3         3.9327    4.6567    8.3539 N.am      1 RES1    0.0000
     11 N4         7.0683    3.7037    8.3610 N.2       1 RES1    0.0000
     12 C1         4.6355    1.9438    8.3610 C.2       1 RES1    0.0000
     13 C2         3.6502    3.9210    9.4891 C.2       1 RES1    0.0000
     14 C3         4.9450    4.1593    7.4103 C.3       1 RES1    0.0000
     15 C4         4.5384    4.7759    6.0449 C.3       1 RES1    0.0000
     16 C5         3.4664    5.7415    6.4052 C.ar      1 RES1    0.0000
     17 C6         2.7749    6.6716    5.6417 C.ar      1 RES1    0.0000
     18 C7         1.7206    7.3781    6.1778 C.ar      1 RES1    0.0000
     19 C8         1.3392    7.1732    7.5118 C.ar      1 RES1    0.0000
     20 C9         2.0400    6.2766    8.3096 C.ar      1 RES1    0.0000
     21 C10        3.0756    5.6015    7.7420 C.ar      1 RES1    0.0000
     22 C11        4.2388    2.0044   10.7730 C.ar      1 RES1    0.0000
     23 C12        5.3404    2.1194   11.6437 C.ar      1 RES1    0.0000
     24 C13        5.2205    1.5049   12.8790 C.ar      1 RES1    0.0000
     25 C14        4.1391    0.7733   13.2235 C.ar      1 RES1    0.0000
     26 C15        3.0794    0.6626   12.3400 C.ar      1 RES1    0.0000
     27 C16        3.1623    1.2791   11.0990 C.ar      1 RES1    0.0000
     28 C17        6.3145    4.6588    7.9250 C.2       1 RES1    0.0000
     29 C18        6.5952    6.0717    7.9378 C.3       1 RES1    0.0000
     30 C19        9.0341    3.2146    9.4762 C.3       1 RES1    0.0000
     31 C20       -0.1009    7.7647    9.2803 C.3       1 RES1    0.0000
     32 C21        4.4874    2.4162    5.8233 C.3       1 RES1    0.0000
     33 C22        3.2707    1.4422    5.7747 C.3       1 RES1    0.0000
     34 C23        2.0550    2.0755    6.3794 C.2       1 RES1    0.0000
     35 C24        0.1143    3.4027    5.9877 C.3       1 RES1    0.0000
     36 C25       -0.4959    4.1384    4.8939 C.3       1 RES1    0.0000
     37 C26        5.6407    1.8727    5.0698 C.ar      1 RES1    0.0000
     38 C27        6.5920    1.0492    5.6231 C.ar      1 RES1    0.0000
     39 C28        7.5905    0.4995    4.8582 C.ar      1 RES1    0.0000
     40 C29        7.6753    0.7211    3.5357 C.ar      1 RES1    0.0000
     41 C30        6.7269    1.4902    2.9638 C.ar      1 RES1    0.0000
     42 C31        5.7333    2.0901    3.7101 C.ar      1 RES1    0.0000
     43 H1         5.2754    5.1918    5.5959 H         1 RES1    0.0000
     44 H2         3.0340    6.8367    4.7438 H         1 RES1    0.0000
     45 H3         1.2558    8.0072    5.6417 H         1 RES1    0.0000
     46 H4         1.8028    6.1365    9.2232 H         1 RES1    0.0000
     47 H5         6.1309    2.5771   11.3921 H         1 RES1    0.0000
     48 H6         5.9249    1.5989   13.5009 H         1 RES1    0.0000
     49 H7         4.1070    0.3449   14.0671 H         1 RES1    0.0000
     50 H8         2.3034    0.1797   12.5730 H         1 RES1    0.0000
     51 H9         2.4479    1.1955   10.4785 H         1 RES1    0.0000
     52 H10        6.6882    6.3727    8.8328 H         1 RES1    0.0000
     53 H11        7.4109    6.2327    7.4675 H         1 RES1    0.0000
     54 H12        5.8918    6.5420    7.5118 H         1 RES1    0.0000
     55 H13        8.5063    2.8384   10.1754 H         1 RES1    0.0000
     56 H14        9.2052    2.5499    8.8200 H         1 RES1    0.0000
     57 H15        9.8418    3.5469    9.8236 H         1 RES1    0.0000
     58 H16       -0.8457    8.3228    9.4491 H         1 RES1    0.0000
     59 H17       -0.3265    6.8597    9.4405 H         1 RES1    0.0000
     60 H18        0.6246    8.0176    9.8394 H         1 RES1    0.0000
     61 H19        3.0840    1.2185    4.8696 H         1 RES1    0.0000
     62 H20        3.4826    0.6521    6.2579 H         1 RES1    0.0000
     63 H21       -0.5172    2.8634    6.4123 H         1 RES1    0.0000
     64 H22        0.4695    4.0443    6.6082 H         1 RES1    0.0000
     65 H23        6.5720    0.8695    6.5567 H         1 RES1    0.0000
     66 H24        8.2255   -0.0648    5.2657 H         1 RES1    0.0000
     67 H25        8.3842    0.3595    3.0210 H         1 RES1    0.0000
     68 H26        6.7362    1.6031    2.0231 H         1 RES1    0.0000
     69 H27        5.1208    2.6753    3.2826 H         1 RES1    0.0000
     70 H28        0.1345    4.7132    4.4993 H         1 RES1    0.0000
     71 H29       -0.7850    3.4905    4.2377 H         1 RES1    0.0000
     72 H30       -1.2394    4.6087    5.2128 H         1 RES1    0.0000
@<TRIPOS>BOND
     1    1   15 1
     2    2   12 2
     3    3   13 2
     4    4   11 1
     5    5   19 1
     6    6   34 2
     7    7   34 1
     8    8   12 1
     9    9   12 1
    10   10   13 1
    11   11   28 2
    12   13    9 1
    13   14    8 1
    14   15   14 1
    15   16   15 1
    16   17   16 ar
    17   18   17 ar
    18   19   18 ar
    19   20   19 ar
    20   21   10 1
    21   22    9 1
    22   23   22 ar
    23   24   23 ar
    24   25   24 ar
    25   26   25 ar
    26   27   22 ar
    27   28   14 1
    28   29   28 1
    29   30    4 1
    30   31    5 1
    31   32    1 1
    32   33   32 1
    33   34   33 1
    34   35    7 1
    35   36   35 1
    36   37   32 1
    37   38   37 ar
    38   39   38 ar
    39   40   39 ar
    40   41   40 ar
    41   42   37 ar
    42   43   15 1
    43   44   17 1
    44   45   18 1
    45   46   20 1
    46   47   23 1
    47   48   24 1
    48   49   25 1
    49   50   26 1
    50   51   27 1
    51   52   29 1
    52   53   29 1
    53   54   29 1
    54   55   30 1
    55   56   30 1
    56   57   30 1
    57   58   31 1
    58   59   31 1
    59   60   31 1
    60   61   33 1
    61   62   33 1
    62   63   35 1
    63   64   35 1
    64   65   38 1
    65   66   39 1
    66   67   40 1
    67   68   41 1
    68   69   42 1
    69   70   36 1
    70   71   36 1
    71   72   36 1
    72    8   32 1
    73   10   14 1
    74   16   21 ar
    75   20   21 ar
    76   26   27 ar
    77   41   42 ar
@<TRIPOS>SUBSTRUCTURE
     1 RES1 1

@<TRIPOS>CRYSIN
   9.6270   20.9010   14.7750  90.0000 104.6100  90.0000  14 1

