# MOL2 file generated by ConQuest
# Please check atom types

@<TRIPOS>MOLECULE
DOMQUS
    21    21     1
SMALL
NO_CHARGES
****
Generated from CSD

@<TRIPOS>ATOM
      1 N1         1.6192    8.3272    5.3152 N.ar      1 RES1    0.0000
      2 C1         2.5469    8.3959    6.2752 C.ar      1 RES1    0.0000
      3 C2         2.5019    9.5539    7.2264 C.2       1 RES1    0.0000
      4 O1         3.3228    9.6359    8.1499 O.2       1 RES1    0.0000
      5 N2         1.4976   10.4017    7.0423 N.am      1 RES1    0.0000
      6 H1         0.9588   10.4729    6.3795 H         1 RES1    0.0000
      7 O2         1.3122   11.4106    7.9831 O.3       1 RES1    0.0000
      8 H2         1.9424   11.8821    7.9528 H         1 RES1    0.0000
      9 C3         3.5062    7.4170    6.4932 C.ar      1 RES1    0.0000
     10 H3         4.1270    7.5192    7.1575 H         1 RES1    0.0000
     11 C4         3.4800    6.2807    5.6984 C.ar      1 RES1    0.0000
     12 H4         4.0825    5.5887    5.8342 H         1 RES1    0.0000
     13 C5         2.5296    6.1872    4.6955 C.ar      1 RES1    0.0000
     14 H5         2.4811    5.4536    4.1367 H         1 RES1    0.0000
     15 C6         1.6300    7.2341    4.5383 C.ar      1 RES1    0.0000
     16 C7         0.5906    7.1314    3.4664 C.2       1 RES1    0.0000
     17 O3         0.4438    6.0882    2.8140 O.2       1 RES1    0.0000
     18 N3        -0.1241    8.2462    3.2938 N.am      1 RES1    0.0000
     19 H6        -0.0643    8.8609    3.8255 H         1 RES1    0.0000
     20 O4        -1.2450    8.1939    2.4761 O.3       1 RES1    0.0000
     21 H7        -1.0626    8.6099    1.8012 H         1 RES1    0.0000
@<TRIPOS>BOND
     1    1    2 ar
     2    2    3 1
     3    3    4 2
     4    5    3 1
     5    6    5 1
     6    7    5 1
     7    8    7 1
     8    9    2 ar
     9   10    9 1
    10   11    9 ar
    11   12   11 1
    12   13   11 ar
    13   14   13 1
    14   15    1 ar
    15   16   15 1
    16   17   16 2
    17   18   16 1
    18   19   18 1
    19   20   18 1
    20   21   20 1
    21   13   15 ar
@<TRIPOS>SUBSTRUCTURE
     1 RES1 1

@<TRIPOS>CRYSIN
   4.9425    9.6524   15.7170  90.0000  90.0000  90.0000  19 1

