# MOL2 file generated by ConQuest
# Please check atom types

@<TRIPOS>MOLECULE
DONYUC
    60    66     1
SMALL
NO_CHARGES
****
Generated from CSD

@<TRIPOS>ATOM
      1 O1         0.8507   11.1523   17.8817 O.3       1 RES1    0.0000
      2 O2        -1.8320    8.1391   18.2191 O.3       1 RES1    0.0000
      3 N1        -0.1665   11.2694   18.9449 N.3       1 RES1    0.0000
      4 N2        -1.6150    8.7079   16.8831 N.3       1 RES1    0.0000
      5 C1        -1.1193   15.3156   19.6447 C.ar      1 RES1    0.0000
      6 H1        -1.3572   16.2235   19.7911 H         1 RES1    0.0000
      7 C2        -0.0700   14.9932   18.8050 C.ar      1 RES1    0.0000
      8 H2         0.4291   15.6887   18.3940 H         1 RES1    0.0000
      9 C3         0.2664   13.6669   18.5527 C.ar      1 RES1    0.0000
     10 H3         0.9980   13.4582   17.9844 H         1 RES1    0.0000
     11 C4        -0.4778   12.6492   19.1404 C.ar      1 RES1    0.0000
     12 C5        -1.2654   10.3862   18.5519 C.3       1 RES1    0.0000
     13 H4        -2.1632   10.7986   18.7027 H         1 RES1    0.0000
     14 C6        -1.0236   10.0254   17.0895 C.3       1 RES1    0.0000
     15 H5        -1.3840   10.7123   16.4586 H         1 RES1    0.0000
     16 C7        -2.8214    8.6078   16.1369 C.ar      1 RES1    0.0000
     17 C8        -3.8231    7.7202   16.5184 C.ar      1 RES1    0.0000
     18 H6        -3.7360    7.2244   17.3234 H         1 RES1    0.0000
     19 C9        -4.9472    7.5579   15.7246 C.ar      1 RES1    0.0000
     20 H7        -5.6330    6.9585   15.9956 H         1 RES1    0.0000
     21 C10       -5.0778    8.2643   14.5387 C.ar      1 RES1    0.0000
     22 H8        -5.8518    8.1544   13.9988 H         1 RES1    0.0000
     23 C11        0.5229    9.9790   17.1022 C.3       1 RES1    0.0000
     24 C12        1.1517   10.1392   15.7407 C.ar      1 RES1    0.0000
     25 C13        0.7965    9.2487   14.7227 C.ar      1 RES1    0.0000
     26 H9         0.1878    8.5424   14.9072 H         1 RES1    0.0000
     27 C14        1.3247    9.3850   13.4424 C.ar      1 RES1    0.0000
     28 H10        1.0699    8.7785   12.7561 H         1 RES1    0.0000
     29 C15        2.2260   10.4091   13.1645 C.ar      1 RES1    0.0000
     30 H11        2.5884   10.5060   12.2910 H         1 RES1    0.0000
     31 C16        2.5879   11.2827   14.1724 C.ar      1 RES1    0.0000
     32 H12        3.2065   11.9800   13.9889 H         1 RES1    0.0000
     33 C17        2.0596   11.1547   15.4456 C.ar      1 RES1    0.0000
     34 H13        2.3180   11.7655   16.1262 H         1 RES1    0.0000
     35 C18       -1.1428    8.9773   19.1786 C.3       1 RES1    0.0000
     36 C19        0.3393    8.5831   19.2261 C.3       1 RES1    0.0000
     37 H14        0.4209    7.6483   19.5418 H         1 RES1    0.0000
     38 H15        0.8145    9.1665   19.8703 H         1 RES1    0.0000
     39 C20        0.9907    8.7148   17.8395 C.3       1 RES1    0.0000
     40 H16        1.9751    8.7436   17.9428 H         1 RES1    0.0000
     41 H17        0.7650    7.9183   17.2957 H         1 RES1    0.0000
     42 C21       -1.8611    8.8426   20.5055 C.ar      1 RES1    0.0000
     43 C22       -3.0172    8.0831   20.6464 C.ar      1 RES1    0.0000
     44 H18       -3.3658    7.6144   19.8980 H         1 RES1    0.0000
     45 C23       -3.6676    8.0031   21.8717 C.ar      1 RES1    0.0000
     46 H19       -4.4470    7.4676   21.9580 H         1 RES1    0.0000
     47 C24       -3.1858    8.7009   22.9706 C.ar      1 RES1    0.0000
     48 H20       -3.6368    8.6522   23.8044 H         1 RES1    0.0000
     49 C25       -2.0373    9.4716   22.8394 C.ar      1 RES1    0.0000
     50 H21       -1.7052    9.9558   23.5867 H         1 RES1    0.0000
     51 C26       -1.3727    9.5370   21.6220 C.ar      1 RES1    0.0000
     52 H22       -0.5814   10.0564   21.5444 H         1 RES1    0.0000
     53 C27       -4.0702    9.1323   14.1465 C.ar      1 RES1    0.0000
     54 H23       -4.1558    9.6150   13.3319 H         1 RES1    0.0000
     55 C28       -2.9445    9.3029   14.9250 C.ar      1 RES1    0.0000
     56 H24       -2.2537    9.8901   14.6400 H         1 RES1    0.0000
     57 C29       -1.5024   12.9691   20.0349 C.ar      1 RES1    0.0000
     58 H25       -1.9795   12.2788   20.4798 H         1 RES1    0.0000
     59 C30       -1.8205   14.2947   20.2700 C.ar      1 RES1    0.0000
     60 H26       -2.5283   14.5083   20.8676 H         1 RES1    0.0000
@<TRIPOS>BOND
     1    1    3 1
     2    2    4 1
     3    3   11 1
     4    4   14 1
     5    5    6 1
     6    7    5 ar
     7    8    7 1
     8    9    7 ar
     9   10    9 1
    10   11    9 ar
    11   12    3 1
    12   13   12 1
    13   14   12 1
    14   15   14 1
    15   16    4 1
    16   17   16 ar
    17   18   17 1
    18   19   17 ar
    19   20   19 1
    20   21   19 ar
    21   22   21 1
    22   23    1 1
    23   24   23 1
    24   25   24 ar
    25   26   25 1
    26   27   25 ar
    27   28   27 1
    28   29   27 ar
    29   30   29 1
    30   31   29 ar
    31   32   31 1
    32   33   24 ar
    33   34   33 1
    34   35    2 1
    35   36   35 1
    36   37   36 1
    37   38   36 1
    38   39   23 1
    39   40   39 1
    40   41   39 1
    41   42   35 1
    42   43   42 ar
    43   44   43 1
    44   45   43 ar
    45   46   45 1
    46   47   45 ar
    47   48   47 1
    48   49   47 ar
    49   50   49 1
    50   51   42 ar
    51   52   51 1
    52   53   21 ar
    53   54   53 1
    54   55   16 ar
    55   56   55 1
    56   57   11 ar
    57   58   57 1
    58   59    5 ar
    59   60   59 1
    60   12   35 1
    61   14   23 1
    62   31   33 ar
    63   36   39 1
    64   49   51 ar
    65   53   55 ar
    66   57   59 ar
@<TRIPOS>SUBSTRUCTURE
     1 RES1 1

@<TRIPOS>CRYSIN
  11.2528   10.2648   20.1783  90.0000 101.2710  90.0000  14 1

