# MOL2 file generated by ConQuest
# Please check atom types

@<TRIPOS>MOLECULE
DOPKEZ
    37    38     1
SMALL
NO_CHARGES
****
Generated from CSD

@<TRIPOS>ATOM
      1 C1         8.1265    3.8067   -3.7116 C.3       1 RES1    0.0000
      2 H1         7.8538    3.0268   -4.2394 H         1 RES1    0.0000
      3 H2         9.1022    3.8145   -3.6209 H         1 RES1    0.0000
      4 H3         7.8338    4.6251   -4.1626 H         1 RES1    0.0000
      5 C2         7.5007    3.7350   -2.3572 C.2       1 RES1    0.0000
      6 C3         7.7515    4.7638   -1.3878 C.2       1 RES1    0.0000
      7 C4         8.5171    5.9328   -1.3646 C.2       1 RES1    0.0000
      8 C5         9.3290    6.4949   -2.4883 C.3       1 RES1    0.0000
      9 H4        10.0186    5.8494   -2.7473 H         1 RES1    0.0000
     10 H5         9.7549    7.3288   -2.1987 H         1 RES1    0.0000
     11 H6         8.7461    6.6750   -3.2552 H         1 RES1    0.0000
     12 C6         8.3901    6.4826   -0.0682 C.2       1 RES1    0.0000
     13 C7         9.0405    7.6860    0.3957 C.2       1 RES1    0.0000
     14 H7         9.5683    8.1568   -0.2393 H         1 RES1    0.0000
     15 C8         7.5437    5.6446    0.6923 C.2       1 RES1    0.0000
     16 C9         7.0429    5.7404    2.0879 C.3       1 RES1    0.0000
     17 H8         7.6861    6.2649    2.6276 H         1 RES1    0.0000
     18 H9         6.9902    4.8317    2.4764 H         1 RES1    0.0000
     19 C10        5.6584    6.4036    2.1687 C.3       1 RES1    0.0000
     20 H10        5.6974    7.3030    1.7563 H         1 RES1    0.0000
     21 H11        5.0009    5.8620    1.6637 H         1 RES1    0.0000
     22 C11        5.2176    6.5247    3.6015 C.ar      1 RES1    0.0000
     23 C12        5.5174    7.6579    4.3448 C.ar      1 RES1    0.0000
     24 H12        5.9583    8.3898    3.9301 H         1 RES1    0.0000
     25 C13        5.1794    7.7329    5.6905 C.ar      1 RES1    0.0000
     26 H13        5.3924    8.5141    6.1875 H         1 RES1    0.0000
     27 C14        4.5361    6.6810    6.3094 C.ar      1 RES1    0.0000
     28 H14        4.3064    6.7338    7.2304 H         1 RES1    0.0000
     29 C15        4.2295    5.5492    5.5776 C.ar      1 RES1    0.0000
     30 H15        3.7875    4.8203    5.9979 H         1 RES1    0.0000
     31 C16        4.5636    5.4703    4.2297 C.ar      1 RES1    0.0000
     32 H16        4.3435    4.6900    3.7337 H         1 RES1    0.0000
     33 N1         7.1826    4.6569   -0.1160 N.pl3     1 RES1    0.0000
     34 O1         6.7761    2.7685   -2.0563 O.2       1 RES1    0.0000
     35 O2         6.3166    3.6602    0.2704 O.3       1 RES1    0.0000
     36 H17        6.2668    3.0820   -0.3364 H         1 RES1    0.0000
     37 O3         8.9827    8.1589    1.5152 O.2       1 RES1    0.0000
@<TRIPOS>BOND
     1    1    2 1
     2    3    1 1
     3    4    1 1
     4    5    1 1
     5    6    5 1
     6    7    6 2
     7    8    7 1
     8    9    8 1
     9   10    8 1
    10   11    8 1
    11   12    7 1
    12   13   12 1
    13   14   13 1
    14   15   12 2
    15   16   15 1
    16   17   16 1
    17   18   16 1
    18   19   16 1
    19   20   19 1
    20   21   19 1
    21   22   19 1
    22   23   22 ar
    23   24   23 1
    24   25   23 ar
    25   26   25 1
    26   27   25 ar
    27   28   27 1
    28   29   27 ar
    29   30   29 1
    30   31   22 ar
    31   32   31 1
    32   33    6 1
    33   34    5 2
    34   35   33 1
    35   36   35 1
    36   37   13 2
    37   15   33 1
    38   29   31 ar
@<TRIPOS>SUBSTRUCTURE
     1 RES1 1

@<TRIPOS>CRYSIN
  10.1318    6.0043   22.9430  90.0000 100.2900  90.0000 231 1

