# MOL2 file generated by ConQuest
# Please check atom types

@<TRIPOS>MOLECULE
DOPLOL03
    44    44     2
SMALL
NO_CHARGES
****
Generated from CSD

@<TRIPOS>ATOM
      1 O1        -1.4857    8.7955   13.3602 O.2       1 RES1    0.0000
      2 O2        -0.1551    9.3215   14.9724 O.2       1 RES1    0.0000
      3 O3         2.0115    5.1960   17.3044 O.2       1 RES1    0.0000
      4 O4         1.1349    3.2890   16.7888 O.2       1 RES1    0.0000
      5 O5        -3.2345    4.5882   12.6133 O.2       1 RES1    0.0000
      6 N1        -0.7634    8.4790   14.2969 N.pl3     1 RES1    0.0000
      7 N2         0.9101    7.4121   16.4547 N.3       1 RES1    0.0000
      8 N3         1.2073    4.5146   16.6571 N.pl3     1 RES1    0.0000
      9 N4        -2.0738    2.7140   13.0667 N.am      1 RES1    0.0000
     10 C1        -1.3440    4.8350   13.9985 C.ar      1 RES1    0.0000
     11 C2        -1.3971    6.2165   13.8352 C.ar      1 RES1    0.0000
     12 C3        -0.6311    7.0609   14.6077 C.ar      1 RES1    0.0000
     13 C4         0.2471    6.5976   15.6359 C.ar      1 RES1    0.0000
     14 C5         0.3138    5.1631   15.7147 C.ar      1 RES1    0.0000
     15 C6        -0.4579    4.3186   14.9326 C.ar      1 RES1    0.0000
     16 C7        -2.2859    4.0233   13.1670 C.2       1 RES1    0.0000
     17 H1         0.7666    8.2225   16.3811 H         1 RES1    0.0000
     18 H2        -2.6238    2.2151   12.5952 H         1 RES1    0.0000
     19 H3        -0.3515    3.4024   15.0870 H         1 RES1    0.0000
     20 H4        -1.9576    6.5744   13.1811 H         1 RES1    0.0000
     21 H5         1.4936    7.1060   17.0187 H         1 RES1    0.0000
     22 H6        -1.4104    2.3303   13.4258 H         1 RES1    0.0000
     23 O6         2.3841   11.6807   13.8613 O.2       2 RES2    0.0000
     24 O7         3.8868   12.0731   15.3578 O.2       2 RES2    0.0000
     25 O8         6.0582    7.7915   17.3594 O.2       2 RES2    0.0000
     26 O9         5.2014    5.9326   16.6620 O.2       2 RES2    0.0000
     27 O10        1.2532    7.5443   12.1543 O.2       2 RES2    0.0000
     28 N5         3.2521   11.2960   14.6371 N.pl3     2 RES2    0.0000
     29 N6         5.1831   10.0724   16.4630 N.3       2 RES2    0.0000
     30 N7         5.2913    7.1572   16.6126 N.pl3     2 RES2    0.0000
     31 N8         2.2422    5.6155   12.7764 N.am      2 RES2    0.0000
     32 C8         2.9470    7.6956   13.7959 C.ar      2 RES2    0.0000
     33 C9         2.8171    9.0808   13.8105 C.ar      2 RES2    0.0000
     34 C10        3.5180    9.8598   14.7058 C.ar      2 RES2    0.0000
     35 C11        4.4480    9.3178   15.6479 C.ar      2 RES2    0.0000
     36 C12        4.4914    7.8819   15.6406 C.ar      2 RES2    0.0000
     37 C13        3.7740    7.1028   14.7413 C.ar      2 RES2    0.0000
     38 C14        2.0937    6.9345   12.8277 C.2       2 RES2    0.0000
     39 H7         2.2399    9.4806   13.2329 H         2 RES2    0.0000
     40 H8         5.7843    9.7376   16.9858 H         2 RES2    0.0000
     41 H9         3.8836    6.1225   14.8140 H         2 RES2    0.0000
     42 H10        1.6875    5.1390   12.2399 H         2 RES2    0.0000
     43 H11        2.8698    5.2188   13.1952 H         2 RES2    0.0000
     44 H12        5.1109   10.9160   16.3905 H         2 RES2    0.0000
@<TRIPOS>BOND
     1    1    6 2
     2    2    6 2
     3    3    8 2
     4    4    8 2
     5    5   16 2
     6    6   12 1
     7    7   13 1
     8    8   14 1
     9    9   16 1
    10   10   11 ar
    11   11   12 ar
    12   12   13 ar
    13   13   14 ar
    14   14   15 ar
    15   15   10 ar
    16   16   10 1
    17   17    7 1
    18   18    9 1
    19   19   15 1
    20   20   11 1
    21   21    7 1
    22   22    9 1
    23   23   28 2
    24   24   28 2
    25   25   30 2
    26   26   30 2
    27   27   38 2
    28   28   34 1
    29   29   35 1
    30   30   36 1
    31   31   38 1
    32   32   33 ar
    33   33   34 ar
    34   34   35 ar
    35   35   36 ar
    36   36   37 ar
    37   37   32 ar
    38   38   32 1
    39   39   33 1
    40   40   29 1
    41   41   37 1
    42   42   31 1
    43   43   31 1
    44   44   29 1
@<TRIPOS>SUBSTRUCTURE
     1 RES1 1
     2 RES2 23

@<TRIPOS>CRYSIN
   8.3403    8.8604   23.6860  90.0000  96.5950  90.0000  14 1

