# MOL2 file generated by ConQuest
# Please check atom types

@<TRIPOS>MOLECULE
DOPLOL
    22    22     1
SMALL
NO_CHARGES
****
Generated from CSD

@<TRIPOS>ATOM
      1 O1        -0.2420    3.2396    6.9897 O.2       1 RES1    0.0000
      2 O2         1.1309    7.1338    4.8108 O.2       1 RES1    0.0000
      3 O3         2.8970    8.2412    5.3821 O.2       1 RES1    0.0000
      4 O4         4.0077    7.6980   10.4754 O.2       1 RES1    0.0000
      5 O5         2.8315    6.1783   11.4579 O.2       1 RES1    0.0000
      6 N1         2.0228    7.3955    5.6100 N.pl3     1 RES1    0.0000
      7 N2         3.4865    8.2997    7.9642 N.3       1 RES1    0.0000
      8 N3         3.1927    6.7699   10.4480 N.pl3     1 RES1    0.0000
      9 N4         0.5246    2.5966    8.9982 N.am      1 RES1    0.0000
     10 C1         1.3039    4.6896    8.0331 C.ar      1 RES1    0.0000
     11 C2         1.3575    5.4785    6.8883 C.ar      1 RES1    0.0000
     12 C3         2.0604    6.6609    6.8695 C.ar      1 RES1    0.0000
     13 C4         2.7799    7.1703    7.9974 C.ar      1 RES1    0.0000
     14 C5         2.6329    6.3524    9.1645 C.ar      1 RES1    0.0000
     15 C6         1.9391    5.1540    9.1799 C.ar      1 RES1    0.0000
     16 C7         0.4827    3.4407    7.9733 C.2       1 RES1    0.0000
     17 H1         0.9411    5.1934    6.1205 H         1 RES1    0.0000
     18 H2         1.9131    4.6756    9.9905 H         1 RES1    0.0000
     19 H3         3.5270    8.7595    7.2324 H         1 RES1    0.0000
     20 H4         3.8415    8.5885    8.6877 H         1 RES1    0.0000
     21 H5         0.0343    1.8882    8.9540 H         1 RES1    0.0000
     22 H6         1.0299    2.7246    9.7083 H         1 RES1    0.0000
@<TRIPOS>BOND
     1    1   16 2
     2    2    6 2
     3    3    6 2
     4    4    8 2
     5    5    8 2
     6    6   12 1
     7    7   13 1
     8    8   14 1
     9    9   16 1
    10   10   11 ar
    11   11   12 ar
    12   12   13 ar
    13   13   14 ar
    14   14   15 ar
    15   15   10 ar
    16   16   10 1
    17   17   11 1
    18   18   15 1
    19   19    7 1
    20   20    7 1
    21   21    9 1
    22   22    9 1
@<TRIPOS>SUBSTRUCTURE
     1 RES1 1

@<TRIPOS>CRYSIN
   7.7501   12.3009    9.5112  90.0000 111.0900  90.0000 231 1

