# MOL2 file generated by ConQuest
# Please check atom types

@<TRIPOS>MOLECULE
DOPLOL02
    22    22     1
SMALL
NO_CHARGES
****
Generated from CSD

@<TRIPOS>ATOM
      1 O1        11.0943    5.7450    6.6306 O.2       1 RES1    0.0000
      2 O2         9.9120    7.4464    7.2482 O.2       1 RES1    0.0000
      3 O3         4.7719    6.5978    7.0542 O.2       1 RES1    0.0000
      4 O4         4.1991    4.9928    5.7301 O.2       1 RES1    0.0000
      5 O5         9.4526    2.2553    3.9456 O.2       1 RES1    0.0000
      6 N1        10.0127    6.3199    6.7491 N.pl3     1 RES1    0.0000
      7 N2         7.3056    7.1338    7.4879 N.3       1 RES1    0.0000
      8 N3         5.0569    5.6562    6.3039 N.pl3     1 RES1    0.0000
      9 N4         7.2720    2.0574    3.4263 N.am      1 RES1    0.0000
     10 C1         7.9713    3.8249    4.9363 C.ar      1 RES1    0.0000
     11 C2         9.0300    4.5458    5.4739 C.ar      1 RES1    0.0000
     12 C3         8.8126    5.6427    6.2839 C.ar      1 RES1    0.0000
     13 C4         7.5085    6.1013    6.6668 C.ar      1 RES1    0.0000
     14 C5         6.4577    5.3230    6.0817 C.ar      1 RES1    0.0000
     15 C6         6.6820    4.2346    5.2537 C.ar      1 RES1    0.0000
     16 C7         8.2829    2.6529    4.0640 C.2       1 RES1    0.0000
     17 H1         5.9306    3.7785    4.9326 H         1 RES1    0.0000
     18 H2         9.9200    4.3087    5.2936 H         1 RES1    0.0000
     19 H3         7.4545    1.3692    2.8976 H         1 RES1    0.0000
     20 H4         6.5038    7.3623    7.7215 H         1 RES1    0.0000
     21 H5         6.4159    2.2942    3.5509 H         1 RES1    0.0000
     22 H6         7.9957    7.5709    7.8110 H         1 RES1    0.0000
@<TRIPOS>BOND
     1    1    6 2
     2    2    6 2
     3    3    8 2
     4    4    8 2
     5    5   16 2
     6    6   12 1
     7    7   13 1
     8    8   14 1
     9    9   16 1
    10   10   11 ar
    11   11   12 ar
    12   12   13 ar
    13   13   14 ar
    14   14   15 ar
    15   15   10 ar
    16   16   10 1
    17   17   15 1
    18   18   11 1
    19   19    9 1
    20   20    7 1
    21   21    9 1
    22   22    7 1
@<TRIPOS>SUBSTRUCTURE
     1 RES1 1

@<TRIPOS>CRYSIN
   9.9859   10.7557   15.9734  90.0000  90.0000  90.0000  61 1

