# MOL2 file generated by ConQuest
# Please check atom types

@<TRIPOS>MOLECULE
DOPLOL04
    44    44     2
SMALL
NO_CHARGES
****
Generated from CSD

@<TRIPOS>ATOM
      1 O1         4.3499    3.1143   11.3797 O.2       1 RES1    0.0000
      2 O2         0.4057    1.4907    6.8701 O.2       1 RES1    0.0000
      3 O3        -0.4491    3.3508    6.1726 O.2       1 RES1    0.0000
      4 O4         1.7088    7.6334    8.1649 O.2       1 RES1    0.0000
      5 O5         3.2054    7.2516    9.6667 O.2       1 RES1    0.0000
      6 N1         3.3647    1.1834   10.7547 N.am      1 RES1    0.0000
      7 N2         0.3159    2.7122    6.9167 N.pl3     1 RES1    0.0000
      8 N3         0.4242    5.6334    7.0676 N.3       1 RES1    0.0000
      9 N4         2.3416    6.8557    8.8897 N.pl3     1 RES1    0.0000
     10 C1         3.5059    2.5049   10.6968 C.2       1 RES1    0.0000
     11 C2         2.6577    3.2649    9.7300 C.ar      1 RES1    0.0000
     12 C3         1.8316    2.6652    8.7885 C.ar      1 RES1    0.0000
     13 C4         1.1150    3.4420    7.8891 C.ar      1 RES1    0.0000
     14 C5         1.1577    4.8805    7.8806 C.ar      1 RES1    0.0000
     15 C6         2.0809    5.4190    8.8278 C.ar      1 RES1    0.0000
     16 C7         2.7832    4.6466    9.7206 C.ar      1 RES1    0.0000
     17 H1         4.0748    0.6634   11.3404 H         1 RES1    0.0000
     18 H2         2.8726    0.7334   10.2744 H         1 RES1    0.0000
     19 H3         1.7379    1.8087    8.6977 H         1 RES1    0.0000
     20 H4        -0.2315    5.2507    6.4456 H         1 RES1    0.0000
     21 H5         0.5031    6.6334    7.0716 H         1 RES1    0.0000
     22 H6         3.3569    5.0346   10.2955 H         1 RES1    0.0000
     23 O6        -3.2545   -0.1559   12.6140 O.2       2 RES2    0.0000
     24 O7         1.1007    1.1559   16.7811 O.2       2 RES2    0.0000
     25 O8         1.9790   -0.7493   17.3080 O.2       2 RES2    0.0000
     26 O9        -0.1797   -4.8805   14.9886 O.2       2 RES2    0.0000
     27 O10       -1.5111   -4.3650   13.3743 O.2       2 RES2    0.0000
     28 N5        -2.1019    1.7210   13.0658 N.am      2 RES2    0.0000
     29 N6         1.1764   -0.0655   16.6559 N.pl3     2 RES2    0.0000
     30 N7         0.8821   -2.9681   16.4609 N.3       2 RES2    0.0000
     31 N8        -0.7868   -4.0443   14.3083 N.pl3     2 RES2    0.0000
     32 C8        -2.3054    0.4048   13.1703 C.2       2 RES2    0.0000
     33 C9        -1.3719   -0.4057   14.0012 C.ar      2 RES2    0.0000
     34 C10       -0.4882    0.1178   14.9279 C.ar      2 RES2    0.0000
     35 C11        0.2847   -0.7192   15.7189 C.ar      2 RES2    0.0000
     36 C12        0.2168   -2.1479   15.6426 C.ar      2 RES2    0.0000
     37 C13       -0.6585   -2.6236   14.6159 C.ar      2 RES2    0.0000
     38 C14       -1.4228   -1.7830   13.8372 C.ar      2 RES2    0.0000
     39 H7        -2.8261    2.2241   12.5923 H         2 RES2    0.0000
     40 H8        -1.3006    2.0434   13.3383 H         2 RES2    0.0000
     41 H9        -0.4192    1.1479   14.9668 H         2 RES2    0.0000
     42 H10        1.6124   -2.5536   16.8541 H         2 RES2    0.0000
     43 H11        0.7555   -3.8220   16.5646 H         2 RES2    0.0000
     44 H12       -1.9049   -2.1736   13.2654 H         2 RES2    0.0000
@<TRIPOS>BOND
     1    1   10 2
     2    2    7 2
     3    3    7 2
     4    4    9 2
     5    5    9 2
     6    6   10 1
     7    7   13 1
     8    8   14 1
     9    9   15 1
    10   10   11 1
    11   11   12 ar
    12   12   13 ar
    13   13   14 ar
    14   14   15 ar
    15   15   16 ar
    16   16   11 ar
    17   17    6 1
    18   18    6 1
    19   19   12 1
    20   20    8 1
    21   21    8 1
    22   22   16 1
    23   23   32 2
    24   24   29 2
    25   25   29 2
    26   26   31 2
    27   27   31 2
    28   28   32 1
    29   29   35 1
    30   30   36 1
    31   31   37 1
    32   32   33 1
    33   33   34 ar
    34   34   35 ar
    35   35   36 ar
    36   36   37 ar
    37   37   38 ar
    38   38   33 ar
    39   39   28 1
    40   40   28 1
    41   41   34 1
    42   42   30 1
    43   43   30 1
    44   44   38 1
@<TRIPOS>SUBSTRUCTURE
     1 RES1 1
     2 RES2 23

@<TRIPOS>CRYSIN
   8.3501    8.8575   23.6950  90.0000  96.7110  90.0000  14 1

