# MOL2 file generated by ConQuest
# Please check atom types

@<TRIPOS>MOLECULE
DOPLOL05
    22    22     1
SMALL
NO_CHARGES
****
Generated from CSD

@<TRIPOS>ATOM
      1 C1         1.7892    2.5228    8.3521 C.ar      1 RES1    0.0000
      2 C2         1.7226    3.7713    8.9180 C.ar      1 RES1    0.0000
      3 C3         2.7313    4.6774    8.7435 C.ar      1 RES1    0.0000
      4 C4         3.9049    4.4027    8.0152 C.ar      1 RES1    0.0000
      5 C5         3.9318    3.0881    7.4761 C.ar      1 RES1    0.0000
      6 C6         2.9151    2.1987    7.6273 C.ar      1 RES1    0.0000
      7 C7         0.7102    1.5064    8.4385 C.2       1 RES1    0.0000
      8 N1         2.5090    5.9860    9.3379 N.pl3     1 RES1    0.0000
      9 N2         4.8922    5.2868    7.8277 N.3       1 RES1    0.0000
     10 N3         5.0537    2.6225    6.6907 N.pl3     1 RES1    0.0000
     11 N4        -0.1829    1.6121    9.3993 N.am      1 RES1    0.0000
     12 O1         0.6488    0.5987    7.6082 O.2       1 RES1    0.0000
     13 O2         3.2841    6.9096    9.0727 O.2       1 RES1    0.0000
     14 O3         1.5478    6.1488   10.0646 O.2       1 RES1    0.0000
     15 O4         5.0234    1.5132    6.2086 O.2       1 RES1    0.0000
     16 O5         6.0001    3.3293    6.4903 O.2       1 RES1    0.0000
     17 H1         0.9636    4.0398    9.3829 H         1 RES1    0.0000
     18 H2         3.0048    1.3618    7.2229 H         1 RES1    0.0000
     19 H3         5.6612    5.0365    7.3784 H         1 RES1    0.0000
     20 H4         4.6926    6.0331    8.2079 H         1 RES1    0.0000
     21 H5        -0.0841    2.1074    9.9185 H         1 RES1    0.0000
     22 H6        -0.8836    0.7532    9.3915 H         1 RES1    0.0000
@<TRIPOS>BOND
     1    1    2 ar
     2    2    3 ar
     3    3    4 ar
     4    4    5 ar
     5    5    6 ar
     6    6    1 ar
     7    7    1 1
     8    8    3 1
     9    9    4 1
    10   10    5 1
    11   11    7 1
    12   12    7 2
    13   13    8 2
    14   14    8 2
    15   15   10 2
    16   16   10 2
    17   17    2 1
    18   18    6 1
    19   19    9 1
    20   20    9 1
    21   21   11 1
    22   22   11 1
@<TRIPOS>SUBSTRUCTURE
     1 RES1 1

@<TRIPOS>CRYSIN
  13.9680    7.6080    8.6630  90.0000  94.1900  90.0000  14 1

