# MOL2 file generated by ConQuest
# Please check atom types

@<TRIPOS>MOLECULE
DOPZIR
    47    48     1
SMALL
NO_CHARGES
****
Generated from CSD

@<TRIPOS>ATOM
      1 N1        14.3632   11.9292    3.0541 N.am      1 RES1    0.0000
      2 C1        15.2269   12.5728    3.6999 C.2       1 RES1    0.0000
      3 C2        16.4078   11.8621    3.0737 C.3       1 RES1    0.0000
      4 C3        15.2623   11.1647    2.2118 C.3       1 RES1    0.0000
      5 O1        13.0876   12.1783    2.7912 O.3       1 RES1    0.0000
      6 O2        15.2605   13.5825    4.4134 O.2       1 RES1    0.0000
      7 N2        15.0017    9.7282    2.4015 N.am      1 RES1    0.0000
      8 C4        17.4624   12.6311    2.3090 C.3       1 RES1    0.0000
      9 C5        17.0786   10.8705    4.1984 C.3       1 RES1    0.0000
     10 C6        14.7502    8.9789    1.3238 C.2       1 RES1    0.0000
     11 O3        14.8337    9.2609    0.1898 O.2       1 RES1    0.0000
     12 O4        14.3859    7.7068    1.7529 O.3       1 RES1    0.0000
     13 C7        14.0134    6.5564    0.7377 C.3       1 RES1    0.0000
     14 C8        12.9364    7.0996   -0.0136 C.3       1 RES1    0.0000
     15 C9        13.5096    5.5245    1.7745 C.3       1 RES1    0.0000
     16 C10       15.2250    6.3085    0.0501 C.3       1 RES1    0.0000
     17 C11       12.1274   11.5424    3.7851 C.3       1 RES1    0.0000
     18 C12       10.7408   11.7315    3.2951 C.ar      1 RES1    0.0000
     19 C13       10.2601   10.9579    2.2442 C.ar      1 RES1    0.0000
     20 C14        8.9591   11.1334    1.7890 C.ar      1 RES1    0.0000
     21 C15        9.9188   12.6826    3.8899 C.ar      1 RES1    0.0000
     22 C16        8.6177   12.8600    3.4358 C.ar      1 RES1    0.0000
     23 C17        8.1368   12.0845    2.3859 C.ar      1 RES1    0.0000
     24 H1        15.0335    9.3240    3.3071 H         1 RES1    0.0000
     25 H2        17.9239   10.3556    3.7661 H         1 RES1    0.0000
     26 H3        17.4079   11.4562    5.0440 H         1 RES1    0.0000
     27 H4        16.3453   10.1480    4.5246 H         1 RES1    0.0000
     28 H5        18.2140   11.9462    1.9446 H         1 RES1    0.0000
     29 H6        17.0029   13.1388    1.4739 H         1 RES1    0.0000
     30 H7        17.9235   13.3568    2.9624 H         1 RES1    0.0000
     31 H8        15.2482   11.4261    1.1640 H         1 RES1    0.0000
     32 H9        12.6071    6.3766   -0.7452 H         1 RES1    0.0000
     33 H10       12.1186    7.3381    0.6502 H         1 RES1    0.0000
     34 H11       13.2650    7.9969   -0.5169 H         1 RES1    0.0000
     35 H12       13.1941    4.6262    1.2644 H         1 RES1    0.0000
     36 H13       14.3074    5.2864    2.4624 H         1 RES1    0.0000
     37 H14       12.6756    5.9402    2.3203 H         1 RES1    0.0000
     38 H15       15.0721    5.5252   -0.6777 H         1 RES1    0.0000
     39 H16       15.5446    7.2094   -0.4523 H         1 RES1    0.0000
     40 H17       15.9829    6.0015    0.7556 H         1 RES1    0.0000
     41 H18       12.3406   10.4873    3.8722 H         1 RES1    0.0000
     42 H19       12.2394   12.0133    4.7506 H         1 RES1    0.0000
     43 H20        8.6300   10.6048    1.0714 H         1 RES1    0.0000
     44 H21       10.8230   10.3096    1.8379 H         1 RES1    0.0000
     45 H22        7.2467   12.2060    2.0751 H         1 RES1    0.0000
     46 H23        8.0549   13.5083    3.8416 H         1 RES1    0.0000
     47 H24       10.2478   13.2131    4.6081 H         1 RES1    0.0000
@<TRIPOS>BOND
     1    1    2 1
     2    2    3 1
     3    3    4 1
     4    4    1 1
     5    5    1 1
     6    6    2 2
     7    7    4 1
     8    8    3 1
     9    9    3 1
    10   10    7 1
    11   11   10 2
    12   12   10 1
    13   13   12 1
    14   14   13 1
    15   15   13 1
    16   16   13 1
    17   17    5 1
    18   18   17 1
    19   19   18 ar
    20   20   19 ar
    21   21   18 ar
    22   22   21 ar
    23   23   20 ar
    24   24    7 1
    25   25    9 1
    26   26    9 1
    27   27    9 1
    28   28    8 1
    29   29    8 1
    30   30    8 1
    31   31    4 1
    32   32   14 1
    33   33   14 1
    34   34   14 1
    35   35   15 1
    36   36   15 1
    37   37   15 1
    38   38   16 1
    39   39   16 1
    40   40   16 1
    41   41   17 1
    42   42   17 1
    43   43   20 1
    44   44   19 1
    45   45   23 1
    46   46   22 1
    47   47   21 1
    48   22   23 ar
@<TRIPOS>SUBSTRUCTURE
     1 RES1 1

@<TRIPOS>CRYSIN
  18.0900   19.2920    5.2750  90.0000  95.6300  90.0000  14 1

