# MOL2 file generated by ConQuest
# Please check atom types

@<TRIPOS>MOLECULE
DOPZOZ
    62    64     2
SMALL
NO_CHARGES
****
Generated from CSD

@<TRIPOS>ATOM
      1 O1        19.3801    2.2032    0.9948 O.2       1 RES1    0.0000
      2 O2        18.6301    4.2339    0.9319 O.2       1 RES1    0.0000
      3 N1         9.2542    4.5700    1.2715 N.3       1 RES1    0.0000
      4 N2         9.8934    2.4876    1.2668 N.pl3     1 RES1    0.0000
      5 N3        11.5828    4.3188    1.2981 N.2       1 RES1    0.0000
      6 N4        12.5430    3.3962    1.3205 N.2       1 RES1    0.0000
      7 N5        13.7147    3.9244    1.2901 N.2       1 RES1    0.0000
      8 N6        18.4616    3.0186    1.0349 N.pl3     1 RES1    0.0000
      9 C1         8.5025    2.5076    1.2355 C.2       1 RES1    0.0000
     10 H1         7.9325    1.7476    1.2147 H         1 RES1    0.0000
     11 C2         8.1075    3.7956    1.2409 C.2       1 RES1    0.0000
     12 H2         7.2115    4.1122    1.2264 H         1 RES1    0.0000
     13 C3        10.3459    3.7703    1.2868 C.2       1 RES1    0.0000
     14 C4        10.6753    1.2583    1.2126 C.3       1 RES1    0.0000
     15 H3        11.2549    1.2739    0.4219 H         1 RES1    0.0000
     16 H4        10.0712    0.4892    1.1583 H         1 RES1    0.0000
     17 H5        11.2260    1.1849    2.0205 H         1 RES1    0.0000
     18 C5         9.3006    6.0177    1.3099 C.3       1 RES1    0.0000
     19 H6         9.4824    6.3142    2.2262 H         1 RES1    0.0000
     20 H7         8.4399    6.3800    1.0142 H         1 RES1    0.0000
     21 H8        10.0107    6.3374    0.7154 H         1 RES1    0.0000
     22 C6        14.7339    2.9462    1.3237 C.ar      1 RES1    0.0000
     23 C7        14.5284    1.5614    1.4730 C.ar      1 RES1    0.0000
     24 H9        13.6428    1.2249    1.5462 H         1 RES1    0.0000
     25 C8        15.6033    0.6788    1.5150 C.ar      1 RES1    0.0000
     26 H10       15.4450   -0.2504    1.6366 H         1 RES1    0.0000
     27 C9        16.9094    1.1452    1.3804 C.ar      1 RES1    0.0000
     28 H11       17.6484    0.5498    1.4033 H         1 RES1    0.0000
     29 C10       17.0931    2.5120    1.2109 C.ar      1 RES1    0.0000
     30 C11       16.0437    3.4208    1.1981 C.ar      1 RES1    0.0000
     31 H12       16.2118    4.3510    1.1059 H         1 RES1    0.0000
     32 O3         0.5311    0.5727   10.8535 O.2       2 RES2    0.0000
     33 O4        -0.8192    2.2502   11.0204 O.2       2 RES2    0.0000
     34 N7         9.5427    3.0729   11.0482 N.3       2 RES2    0.0000
     35 N8         8.3346    4.8735   11.2833 N.pl3     2 RES2    0.0000
     36 N9         7.2461    2.6378   11.1086 N.2       2 RES2    0.0000
     37 N10        6.0576    3.2337   11.0783 N.2       2 RES2    0.0000
     38 N11        5.0960    2.3789   11.0700 N.2       2 RES2    0.0000
     39 N12        0.3127    1.7769   10.9514 N.pl3     2 RES2    0.0000
     40 C12       10.4174    4.1409   11.1263 C.2       2 RES2    0.0000
     41 H13       11.3658    4.0967   11.0839 H         2 RES2    0.0000
     42 C13        9.6718    5.2594   11.2753 C.2       2 RES2    0.0000
     43 H14       10.0004    6.1464   11.3590 H         2 RES2    0.0000
     44 C14        8.2652    3.5226   11.1456 C.2       2 RES2    0.0000
     45 C15        9.9012    1.6671   10.9387 C.3       2 RES2    0.0000
     46 H15        9.7389    1.2210   11.7967 H         2 RES2    0.0000
     47 H16       10.8496    1.5889   10.7039 H         2 RES2    0.0000
     48 H17        9.3568    1.2442   10.2426 H         2 RES2    0.0000
     49 C16        7.2390    5.8163   11.4873 C.3       2 RES2    0.0000
     50 H18        6.6876    5.8560   10.6777 H         2 RES2    0.0000
     51 H19        7.6040    6.7052   11.6774 H         2 RES2    0.0000
     52 H20        6.6890    5.5204   12.2422 H         2 RES2    0.0000
     53 C17        3.8373    3.0090   11.0145 C.ar      2 RES2    0.0000
     54 C18        3.6122    4.3985   10.9775 C.ar      2 RES2    0.0000
     55 H21        4.3521    4.9950   10.9725 H         2 RES2    0.0000
     56 C19        2.3188    4.9046   10.9478 C.ar      2 RES2    0.0000
     57 H22        2.1856    5.8443   10.9253 H         2 RES2    0.0000
     58 C20        1.2150    4.0575   10.9509 C.ar      2 RES2    0.0000
     59 H23        0.3288    4.4013   10.9437 H         2 RES2    0.0000
     60 C21        1.4578    2.6922   10.9651 C.ar      2 RES2    0.0000
     61 C22        2.7324    2.1503   10.9984 C.ar      2 RES2    0.0000
     62 H24        2.8545    1.2081   11.0105 H         2 RES2    0.0000
@<TRIPOS>BOND
     1    1    8 2
     2    2    8 2
     3    3   11 1
     4    4    9 1
     5    5    6 1
     6    6    7 2
     7    7   22 1
     8    8   29 1
     9    9   10 1
    10   11    9 2
    11   12   11 1
    12   13    3 1
    13   14    4 1
    14   15   14 1
    15   16   14 1
    16   17   14 1
    17   18    3 1
    18   19   18 1
    19   20   18 1
    20   21   18 1
    21   22   23 ar
    22   23   24 1
    23   25   23 ar
    24   26   25 1
    25   27   25 ar
    26   28   27 1
    27   29   27 ar
    28   30   22 ar
    29   31   30 1
    30   32   39 2
    31   33   39 2
    32   34   40 1
    33   35   42 1
    34   36   37 1
    35   37   38 2
    36   38   53 1
    37   39   60 1
    38   40   41 1
    39   42   40 2
    40   43   42 1
    41   44   34 1
    42   45   34 1
    43   46   45 1
    44   47   45 1
    45   48   45 1
    46   49   35 1
    47   50   49 1
    48   51   49 1
    49   52   49 1
    50   53   54 ar
    51   54   55 1
    52   56   54 ar
    53   57   56 1
    54   58   56 ar
    55   59   58 1
    56   60   58 ar
    57   61   53 ar
    58   62   61 1
    59    4   13 1
    60    5   13 2
    61   29   30 ar
    62   35   44 1
    63   36   44 2
    64   60   61 ar
@<TRIPOS>SUBSTRUCTURE
     1 RES1 1
     2 RES2 32

@<TRIPOS>CRYSIN
  14.0377   12.9071   14.2995  90.0000 113.6050  90.0000  14 1

