# MOL2 file generated by ConQuest
# Please check atom types

@<TRIPOS>MOLECULE
DOPZOX
    53    53     1
SMALL
NO_CHARGES
****
Generated from CSD

@<TRIPOS>ATOM
      1 N1         7.0053    4.7390    9.5520 N.am      1 RES1    0.0000
      2 C1         6.9227    4.0819    8.3906 C.2       1 RES1    0.0000
      3 C2         5.0692    3.0581    7.1765 C.3       1 RES1    0.0000
      4 C3         6.0017    2.8767    8.3880 C.3       1 RES1    0.0000
      5 O1         8.0889    5.8106    9.7454 O.3       1 RES1    0.0000
      6 O2         7.6025    4.3914    7.4299 O.2       1 RES1    0.0000
      7 N2         4.2645    4.2539    7.2625 N.am      1 RES1    0.0000
      8 C4         6.8944    1.6561    8.1578 C.3       1 RES1    0.0000
      9 C5         5.1893    2.6723    9.6648 C.3       1 RES1    0.0000
     10 C6         3.9759    4.9721    6.1432 C.2       1 RES1    0.0000
     11 O3         4.5363    4.8441    5.0858 O.2       1 RES1    0.0000
     12 O4         3.0146    5.8565    6.4181 O.3       1 RES1    0.0000
     13 C7         2.3034    6.5594    5.3320 C.3       1 RES1    0.0000
     14 C8         3.2087    7.5488    4.7026 C.3       1 RES1    0.0000
     15 C9         1.7687    5.6043    4.3247 C.3       1 RES1    0.0000
     16 C10        1.1809    7.2337    6.0662 C.3       1 RES1    0.0000
     17 C11        7.2928    6.7561    9.3111 C.3       1 RES1    0.0000
     18 C12        8.5434    7.9729    9.4741 C.ar      1 RES1    0.0000
     19 C13        9.5159    8.0378    8.5151 C.ar      1 RES1    0.0000
     20 C14       10.3367    9.1533    8.4220 C.ar      1 RES1    0.0000
     21 C15       10.1349   10.1714    9.2887 C.ar      1 RES1    0.0000
     22 C16        9.1971   10.1046   10.2647 C.ar      1 RES1    0.0000
     23 C17        8.4116    8.9929   10.3614 C.ar      1 RES1    0.0000
     24 O5         4.2657    1.8834    7.1308 O.3       1 RES1    0.0000
     25 C18        3.3912    1.8127    6.0188 C.3       1 RES1    0.0000
     26 H1         5.7154    3.2071    6.2256 H         1 RES1    0.0000
     27 H2         3.8214    4.1030    8.2187 H         1 RES1    0.0000
     28 H3         7.4995    1.9025    7.2231 H         1 RES1    0.0000
     29 H4         7.5158    1.4995    8.8921 H         1 RES1    0.0000
     30 H5         6.4169    0.8347    8.0217 H         1 RES1    0.0000
     31 H6         5.9658    2.5367   10.4572 H         1 RES1    0.0000
     32 H7         4.8354    1.5663    9.4606 H         1 RES1    0.0000
     33 H8         4.6032    3.4707    9.9504 H         1 RES1    0.0000
     34 H9         2.8091    8.2441    4.2146 H         1 RES1    0.0000
     35 H10        3.8153    7.1095    4.0641 H         1 RES1    0.0000
     36 H11        3.7908    7.9786    5.3490 H         1 RES1    0.0000
     37 H12        9.6776    7.2623    7.9304 H         1 RES1    0.0000
     38 H13       10.9994    9.2297    7.6851 H         1 RES1    0.0000
     39 H14       10.7426   10.9565    9.2404 H         1 RES1    0.0000
     40 H15        9.0978   10.8495   10.9103 H         1 RES1    0.0000
     41 H16        7.7460    8.9509   11.0607 H         1 RES1    0.0000
     42 H17        2.8335    2.8346    6.2077 H         1 RES1    0.0000
     43 H18        3.7526    1.9407    4.9837 H         1 RES1    0.0000
     44 H19        2.8747    0.9856    5.9454 H         1 RES1    0.0000
     45 H20        1.2392    6.0437    3.4795 H         1 RES1    0.0000
     46 H21        2.3872    4.7753    3.7248 H         1 RES1    0.0000
     47 H22        0.4928    7.6100    5.7188 H         1 RES1    0.0000
     48 H23        6.5216    6.9758    9.9504 H         1 RES1    0.0000
     49 H24        1.3296    5.0809    4.9971 H         1 RES1    0.0000
     50 H25        1.6076    7.9920    6.5703 H         1 RES1    0.0000
     51 H26        0.8576    6.6453    6.7431 H         1 RES1    0.0000
     52 H27        6.7805    6.5861    8.4784 H         1 RES1    0.0000
     53 H28        6.0817    4.7753   10.2128 H         1 RES1    0.0000
@<TRIPOS>BOND
     1    1    2 1
     2    2    4 1
     3    3    4 1
     4    4    8 1
     5    5    1 1
     6    6    2 2
     7    7    3 1
     8    8   28 1
     9    9    4 1
    10   10    7 1
    11   11   10 2
    12   12   10 1
    13   13   12 1
    14   14   13 1
    15   15   13 1
    16   16   13 1
    17   17    5 1
    18   18   17 1
    19   19   18 ar
    20   20   19 ar
    21   21   20 ar
    22   22   21 ar
    23   23   18 ar
    24   24    3 1
    25   25   24 1
    26   26    3 1
    27   27    7 1
    28   29    8 1
    29   30    8 1
    30   31    9 1
    31   32    9 1
    32   33    9 1
    33   34   14 1
    34   35   14 1
    35   36   14 1
    36   37   19 1
    37   38   20 1
    38   39   21 1
    39   40   22 1
    40   41   23 1
    41   42   25 1
    42   43   25 1
    43   44   25 1
    44   45   15 1
    45   46   15 1
    46   47   16 1
    47   48   17 1
    48   49   15 1
    49   50   16 1
    50   51   16 1
    51   52   17 1
    52   53    1 1
    53   22   23 ar
@<TRIPOS>SUBSTRUCTURE
     1 RES1 1

@<TRIPOS>CRYSIN
  11.5569   19.1013    9.9096  90.0000 115.3710  90.0000  14 1

