# MOL2 file generated by ConQuest
# Please check atom types

@<TRIPOS>MOLECULE
DORJOK
    52    54     1
SMALL
NO_CHARGES
****
Generated from CSD

@<TRIPOS>ATOM
      1 O1         2.1754   18.2834    1.7778 O.3       1 RES1    0.0000
      2 O2         1.6857   20.1250    0.6245 O.2       1 RES1    0.0000
      3 C1        -1.0925   14.5621    2.4745 C.3       1 RES1    0.0000
      4 H1        -0.4596   14.0411    1.9372 H         1 RES1    0.0000
      5 C2         3.9031   19.8006    1.4263 C.ar      1 RES1    0.0000
      6 C3         0.7142   16.4447    2.2621 C.3       1 RES1    0.0000
      7 C4        -0.7642   16.0368    2.2483 C.3       1 RES1    0.0000
      8 H2        -1.2219   16.5536    2.9302 H         1 RES1    0.0000
      9 H3        -1.1373   16.2980    1.3913 H         1 RES1    0.0000
     10 C5         4.8243   18.8964    1.9308 C.ar      1 RES1    0.0000
     11 H4         4.5539   18.0302    2.1315 H         1 RES1    0.0000
     12 C6         6.5010   20.5370    1.8628 C.ar      1 RES1    0.0000
     13 C7        -2.7414   12.9518    1.3679 C.ar      1 RES1    0.0000
     14 C8         4.3275   21.0846    1.1119 C.ar      1 RES1    0.0000
     15 H5         3.7302   21.6931    0.7413 H         1 RES1    0.0000
     16 C9         0.7986   17.8528    1.7088 C.3       1 RES1    0.0000
     17 H6         0.4913   17.8681    0.7891 H         1 RES1    0.0000
     18 H7         0.2377   18.4499    2.2292 H         1 RES1    0.0000
     19 C10       -2.4831   14.2052    1.9892 C.ar      1 RES1    0.0000
     20 C11        1.5913   15.5215    1.4072 C.3       1 RES1    0.0000
     21 H8         2.4638   15.9107    1.3084 H         1 RES1    0.0000
     22 H9         1.1908   15.4128    0.5416 H         1 RES1    0.0000
     23 H10        1.6683   14.6669    1.8352 H         1 RES1    0.0000
     24 C12        2.4832   19.4477    1.2160 C.2       1 RES1    0.0000
     25 C13        1.2774   16.4602    3.6226 C.1       1 RES1    0.0000
     26 N1         7.8832   20.9529    2.1676 N.pl3     1 RES1    0.0000
     27 O3         8.1700   22.1109    2.0147 O.2       1 RES1    0.0000
     28 C14        5.6271   21.4547    1.3498 C.ar      1 RES1    0.0000
     29 H11        5.9116   22.3189    1.1629 H         1 RES1    0.0000
     30 C15       -0.9222   14.1174    3.9178 C.3       1 RES1    0.0000
     31 H12       -1.5667   14.5657    4.4690 H         1 RES1    0.0000
     32 H13       -0.0366   14.3349    4.2173 H         1 RES1    0.0000
     33 H14       -1.0556   13.1674    3.9773 H         1 RES1    0.0000
     34 C16       -4.0336   12.6504    0.8794 C.ar      1 RES1    0.0000
     35 C17        6.1256   19.2627    2.1389 C.ar      1 RES1    0.0000
     36 H15        6.7423   18.6484    2.4639 H         1 RES1    0.0000
     37 C18       -4.8339   14.7413    1.7290 C.ar      1 RES1    0.0000
     38 H16       -5.5283   15.3403    1.8830 H         1 RES1    0.0000
     39 C19       -3.5408   15.0465    2.1782 C.ar      1 RES1    0.0000
     40 H17       -3.3986   15.8516    2.6222 H         1 RES1    0.0000
     41 O4         8.6460   20.1040    2.6084 O.2       1 RES1    0.0000
     42 N2         1.7512   16.4907    4.6570 N.1       1 RES1    0.0000
     43 C20       -1.7325   11.9521    1.2097 C.ar      1 RES1    0.0000
     44 H18       -0.8729   12.1143    1.5261 H         1 RES1    0.0000
     45 C21       -5.0782   13.5890    1.0769 C.ar      1 RES1    0.0000
     46 H19       -5.9326   13.4077    0.7551 H         1 RES1    0.0000
     47 C22       -4.2906   11.4218    0.2432 C.ar      1 RES1    0.0000
     48 H20       -5.1374   11.2386   -0.0966 H         1 RES1    0.0000
     49 C23       -3.3041   10.5118    0.1296 C.ar      1 RES1    0.0000
     50 H21       -3.4840    9.6952   -0.2740 H         1 RES1    0.0000
     51 C24       -2.0147   10.7712    0.6043 C.ar      1 RES1    0.0000
     52 H22       -1.3480   10.1321    0.5055 H         1 RES1    0.0000
@<TRIPOS>BOND
     1    1   16 1
     2    2   24 2
     3    3    4 1
     4    5   10 ar
     5    6    7 1
     6    7    3 1
     7    8    7 1
     8    9    7 1
     9   10   11 1
    10   12   26 1
    11   13   19 ar
    12   14    5 ar
    13   15   14 1
    14   16    6 1
    15   17   16 1
    16   18   16 1
    17   19    3 1
    18   20    6 1
    19   21   20 1
    20   22   20 1
    21   23   20 1
    22   24    1 1
    23   25    6 1
    24   26   27 2
    25   28   12 ar
    26   29   28 1
    27   30    3 1
    28   31   30 1
    29   32   30 1
    30   33   30 1
    31   34   13 ar
    32   35   10 ar
    33   36   35 1
    34   37   38 1
    35   39   19 ar
    36   40   39 1
    37   41   26 2
    38   42   25 3
    39   43   13 ar
    40   44   43 1
    41   45   34 ar
    42   46   45 1
    43   47   34 ar
    44   48   47 1
    45   49   47 ar
    46   50   49 1
    47   51   43 ar
    48   52   51 1
    49    5   24 1
    50   12   35 ar
    51   14   28 ar
    52   37   39 ar
    53   37   45 ar
    54   49   51 ar
@<TRIPOS>SUBSTRUCTURE
     1 RES1 1

@<TRIPOS>CRYSIN
  10.2400   19.0776   10.6227  90.0000  91.2070  90.0000  14 1

