# MOL2 file generated by ConQuest
# Please check atom types

@<TRIPOS>MOLECULE
DORJEA
    41    44     1
SMALL
NO_CHARGES
****
Generated from CSD

@<TRIPOS>ATOM
      1 C1        -2.2618    4.9075    4.3471 C.3       1 RES1    0.0000
      2 H1        -3.0434    4.8280    4.9335 H         1 RES1    0.0000
      3 H2        -1.5502    4.3160    4.6698 H         1 RES1    0.0000
      4 H3        -2.5107    4.6515    3.4340 H         1 RES1    0.0000
      5 C2        -1.7732    6.3267    4.3527 C.ar      1 RES1    0.0000
      6 C3        -0.4072    6.6377    4.1694 C.ar      1 RES1    0.0000
      7 C4         0.0571    7.9634    4.2646 C.ar      1 RES1    0.0000
      8 C5        -0.9010    8.9440    4.5529 C.ar      1 RES1    0.0000
      9 C6        -2.2519    8.6733    4.6773 C.ar      1 RES1    0.0000
     10 H4        -2.8751    9.3730    4.8325 H         1 RES1    0.0000
     11 C7        -2.6747    7.3623    4.5712 C.ar      1 RES1    0.0000
     12 H5        -3.6002    7.1646    4.6489 H         1 RES1    0.0000
     13 C8         1.5229    8.2665    3.9686 C.3       1 RES1    0.0000
     14 H6         1.5781    9.0506    3.3674 H         1 RES1    0.0000
     15 H7         1.9843    8.4978    4.8127 H         1 RES1    0.0000
     16 C9         1.8858    5.9317    4.1088 C.3       1 RES1    0.0000
     17 H8         2.0477    6.1013    5.0703 H         1 RES1    0.0000
     18 H9         2.4738    5.1868    3.8246 H         1 RES1    0.0000
     19 C10        0.3723    5.0249    2.5387 C.3       1 RES1    0.0000
     20 H10       -0.5853    4.9636    2.2955 H         1 RES1    0.0000
     21 H11        0.7515    4.1103    2.5123 H         1 RES1    0.0000
     22 C11        1.0934    5.8954    1.5134 C.ar      1 RES1    0.0000
     23 C12        0.9635    5.7276    0.1238 C.ar      1 RES1    0.0000
     24 C13        1.5483    6.5800   -0.7937 C.ar      1 RES1    0.0000
     25 H12        1.4304    6.4412   -1.7262 H         1 RES1    0.0000
     26 C14        2.3087    7.6403   -0.3316 C.ar      1 RES1    0.0000
     27 H13        2.6996    8.2396   -0.9561 H         1 RES1    0.0000
     28 C15        2.5120    7.8458    1.0285 C.ar      1 RES1    0.0000
     29 C16        1.9104    6.9578    1.9472 C.ar      1 RES1    0.0000
     30 C17        3.3860    8.9864    1.4846 C.3       1 RES1    0.0000
     31 H14        4.0567    9.1790    0.7972 H         1 RES1    0.0000
     32 H15        3.8357    8.7399    2.3201 H         1 RES1    0.0000
     33 H16        2.8330    9.7814    1.6338 H         1 RES1    0.0000
     34 N1        -0.5129   10.3477    4.7221 N.pl3     1 RES1    0.0000
     35 N2         0.4900    5.5571    3.9065 N.3       1 RES1    0.0000
     36 N3         2.2067    7.1276    3.3408 N.3       1 RES1    0.0000
     37 N4         0.1991    4.6041   -0.4393 N.pl3     1 RES1    0.0000
     38 O1        -1.3946   11.1980    4.7168 O.2       1 RES1    0.0000
     39 O2         0.6701   10.6169    4.8824 O.2       1 RES1    0.0000
     40 O3        -0.1681    3.6997    0.3031 O.2       1 RES1    0.0000
     41 O4        -0.0236    4.5940   -1.6477 O.2       1 RES1    0.0000
@<TRIPOS>BOND
     1    1    2 1
     2    3    1 1
     3    4    1 1
     4    5    1 1
     5    6    5 ar
     6    7    6 ar
     7    8    7 ar
     8    9    8 ar
     9   10    9 1
    10   11    5 ar
    11   12   11 1
    12   13    7 1
    13   14   13 1
    14   15   13 1
    15   16   17 1
    16   18   16 1
    17   19   20 1
    18   21   19 1
    19   22   19 1
    20   23   22 ar
    21   24   23 ar
    22   25   24 1
    23   26   24 ar
    24   27   26 1
    25   28   26 ar
    26   29   22 ar
    27   30   28 1
    28   31   30 1
    29   32   30 1
    30   33   30 1
    31   34    8 1
    32   35    6 1
    33   36   13 1
    34   37   23 1
    35   38   34 2
    36   39   34 2
    37   40   37 2
    38   41   37 2
    39    9   11 ar
    40   16   35 1
    41   16   36 1
    42   19   35 1
    43   28   29 ar
    44   29   36 1
@<TRIPOS>SUBSTRUCTURE
     1 RES1 1

@<TRIPOS>CRYSIN
   8.3118   14.5860   12.3860  90.0000  95.8540  90.0000 231 1

