# MOL2 file generated by ConQuest
# Please check atom types

@<TRIPOS>MOLECULE
DORJIE
    46    47     1
SMALL
NO_CHARGES
****
Generated from CSD

@<TRIPOS>ATOM
      1 O1         1.9337   11.6187    6.3137 O.3       1 RES1    0.0000
      2 C1         3.3179   13.1750    7.3981 C.ar      1 RES1    0.0000
      3 C2         4.0261   12.1477    8.0008 C.ar      1 RES1    0.0000
      4 H1         3.7992   11.2640    7.8182 H         1 RES1    0.0000
      5 C3         5.0624   12.4160    8.8635 C.ar      1 RES1    0.0000
      6 H2         5.5258   11.7271    9.2824 H         1 RES1    0.0000
      7 C4         5.3953   13.7408    9.0925 C.ar      1 RES1    0.0000
      8 C5         3.6740   14.4890    7.6483 C.ar      1 RES1    0.0000
      9 H3         3.1996   15.1808    7.2471 H         1 RES1    0.0000
     10 C6         4.7367   14.7821    8.4928 C.ar      1 RES1    0.0000
     11 H4         4.9933   15.6619    8.6480 H         1 RES1    0.0000
     12 C7         2.1786   12.9264    6.4805 C.2       1 RES1    0.0000
     13 O2         1.5465   13.7791    5.9399 O.2       1 RES1    0.0000
     14 N1         6.4680   14.0370   10.0392 N.pl3     1 RES1    0.0000
     15 O3         6.9317   15.1686   10.0569 O.2       1 RES1    0.0000
     16 C8         0.5902    9.8173    5.4498 C.3       1 RES1    0.0000
     17 C9         0.7878   11.3134    5.4820 C.3       1 RES1    0.0000
     18 H5         0.9347   11.6469    4.5828 H         1 RES1    0.0000
     19 H6        -0.0039   11.7426    5.8406 H         1 RES1    0.0000
     20 C10       -0.5939    9.5852    4.4817 C.3       1 RES1    0.0000
     21 H7        -1.3683   10.0429    4.8452 H         1 RES1    0.0000
     22 H8        -0.3774   10.0144    3.6391 H         1 RES1    0.0000
     23 C11       -1.0040    8.1362    4.1809 C.3       1 RES1    0.0000
     24 H9        -0.8620    7.6111    4.9956 H         1 RES1    0.0000
     25 O4         6.8145   13.1636   10.8204 O.2       1 RES1    0.0000
     26 C12        1.8362    9.1817    4.9700 C.1       1 RES1    0.0000
     27 C13        0.2940    9.2802    6.8641 C.3       1 RES1    0.0000
     28 H10        0.3116    8.3199    6.8519 H         1 RES1    0.0000
     29 H11       -0.5725    9.5824    7.1460 H         1 RES1    0.0000
     30 H12        0.9598    9.6031    7.4754 H         1 RES1    0.0000
     31 C14       -2.4771    8.0868    3.8540 C.ar      1 RES1    0.0000
     32 C15       -2.9747    8.4764    2.6302 C.ar      1 RES1    0.0000
     33 H13       -2.3785    8.7727    1.9806 H         1 RES1    0.0000
     34 N2         2.8120    8.7108    4.6382 N.1       1 RES1    0.0000
     35 C16       -3.3815    7.6778    4.7855 C.ar      1 RES1    0.0000
     36 H14       -3.0912    7.4300    5.6336 H         1 RES1    0.0000
     37 C17       -5.1876    8.0224    3.2634 C.ar      1 RES1    0.0000
     38 H15       -6.0967    8.0017    3.0686 H         1 RES1    0.0000
     39 C18       -0.1454    7.5283    3.0807 C.3       1 RES1    0.0000
     40 H16       -0.4622    6.6461    2.8780 H         1 RES1    0.0000
     41 H17        0.7674    7.4817    3.3766 H         1 RES1    0.0000
     42 H18       -0.1978    8.0767    2.2941 H         1 RES1    0.0000
     43 C19       -4.3156    8.4441    2.3294 C.ar      1 RES1    0.0000
     44 H19       -4.6168    8.7132    1.4917 H         1 RES1    0.0000
     45 C20       -4.7513    7.6266    4.4726 C.ar      1 RES1    0.0000
     46 H20       -5.3602    7.3213    5.1058 H         1 RES1    0.0000
@<TRIPOS>BOND
     1    1   12 1
     2    2    3 ar
     3    3    4 1
     4    5    3 ar
     5    6    5 1
     6    7    5 ar
     7    8    2 ar
     8    9    8 1
     9   10    7 ar
    10   11   10 1
    11   12    2 1
    12   13   12 2
    13   14    7 1
    14   15   14 2
    15   16   17 1
    16   17    1 1
    17   18   17 1
    18   19   17 1
    19   20   16 1
    20   21   20 1
    21   22   20 1
    22   23   20 1
    23   24   23 1
    24   25   14 2
    25   26   16 1
    26   27   16 1
    27   28   27 1
    28   29   27 1
    29   30   27 1
    30   31   23 1
    31   32   31 ar
    32   33   32 1
    33   34   26 3
    34   35   31 ar
    35   36   35 1
    36   37   38 1
    37   39   23 1
    38   40   39 1
    39   41   39 1
    40   42   39 1
    41   43   32 ar
    42   44   43 1
    43   45   35 ar
    44   46   45 1
    45    8   10 ar
    46   37   43 ar
    47   37   45 ar
@<TRIPOS>SUBSTRUCTURE
     1 RES1 1

@<TRIPOS>CRYSIN
  11.6059   25.8704    6.7867  90.0000 116.2190  90.0000   9 1

