# MOL2 file generated by ConQuest
# Please check atom types

@<TRIPOS>MOLECULE
DORKAW
    32    33     1
SMALL
NO_CHARGES
****
Generated from CSD

@<TRIPOS>ATOM
      1 C1         4.2234   -0.8490    3.2328 C.3       1 RES1    0.0000
      2 C2         3.1205    0.1508    2.8585 C.3       1 RES1    0.0000
      3 C3         1.9878   -0.0989    3.8707 C.3       1 RES1    0.0000
      4 C4         1.4343   -1.8970    5.5960 C.2       1 RES1    0.0000
      5 C5         1.6633   -3.1266    6.4147 C.3       1 RES1    0.0000
      6 C6         2.5815   -4.2314    5.9334 C.3       1 RES1    0.0000
      7 C7         4.0370   -3.8458    5.7526 C.3       1 RES1    0.0000
      8 C8         4.3234   -3.0561    4.4781 C.3       1 RES1    0.0000
      9 C9         3.7056   -1.6708    4.4373 C.3       1 RES1    0.0000
     10 C10        2.1567   -1.5744    4.3036 C.3       1 RES1    0.0000
     11 C11        1.6055   -2.4988    3.1946 C.3       1 RES1    0.0000
     12 O1        -0.1198   -1.3816    7.1494 O.3       1 RES1    0.0000
     13 N1         0.5596   -1.0319    5.9487 N.2       1 RES1    0.0000
     14 H1         4.5210   -1.4632    2.4994 H         1 RES1    0.0000
     15 H2         5.1031   -0.3077    3.5804 H         1 RES1    0.0000
     16 H3         3.4847    1.1641    2.9413 H         1 RES1    0.0000
     17 H4         2.7742   -0.0260    1.8513 H         1 RES1    0.0000
     18 H5         2.0509    0.4152    4.7633 H         1 RES1    0.0000
     19 H6         1.1136    0.2781    3.4837 H         1 RES1    0.0000
     20 H7         1.7406   -2.7855    7.5187 H         1 RES1    0.0000
     21 H8         0.6852   -3.5863    6.6465 H         1 RES1    0.0000
     22 H9         2.5720   -4.8925    6.6121 H         1 RES1    0.0000
     23 H10        2.2204   -4.6231    4.9174 H         1 RES1    0.0000
     24 H11        4.6807   -4.7615    5.8532 H         1 RES1    0.0000
     25 H12        4.5347   -3.2044    6.6719 H         1 RES1    0.0000
     26 H13        5.3845   -2.9981    4.5749 H         1 RES1    0.0000
     27 H14        3.9716   -3.5949    3.5091 H         1 RES1    0.0000
     28 H15        3.9686   -1.1258    5.3796 H         1 RES1    0.0000
     29 H16        2.0483   -2.2776    2.2830 H         1 RES1    0.0000
     30 H17        0.6114   -2.2936    2.8852 H         1 RES1    0.0000
     31 H18        1.8406   -3.5678    3.3805 H         1 RES1    0.0000
     32 H19       -1.1039   -0.7613    7.2220 H         1 RES1    0.0000
@<TRIPOS>BOND
     1    1    2 1
     2    2    3 1
     3    3   10 1
     4    4    5 1
     5    5    6 1
     6    6    7 1
     7    7    8 1
     8    8    9 1
     9    9    1 1
    10   10    4 1
    11   11   10 1
    12   12   13 1
    13   13    4 2
    14   14    1 1
    15   15    1 1
    16   16    2 1
    17   17    2 1
    18   18    3 1
    19   19    3 1
    20   20    5 1
    21   21    5 1
    22   22    6 1
    23   23    6 1
    24   24    7 1
    25   25    7 1
    26   26    8 1
    27   27    8 1
    28   28    9 1
    29   29   11 1
    30   30   11 1
    31   31   11 1
    32   32   12 1
    33    9   10 1
@<TRIPOS>SUBSTRUCTURE
     1 RES1 1

@<TRIPOS>CRYSIN
   6.7180   12.3580   12.7660  90.0000  94.1400  90.0000 231 1

