# MOL2 file generated by ConQuest
# Please check atom types

@<TRIPOS>MOLECULE
DORKOK
    45    47     1
SMALL
NO_CHARGES
****
Generated from CSD

@<TRIPOS>ATOM
      1 C1        -0.0768   -0.8330    6.0360 C.3       1 RES1    0.0000
      2 C2         1.2195   -1.2722    5.4277 C.2       1 RES1    0.0000
      3 C3         1.1073   -2.0806    4.1613 C.3       1 RES1    0.0000
      4 C4         2.4145   -2.1954    3.3646 C.3       1 RES1    0.0000
      5 C5         2.5381   -1.0623    2.3296 C.3       1 RES1    0.0000
      6 O1         3.9059   -0.9967    1.8770 O.3       1 RES1    0.0000
      7 N1         4.5431    0.0682    2.5840 N.2       1 RES1    0.0000
      8 C6         3.6080    0.6977    3.1788 C.2       1 RES1    0.0000
      9 O2         2.3586    0.1964    3.0221 O.3       1 RES1    0.0000
     10 O3         2.2819   -1.0254    5.9486 O.2       1 RES1    0.0000
     11 C7         2.6384   -3.5552    2.7388 C.ar      1 RES1    0.0000
     12 C8         1.6520   -4.2410    2.0510 C.ar      1 RES1    0.0000
     13 C9         1.9070   -5.4718    1.4696 C.ar      1 RES1    0.0000
     14 C10        3.1546   -6.0582    1.5477 C.ar      1 RES1    0.0000
     15 C11        4.1271   -5.3938    2.2516 C.ar      1 RES1    0.0000
     16 C12        3.8763   -4.1639    2.8357 C.ar      1 RES1    0.0000
     17 C13        3.4354   -7.3857    0.8869 C.3       1 RES1    0.0000
     18 C14        1.6209   -1.0969    1.1372 C.3       1 RES1    0.0000
     19 C15        3.7728    1.9224    3.9554 C.ar      1 RES1    0.0000
     20 C16        2.7254    2.4117    4.7158 C.ar      1 RES1    0.0000
     21 C17        2.8826    3.5860    5.4304 C.ar      1 RES1    0.0000
     22 C18        4.0746    4.2668    5.3847 C.ar      1 RES1    0.0000
     23 C19        5.1207    3.7840    4.6270 C.ar      1 RES1    0.0000
     24 C20        4.9731    2.6145    3.9164 C.ar      1 RES1    0.0000
     25 H1         0.0987   -0.5774    6.9445 H         1 RES1    0.0000
     26 H2        -0.3891   -0.0885    5.5314 H         1 RES1    0.0000
     27 H3        -0.7213   -1.5912    6.0159 H         1 RES1    0.0000
     28 H4         0.3459   -1.7311    3.5934 H         1 RES1    0.0000
     29 H5         0.8140   -2.9523    4.4682 H         1 RES1    0.0000
     30 H6         3.1698   -2.0567    4.0106 H         1 RES1    0.0000
     31 H7         0.7326   -3.8557    1.9515 H         1 RES1    0.0000
     32 H8         1.1854   -5.9550    1.0094 H         1 RES1    0.0000
     33 H9         4.9861   -5.7920    2.3283 H         1 RES1    0.0000
     34 H10        4.5811   -3.7012    3.3242 H         1 RES1    0.0000
     35 H11        4.2175   -7.7942    1.1709 H         1 RES1    0.0000
     36 H12        3.4014   -7.3548   -0.0135 H         1 RES1    0.0000
     37 H13        2.7728   -8.0173    1.0901 H         1 RES1    0.0000
     38 H14        1.7808   -0.2607    0.6191 H         1 RES1    0.0000
     39 H15        0.6583   -1.1446    1.3997 H         1 RES1    0.0000
     40 H16        1.8320   -1.8809    0.6056 H         1 RES1    0.0000
     41 H17        1.8634    1.9066    4.7508 H         1 RES1    0.0000
     42 H18        2.1161    3.8860    6.0024 H         1 RES1    0.0000
     43 H19        4.2093    5.0983    5.8947 H         1 RES1    0.0000
     44 H20        6.0094    4.2634    4.5489 H         1 RES1    0.0000
     45 H21        5.6886    2.2344    3.3780 H         1 RES1    0.0000
@<TRIPOS>BOND
     1    1    2 1
     2    2    3 1
     3    3    4 1
     4    4    5 1
     5    5    6 1
     6    6    7 1
     7    7    8 2
     8    8    9 1
     9    9    5 1
    10   10    2 2
    11   11    4 1
    12   12   11 ar
    13   13   12 ar
    14   14   13 ar
    15   15   14 ar
    16   16   11 ar
    17   17   14 1
    18   18    5 1
    19   19    8 1
    20   20   19 ar
    21   21   20 ar
    22   22   21 ar
    23   23   22 ar
    24   24   19 ar
    25   25    1 1
    26   26    1 1
    27   27    1 1
    28   28    3 1
    29   29    3 1
    30   30    4 1
    31   31   12 1
    32   32   13 1
    33   33   15 1
    34   34   16 1
    35   35   17 1
    36   36   17 1
    37   37   17 1
    38   38   18 1
    39   39   18 1
    40   40   18 1
    41   41   20 1
    42   42   21 1
    43   43   22 1
    44   44   23 1
    45   45   24 1
    46   15   16 ar
    47   23   24 ar
@<TRIPOS>SUBSTRUCTURE
     1 RES1 1

@<TRIPOS>CRYSIN
   6.1010   10.6520   14.5520 106.6900 101.2200 100.2000   2 1

