# MOL2 file generated by ConQuest
# Please check atom types

@<TRIPOS>MOLECULE
DORKOL
    32    33     1
SMALL
NO_CHARGES
****
Generated from CSD

@<TRIPOS>ATOM
      1 O1        11.1530    8.6590    1.5118 O.2       1 RES1    0.0000
      2 O2         9.8872    6.3088   -3.9062 O.2       1 RES1    0.0000
      3 O3        10.9296    7.8438   -2.8022 O.2       1 RES1    0.0000
      4 O4         6.2541    3.9215   -1.7451 O.2       1 RES1    0.0000
      5 O5         6.1647    3.9043    0.4218 O.2       1 RES1    0.0000
      6 N1         9.1863    7.9680    4.4889 N.3       1 RES1    0.0000
      7 H1         8.6857    8.5793    4.9208 H         1 RES1    0.0000
      8 N2         9.3615    7.3004    1.9583 N.am      1 RES1    0.0000
      9 H2         8.8574    7.0346    2.6003 H         1 RES1    0.0000
     10 N3        10.1223    6.9300   -2.8743 N.pl3     1 RES1    0.0000
     11 N4         6.6487    4.2901   -0.6405 N.pl3     1 RES1    0.0000
     12 C1        10.2779    8.6357    3.7551 C.3       1 RES1    0.0000
     13 H3        10.1420    9.6047    3.8016 H         1 RES1    0.0000
     14 C2        11.6036    8.2834    4.4734 C.3       1 RES1    0.0000
     15 H4        12.1087    7.6273    3.9689 H         1 RES1    0.0000
     16 H5        12.1507    9.0746    4.6015 H         1 RES1    0.0000
     17 C3        11.1486    7.7104    5.8168 C.3       1 RES1    0.0000
     18 H6        11.7797    7.0551    6.1525 H         1 RES1    0.0000
     19 H7        11.0341    8.4113    6.4779 H         1 RES1    0.0000
     20 C4         9.8264    7.0676    5.4652 C.3       1 RES1    0.0000
     21 H8         9.9668    6.1898    5.0790 H         1 RES1    0.0000
     22 H9         9.2722    6.9738    6.2559 H         1 RES1    0.0000
     23 C5        10.3235    8.2164    2.2904 C.2       1 RES1    0.0000
     24 C6         9.0996    6.7458    0.7077 C.ar      1 RES1    0.0000
     25 C7         9.7629    7.1365   -0.4608 C.ar      1 RES1    0.0000
     26 H10       10.4343    7.7792   -0.4379 H         1 RES1    0.0000
     27 C8         9.3902    6.5402   -1.6505 C.ar      1 RES1    0.0000
     28 C9         8.3809    5.6042   -1.7749 C.ar      1 RES1    0.0000
     29 H11        8.1404    5.2350   -2.5942 H         1 RES1    0.0000
     30 C10        7.7560    5.2592   -0.5946 C.ar      1 RES1    0.0000
     31 C11        8.0957    5.7803    0.6335 C.ar      1 RES1    0.0000
     32 H12        7.6603    5.4925    1.4020 H         1 RES1    0.0000
@<TRIPOS>BOND
     1    1   23 2
     2    2   10 2
     3    3   10 2
     4    4   11 2
     5    5   11 2
     6    6    7 1
     7    8    9 1
     8   10   27 1
     9   11   30 1
    10   12    6 1
    11   13   12 1
    12   14   12 1
    13   15   14 1
    14   16   14 1
    15   17   14 1
    16   18   17 1
    17   19   17 1
    18   20    6 1
    19   21   20 1
    20   22   20 1
    21   23    8 1
    22   24    8 1
    23   25   24 ar
    24   26   25 1
    25   27   25 ar
    26   28   27 ar
    27   29   28 1
    28   30   28 ar
    29   31   24 ar
    30   32   31 1
    31   12   23 1
    32   17   20 1
    33   30   31 ar
@<TRIPOS>SUBSTRUCTURE
     1 RES1 1

@<TRIPOS>CRYSIN
   8.9396    8.9396   30.4129  90.0000  90.0000  90.0000  92 1

