# MOL2 file generated by ConQuest
# Please check atom types

@<TRIPOS>MOLECULE
DORMED
    55    57     1
SMALL
NO_CHARGES
****
Generated from CSD

@<TRIPOS>ATOM
      1 O1         3.3413   -0.4992   15.3935 O.3       1 RES1    0.0000
      2 C1         3.4391   -0.0667   14.0325 C.3       1 RES1    0.0000
      3 C2         2.0532    0.2993   13.5163 C.3       1 RES1    0.0000
      4 C3         1.3380    1.2805   14.4214 C.3       1 RES1    0.0000
      5 C4         1.3753    0.8343   15.8731 C.3       1 RES1    0.0000
      6 C5         0.7992    1.8823   16.8278 C.3       1 RES1    0.0000
      7 C6         0.9585    1.4738   18.2878 C.3       1 RES1    0.0000
      8 C7         2.4087    1.1524   18.6173 C.3       1 RES1    0.0000
      9 C8         2.9525    0.0737   17.6878 C.3       1 RES1    0.0000
     10 C9         2.8104    0.5291   16.2515 C.3       1 RES1    0.0000
     11 C10        4.0967   -1.2063   13.2730 C.3       1 RES1    0.0000
     12 C11        5.4650   -1.4792   13.8248 C.2       1 RES1    0.0000
     13 O2         6.3896   -0.7245   13.7202 O.2       1 RES1    0.0000
     14 O3         5.5395   -2.6359   14.4767 O.3       1 RES1    0.0000
     15 C12        6.8335   -2.9686   15.0730 C.3       1 RES1    0.0000
     16 C13        6.5906   -3.8449   16.2459 C.3       1 RES1    0.0000
     17 O4         2.2495    0.9570   12.2200 O.3       1 RES1    0.0000
     18 C14        1.6107    0.4823   11.1498 C.2       1 RES1    0.0000
     19 O5         0.9537   -0.5280   11.1385 O.2       1 RES1    0.0000
     20 C15        1.8157    1.3290    9.9385 C.ar      1 RES1    0.0000
     21 C16        2.6607    2.4362    9.9389 C.ar      1 RES1    0.0000
     22 C17        2.8314    3.1333    8.7547 C.ar      1 RES1    0.0000
     23 C18        2.1948    2.7990    7.5803 C.ar      1 RES1    0.0000
     24 C19        1.3760    1.6886    7.6213 C.ar      1 RES1    0.0000
     25 C20        1.1714    0.9506    8.7649 C.ar      1 RES1    0.0000
     26 N1         3.7645    4.2755    8.7397 N.pl3     1 RES1    0.0000
     27 O6         4.1683    4.7070    9.8193 O.2       1 RES1    0.0000
     28 O7         4.0839    4.7400    7.6529 O.2       1 RES1    0.0000
     29 N2         0.7227    1.2563    6.3728 N.pl3     1 RES1    0.0000
     30 O8         0.5761    2.0750    5.4794 O.2       1 RES1    0.0000
     31 O9         0.3780    0.0840    6.3073 O.2       1 RES1    0.0000
     32 H1         3.9990    0.7374   13.9900 H         1 RES1    0.0000
     33 H2         1.5203   -0.5060   13.3693 H         1 RES1    0.0000
     34 H3         1.7848    2.1908   14.3135 H         1 RES1    0.0000
     35 H4         0.4558    1.3780   14.1254 H         1 RES1    0.0000
     36 H5         0.8841   -0.0215   15.9536 H         1 RES1    0.0000
     37 H6         1.2694    2.7882   16.6608 H         1 RES1    0.0000
     38 H7        -0.1416    2.0185   16.6006 H         1 RES1    0.0000
     39 H8         0.6370    2.1961   18.8652 H         1 RES1    0.0000
     40 H9         0.3982    0.6728   18.4251 H         1 RES1    0.0000
     41 H10        2.5034    0.8612   19.5649 H         1 RES1    0.0000
     42 H11        3.0403    1.9808   18.4702 H         1 RES1    0.0000
     43 H12        3.9006   -0.0861   17.8834 H         1 RES1    0.0000
     44 H13        2.4416   -0.7913   17.8345 H         1 RES1    0.0000
     45 H14        3.3490    1.3564   16.1266 H         1 RES1    0.0000
     46 H15        3.5571   -2.0239   13.3580 H         1 RES1    0.0000
     47 H16        4.1524   -0.9474   12.3197 H         1 RES1    0.0000
     48 H17        7.2691   -2.1315   15.4044 H         1 RES1    0.0000
     49 H18        7.3330   -3.3911   14.3774 H         1 RES1    0.0000
     50 H19        7.5329   -4.0909   16.6081 H         1 RES1    0.0000
     51 H20        6.0596   -3.4072   16.9053 H         1 RES1    0.0000
     52 H21        6.1583   -4.6722   15.9122 H         1 RES1    0.0000
     53 H22        3.1417    2.6967   10.7436 H         1 RES1    0.0000
     54 H23        2.3227    3.2727    6.8050 H         1 RES1    0.0000
     55 H24        0.6147    0.1992    8.7611 H         1 RES1    0.0000
@<TRIPOS>BOND
     1    1    2 1
     2    2    3 1
     3    3    4 1
     4    4    5 1
     5    5    6 1
     6    6    7 1
     7    7    8 1
     8    8    9 1
     9    9   10 1
    10   10    1 1
    11   11    2 1
    12   12   11 1
    13   13   12 2
    14   14   12 1
    15   15   14 1
    16   16   15 1
    17   17    3 1
    18   18   17 1
    19   19   18 2
    20   20   18 1
    21   21   20 ar
    22   22   21 ar
    23   23   22 ar
    24   24   23 ar
    25   25   20 ar
    26   26   22 1
    27   27   26 2
    28   28   26 2
    29   29   24 1
    30   30   29 2
    31   31   29 2
    32   32    2 1
    33   33    3 1
    34   34    4 1
    35   35    4 1
    36   36    5 1
    37   37    6 1
    38   38    6 1
    39   39    7 1
    40   40    7 1
    41   41    8 1
    42   42    8 1
    43   43    9 1
    44   44    9 1
    45   45   10 1
    46   46   11 1
    47   47   11 1
    48   48   15 1
    49   49   15 1
    50   50   16 1
    51   51   16 1
    52   52   16 1
    53   53   21 1
    54   54   23 1
    55   55   25 1
    56    5   10 1
    57   24   25 ar
@<TRIPOS>SUBSTRUCTURE
     1 RES1 1

@<TRIPOS>CRYSIN
  10.6005    5.3827   37.6410  90.0000  92.0244  90.0000  14 1

