# MOL2 file generated by ConQuest
# Please check atom types

@<TRIPOS>MOLECULE
DORYOA
    28    29     1
SMALL
NO_CHARGES
****
Generated from CSD

@<TRIPOS>ATOM
      1 O1         1.9323    3.2985    4.6380 O.2       1 RES1    0.0000
      2 O2         4.0218    3.8925    4.8552 O.2       1 RES1    0.0000
      3 O3         0.8627    0.5255    9.2820 O.2       1 RES1    0.0000
      4 O4         2.8134    0.1361   10.1390 O.2       1 RES1    0.0000
      5 O5         5.0550    0.9933    4.8060 O.2       1 RES1    0.0000
      6 O6         7.0654    1.3130    4.0635 O.2       1 RES1    0.0000
      7 O7         4.7988    4.4355    9.1897 O.2       1 RES1    0.0000
      8 O8         6.8816    4.8824    9.5557 O.2       1 RES1    0.0000
      9 N1         4.2033    2.4208    7.2043 N.pl3     1 RES1    0.0000
     10 N2         3.9581    1.6995    8.3056 N.2       1 RES1    0.0000
     11 N3         0.7213    1.8496    6.7524 N.3       1 RES1    0.0000
     12 N4         7.6502    2.8172    6.1536 N.2       1 RES1    0.0000
     13 N5         7.5830    3.5616    7.2365 N.pl3     1 RES1    0.0000
     14 N6         8.7746    4.0983    7.6914 N.3       1 RES1    0.0000
     15 N7         3.0101    3.3080    5.2484 N.pl3     1 RES1    0.0000
     16 N8         2.0829    0.6393    9.3105 N.pl3     1 RES1    0.0000
     17 N9         6.1566    1.4950    4.8706 N.pl3     1 RES1    0.0000
     18 N10        5.9713    4.3617    8.9158 N.pl3     1 RES1    0.0000
     19 C1         3.0551    2.5920    6.4505 C.2       1 RES1    0.0000
     20 C2         2.0002    1.9542    7.1169 C.2       1 RES1    0.0000
     21 C3         2.6594    1.4413    8.2524 C.2       1 RES1    0.0000
     22 C4         6.4261    2.3581    5.9880 C.2       1 RES1    0.0000
     23 C5         5.5286    2.7957    6.9650 C.2       1 RES1    0.0000
     24 C6         6.3275    3.5918    7.7659 C.2       1 RES1    0.0000
     25 H1         0.5015    2.2142    6.0140 H         1 RES1    0.0000
     26 H2         0.1982    1.3813    7.2259 H         1 RES1    0.0000
     27 H3         8.4568    4.5604    8.3644 H         1 RES1    0.0000
     28 H4         9.1397    4.4792    6.9948 H         1 RES1    0.0000
@<TRIPOS>BOND
     1    1   15 2
     2    2   15 2
     3    3   16 2
     4    4   16 2
     5    5   17 2
     6    6   17 2
     7    7   18 2
     8    8   18 2
     9    9   10 1
    10   10   21 2
    11   11   20 1
    12   12   13 1
    13   13   14 1
    14   14   27 1
    15   15   19 1
    16   16   21 1
    17   17   22 1
    18   18   24 1
    19   19    9 1
    20   20   19 2
    21   21   20 1
    22   22   12 2
    23   23    9 1
    24   24   13 1
    25   25   11 1
    26   26   11 1
    27   28   14 1
    28   22   23 1
    29   23   24 2
@<TRIPOS>SUBSTRUCTURE
     1 RES1 1

@<TRIPOS>CRYSIN
  10.6525   10.1569   11.3404  90.0000  96.2590  90.0000 231 1

