# MOL2 file generated by ConQuest
# Please check atom types

@<TRIPOS>MOLECULE
DORYUF
    50    53     1
SMALL
NO_CHARGES
****
Generated from CSD

@<TRIPOS>ATOM
      1 C1         2.9143    5.1850    0.7190 C.3       1 RES1    0.0000
      2 H1         2.0113    4.8210    0.4882 H         1 RES1    0.0000
      3 C2         2.7731    6.4246    1.5524 C.2       1 RES1    0.0000
      4 H2         1.9596    6.5158    2.0323 H         1 RES1    0.0000
      5 C3         3.6570    7.4139    1.6986 C.2       1 RES1    0.0000
      6 H3         3.3782    8.1241    2.2638 H         1 RES1    0.0000
      7 C4         4.9902    7.5661    1.1175 C.2       1 RES1    0.0000
      8 H4         5.4151    8.4015    1.2678 H         1 RES1    0.0000
      9 C5         5.6862    6.6758    0.4012 C.2       1 RES1    0.0000
     10 H5         6.5686    6.9246    0.1554 H         1 RES1    0.0000
     11 C6         5.2154    5.3218   -0.0560 C.3       1 RES1    0.0000
     12 H6         5.8011    5.0088   -0.8026 H         1 RES1    0.0000
     13 C7         5.1710    4.2205    1.0492 C.3       1 RES1    0.0000
     14 H7         5.4003    3.3449    0.6264 H         1 RES1    0.0000
     15 C8         3.7082    4.1556    1.5236 C.2       1 RES1    0.0000
     16 C9         3.7522    5.3612   -0.5501 C.3       1 RES1    0.0000
     17 H8         3.5500    6.2260   -0.9880 H         1 RES1    0.0000
     18 H9         3.5775    4.6278   -1.1918 H         1 RES1    0.0000
     19 C10        3.3084    3.3340    2.5026 C.2       1 RES1    0.0000
     20 H10        3.9960    2.7706    2.8395 H         1 RES1    0.0000
     21 C11        6.0988    4.4361    2.2234 C.3       1 RES1    0.0000
     22 H11        5.8515    5.2638    2.7083 H         1 RES1    0.0000
     23 H12        6.0384    3.6741    2.8522 H         1 RES1    0.0000
     24 C12        2.0027    3.1416    3.1521 C.ar      1 RES1    0.0000
     25 C13        1.9582    2.3085    4.2787 C.ar      1 RES1    0.0000
     26 H13        2.7493    1.8579    4.5529 H         1 RES1    0.0000
     27 C14        0.7850    2.1253    5.0050 C.ar      1 RES1    0.0000
     28 H14        0.7833    1.5588    5.7677 H         1 RES1    0.0000
     29 C15       -0.3729    2.7637    4.6196 C.ar      1 RES1    0.0000
     30 H15       -1.1731    2.6447    5.1183 H         1 RES1    0.0000
     31 C16       -0.3654    3.5806    3.5002 C.ar      1 RES1    0.0000
     32 H16       -1.1640    4.0149    3.2264 H         1 RES1    0.0000
     33 C17        0.8010    3.7676    2.7800 C.ar      1 RES1    0.0000
     34 H17        0.7880    4.3325    2.0162 H         1 RES1    0.0000
     35 O1         7.4597    4.5481    1.6923 O.3       1 RES1    0.0000
     36 C18        8.4305    4.5142    2.6050 C.2       1 RES1    0.0000
     37 O2         8.2446    4.3491    3.7905 O.2       1 RES1    0.0000
     38 C19        9.7831    4.7159    2.0007 C.ar      1 RES1    0.0000
     39 C20       10.8981    4.3240    2.7365 C.ar      1 RES1    0.0000
     40 H18       10.7795    3.8897    3.5730 H         1 RES1    0.0000
     41 C21       12.1774    4.5598    2.2607 C.ar      1 RES1    0.0000
     42 H19       12.9402    4.2800    2.7520 H         1 RES1    0.0000
     43 C22       12.3087    5.2120    1.0528 C.ar      1 RES1    0.0000
     44 C23       11.2226    5.6085    0.2895 C.ar      1 RES1    0.0000
     45 H20       11.3488    6.0521   -0.5412 H         1 RES1    0.0000
     46 C24        9.9503    5.3434    0.7660 C.ar      1 RES1    0.0000
     47 H21        9.1898    5.5892    0.2522 H         1 RES1    0.0000
     48 N1        13.6673    5.5340    0.5716 N.pl3     1 RES1    0.0000
     49 O3        14.6174    5.2683    1.3024 O.2       1 RES1    0.0000
     50 O4        13.7778    6.0608   -0.5294 O.2       1 RES1    0.0000
@<TRIPOS>BOND
     1    1    2 1
     2    3    1 1
     3    4    3 1
     4    5    3 2
     5    6    5 1
     6    7    5 1
     7    8    7 1
     8    9    7 2
     9   10    9 1
    10   11    9 1
    11   12   11 1
    12   13   11 1
    13   14   13 1
    14   15    1 1
    15   16    1 1
    16   17   16 1
    17   18   16 1
    18   19   15 2
    19   20   19 1
    20   21   13 1
    21   22   21 1
    22   23   21 1
    23   24   19 1
    24   25   24 ar
    25   26   25 1
    26   27   25 ar
    27   28   27 1
    28   29   27 ar
    29   30   29 1
    30   31   29 ar
    31   32   31 1
    32   33   24 ar
    33   34   33 1
    34   35   21 1
    35   36   35 1
    36   37   36 2
    37   38   36 1
    38   39   38 ar
    39   40   39 1
    40   41   39 ar
    41   42   41 1
    42   43   41 ar
    43   44   43 ar
    44   45   44 1
    45   46   38 ar
    46   47   46 1
    47   48   43 1
    48   49   48 2
    49   50   48 2
    50   11   16 1
    51   13   15 1
    52   31   33 ar
    53   44   46 ar
@<TRIPOS>SUBSTRUCTURE
     1 RES1 1

@<TRIPOS>CRYSIN
  21.6415    7.7284   11.7898  90.0000 102.4020  90.0000  14 1

