# MOL2 file generated by ConQuest
# Please check atom types

@<TRIPOS>MOLECULE
DOSFEX
    43    44     1
SMALL
NO_CHARGES
****
Generated from CSD

@<TRIPOS>ATOM
      1 O1        10.6853    6.9966    3.8339 O.2       1 RES1    0.0000
      2 O2        11.0876    6.9129    1.7297 O.2       1 RES1    0.0000
      3 O3         3.1514    2.7735    1.6350 O.2       1 RES1    0.0000
      4 O4         3.3345    3.0585   -0.5000 O.2       1 RES1    0.0000
      5 O5        10.6949    3.1158   -0.4219 O.3       1 RES1    0.0000
      6 H1        11.5133    3.1590   -0.4415 H         1 RES1    0.0000
      7 N1        10.3885    6.6804    2.7027 N.pl3     1 RES1    0.0000
      8 N2         3.7994    3.0533    0.6359 N.pl3     1 RES1    0.0000
      9 C1         7.9997    7.0393    2.1687 C.2       1 RES1    0.0000
     10 C2         9.0569    5.9839    2.5140 C.3       1 RES1    0.0000
     11 H2         8.8067    5.5698    3.3662 H         1 RES1    0.0000
     12 C3         9.1726    4.8737    1.4587 C.3       1 RES1    0.0000
     13 H3         9.4889    5.2792    0.6243 H         1 RES1    0.0000
     14 C4        10.1740    3.7837    1.8702 C.3       1 RES1    0.0000
     15 H4        11.0494    4.1865    1.9843 H         1 RES1    0.0000
     16 H5         9.9045    3.4141    2.7247 H         1 RES1    0.0000
     17 C5        10.2753    2.6641    0.8591 C.3       1 RES1    0.0000
     18 H6        10.9054    2.0011    1.1830 H         1 RES1    0.0000
     19 H7         9.4099    2.2350    0.7749 H         1 RES1    0.0000
     20 C6         8.2348    8.0170    1.3183 C.2       1 RES1    0.0000
     21 H8         7.5559    8.6112    1.0945 H         1 RES1    0.0000
     22 H9         9.0800    8.1123    0.9416 H         1 RES1    0.0000
     23 C7         6.6623    6.8463    2.7964 C.ar      1 RES1    0.0000
     24 C8         5.5149    6.9585    2.0187 C.ar      1 RES1    0.0000
     25 H10        5.5918    7.1599    1.1140 H         1 RES1    0.0000
     26 C9         4.2597    6.7743    2.5739 C.ar      1 RES1    0.0000
     27 H11        3.5012    6.8439    2.0406 H         1 RES1    0.0000
     28 C10        4.1361    6.4883    3.9100 C.ar      1 RES1    0.0000
     29 H12        3.2930    6.3648    4.2848 H         1 RES1    0.0000
     30 C11        5.2593    6.3838    4.6958 C.ar      1 RES1    0.0000
     31 H13        5.1733    6.1962    5.6023 H         1 RES1    0.0000
     32 C12        6.5178    6.5554    4.1458 C.ar      1 RES1    0.0000
     33 H14        7.2718    6.4754    4.6837 H         1 RES1    0.0000
     34 C13        7.7827    4.3063    1.2109 C.ar      1 RES1    0.0000
     35 C14        7.1556    4.5067   -0.0076 C.ar      1 RES1    0.0000
     36 H15        7.6127    4.9433   -0.6898 H         1 RES1    0.0000
     37 C15        5.8583    4.0679   -0.2305 C.ar      1 RES1    0.0000
     38 H16        5.4417    4.1979   -1.0519 H         1 RES1    0.0000
     39 C16        5.2077    3.4347    0.8032 C.ar      1 RES1    0.0000
     40 C17        5.8079    3.1857    2.0158 C.ar      1 RES1    0.0000
     41 H17        5.3481    2.7381    2.6891 H         1 RES1    0.0000
     42 C18        7.1087    3.6133    2.2140 C.ar      1 RES1    0.0000
     43 H18        7.5353    3.4368    3.0213 H         1 RES1    0.0000
@<TRIPOS>BOND
     1    1    7 2
     2    2    7 2
     3    3    8 2
     4    4    8 2
     5    5    6 1
     6    7   10 1
     7    8   39 1
     8    9   10 1
     9   10   11 1
    10   12   10 1
    11   13   12 1
    12   14   12 1
    13   15   14 1
    14   16   14 1
    15   17    5 1
    16   18   17 1
    17   19   17 1
    18   20    9 2
    19   21   20 1
    20   22   20 1
    21   23    9 1
    22   24   23 ar
    23   25   24 1
    24   26   24 ar
    25   27   26 1
    26   28   26 ar
    27   29   28 1
    28   30   28 ar
    29   31   30 1
    30   32   23 ar
    31   33   32 1
    32   34   12 1
    33   35   34 ar
    34   36   35 1
    35   37   35 ar
    36   38   37 1
    37   39   37 ar
    38   40   39 ar
    39   41   40 1
    40   42   34 ar
    41   43   42 1
    42   14   17 1
    43   30   32 ar
    44   40   42 ar
@<TRIPOS>SUBSTRUCTURE
     1 RES1 1

@<TRIPOS>CRYSIN
  10.3396   14.1724   11.9956  90.0000 106.5840  90.0000  14 1

