# MOL2 file generated by ConQuest
# Please check atom types

@<TRIPOS>MOLECULE
DOSTIQ
    51    53     1
SMALL
NO_CHARGES
****
Generated from CSD

@<TRIPOS>ATOM
      1 O1         0.8913    1.2361    8.9305 O.3       1 RES1    0.0000
      2 O2         2.2789    5.0386    6.8284 O.2       1 RES1    0.0000
      3 O3         0.2039    5.1898    5.9790 O.3       1 RES1    0.0000
      4 O4         1.2170    5.7780    9.9458 O.3       1 RES1    0.0000
      5 O5        -3.2586    4.3269   11.2396 O.2       1 RES1    0.0000
      6 N1         1.8089    4.4601   10.1574 N.3       1 RES1    0.0000
      7 N2        -1.1286    5.3812    9.9747 N.2       1 RES1    0.0000
      8 N3        -2.0795    4.9928    9.3050 N.2       1 RES1    0.0000
      9 N4        -4.3485    5.0039    9.3613 N.am      1 RES1    0.0000
     10 H1        -5.1415    4.8638    9.6627 H         1 RES1    0.0000
     11 H2        -4.2384    5.3077    8.5652 H         1 RES1    0.0000
     12 C1         1.3208    3.8788   11.4299 C.3       1 RES1    0.0000
     13 H3         0.4312    4.1979   11.6445 H         1 RES1    0.0000
     14 H4         1.9207    4.0827   12.1636 H         1 RES1    0.0000
     15 C2         1.3145    2.3861   11.1179 C.3       1 RES1    0.0000
     16 H5         2.2139    2.0240   11.0905 H         1 RES1    0.0000
     17 H6         0.7885    1.8895   11.7648 H         1 RES1    0.0000
     18 C3         0.6694    2.3750    9.7540 C.3       1 RES1    0.0000
     19 H7        -0.2950    2.5207    9.8499 H         1 RES1    0.0000
     20 C4         1.2964    3.5833    9.0599 C.3       1 RES1    0.0000
     21 H8         2.0542    3.2781    8.5180 H         1 RES1    0.0000
     22 C5         0.3906    4.4615    8.1953 C.3       1 RES1    0.0000
     23 H9        -0.4330    3.9801    7.9700 H         1 RES1    0.0000
     24 C6        -0.1570    7.0154    8.4480 C.3       1 RES1    0.0000
     25 H10       -0.9356    6.9683    7.8894 H         1 RES1    0.0000
     26 H11        0.6072    7.2429    7.9152 H         1 RES1    0.0000
     27 H12       -0.2869    7.6855    9.1238 H         1 RES1    0.0000
     28 C7         0.0749    5.6531    9.1177 C.3       1 RES1    0.0000
     29 C8         1.0799    4.9151    6.9456 C.2       1 RES1    0.0000
     30 C9         0.3933    0.0153    9.5135 C.3       1 RES1    0.0000
     31 H13       -0.4917    0.1623    9.8819 H         1 RES1    0.0000
     32 H14        0.9789   -0.2719   10.2320 H         1 RES1    0.0000
     33 C10        0.3356   -1.0377    8.4541 C.ar      1 RES1    0.0000
     34 C11        1.2495   -2.0629    8.3810 C.ar      1 RES1    0.0000
     35 H15        1.9171   -2.1308    9.0249 H         1 RES1    0.0000
     36 C12        1.1882   -2.9937    7.3612 C.ar      1 RES1    0.0000
     37 H16        1.8089   -3.6860    7.3292 H         1 RES1    0.0000
     38 C13        0.2129   -2.9049    6.3915 C.ar      1 RES1    0.0000
     39 H17        0.1741   -3.5334    5.7066 H         1 RES1    0.0000
     40 C14       -0.6947   -1.8881    6.4433 C.ar      1 RES1    0.0000
     41 H18       -1.3542   -1.8215    5.7918 H         1 RES1    0.0000
     42 C15       -0.6369   -0.9572    7.4586 C.ar      1 RES1    0.0000
     43 H19       -1.2567   -0.2650    7.4814 H         1 RES1    0.0000
     44 C16       -3.2983    4.7486   10.1224 C.2       1 RES1    0.0000
     45 C17        0.8968    7.2194    4.8313 C.3       1 RES1    0.0000
     46 H20        1.2558    7.5578    4.0078 H         1 RES1    0.0000
     47 H21        1.4922    7.4358    5.5528 H         1 RES1    0.0000
     48 H22        0.0388    7.6189    4.9942 H         1 RES1    0.0000
     49 C18        0.7443    5.7308    4.7354 C.3       1 RES1    0.0000
     50 H23        0.1507    5.5130    4.0002 H         1 RES1    0.0000
     51 H24        1.6086    5.3285    4.5558 H         1 RES1    0.0000
@<TRIPOS>BOND
     1    1   18 1
     2    2   29 2
     3    3   29 1
     4    4    6 1
     5    5   44 2
     6    6   12 1
     7    7    8 2
     8    8   44 1
     9    9   10 1
    10   11    9 1
    11   12   13 1
    12   14   12 1
    13   15   12 1
    14   16   15 1
    15   17   15 1
    16   18   15 1
    17   19   18 1
    18   20    6 1
    19   21   20 1
    20   22   20 1
    21   23   22 1
    22   24   25 1
    23   26   24 1
    24   27   24 1
    25   28    4 1
    26   29   22 1
    27   30    1 1
    28   31   30 1
    29   32   30 1
    30   33   30 1
    31   34   33 ar
    32   35   34 1
    33   36   34 ar
    34   37   36 1
    35   38   36 ar
    36   39   38 1
    37   40   38 ar
    38   41   40 1
    39   42   33 ar
    40   43   42 1
    41   44    9 1
    42   45   46 1
    43   47   45 1
    44   48   45 1
    45   49    3 1
    46   50   49 1
    47   51   49 1
    48    7   28 1
    49   18   20 1
    50   22   28 1
    51   24   28 1
    52   40   42 ar
    53   45   49 1
@<TRIPOS>SUBSTRUCTURE
     1 RES1 1

@<TRIPOS>CRYSIN
   9.0217   13.8727   15.2216  90.0000  90.0000  90.0000  19 1

