# MOL2 file generated by ConQuest
# Please check atom types

@<TRIPOS>MOLECULE
DOSVOY
    24    26     1
SMALL
NO_CHARGES
****
Generated from CSD

@<TRIPOS>ATOM
      1 C1         2.9576    2.0263   12.0865 C.ar      1 RES1    0.0000
      2 H1         3.5931    2.2858   12.7140 H         1 RES1    0.0000
      3 C2         1.5907    2.1121   12.3475 C.ar      1 RES1    0.0000
      4 H2         1.3075    2.4246   13.1754 H         1 RES1    0.0000
      5 C3         0.6458    1.7443   11.4076 C.ar      1 RES1    0.0000
      6 H3        -0.2585    1.8119   11.6134 H         1 RES1    0.0000
      7 C4         1.0295    1.2785   10.1726 C.ar      1 RES1    0.0000
      8 H4         0.3915    1.0430    9.5381 H         1 RES1    0.0000
      9 C5         2.3826    1.1658    9.8868 C.ar      1 RES1    0.0000
     10 C6         3.0863    0.7203    8.6980 C.ar      1 RES1    0.0000
     11 C7         2.6362    0.2442    7.4750 C.ar      1 RES1    0.0000
     12 H5         1.7241    0.1810    7.3005 H         1 RES1    0.0000
     13 C8         3.5564   -0.1330    6.5229 C.ar      1 RES1    0.0000
     14 H6         3.2651   -0.4528    5.7004 H         1 RES1    0.0000
     15 C9         4.9213   -0.0378    6.7852 C.ar      1 RES1    0.0000
     16 H7         5.5256   -0.3038    6.1307 H         1 RES1    0.0000
     17 C10        5.4029    0.4404    7.9908 C.ar      1 RES1    0.0000
     18 H8         6.3160    0.5030    8.1592 H         1 RES1    0.0000
     19 C11        4.4624    0.8213    8.9384 C.ar      1 RES1    0.0000
     20 N1         4.6048    1.3288   10.2616 N.pl3     1 RES1    0.0000
     21 C12        3.3183    1.5379   10.8486 C.ar      1 RES1    0.0000
     22 N2         5.7975    1.6299   10.8674 N.pl3     1 RES1    0.0000
     23 O1         6.8105    1.5275   10.1933 O.2       1 RES1    0.0000
     24 O2         5.7556    1.9833   12.0358 O.2       1 RES1    0.0000
@<TRIPOS>BOND
     1    1    2 1
     2    3    1 ar
     3    4    3 1
     4    5    3 ar
     5    6    5 1
     6    7    5 ar
     7    8    7 1
     8    9    7 ar
     9   10    9 1
    10   11   10 ar
    11   12   11 1
    12   13   11 ar
    13   14   13 1
    14   15   13 ar
    15   16   15 1
    16   17   15 ar
    17   18   17 1
    18   19   10 ar
    19   20   19 1
    20   21    1 ar
    21   22   20 1
    22   23   22 2
    23   24   22 2
    24    9   21 ar
    25   17   19 ar
    26   20   21 1
@<TRIPOS>SUBSTRUCTURE
     1 RES1 1

@<TRIPOS>CRYSIN
  14.7742    7.2681   17.2792  90.0000  90.0000  90.0000  61 1

