# MOL2 file generated by ConQuest
# Please check atom types

@<TRIPOS>MOLECULE
DOTJUR
    44    45     1
SMALL
NO_CHARGES
****
Generated from CSD

@<TRIPOS>ATOM
      1 C1         6.3163    2.9873    5.3754 C.3       1 RES1    0.0000
      2 C2         6.3778    2.7230    6.8793 C.3       1 RES1    0.0000
      3 C3         5.9464    4.0523    7.4467 C.3       1 RES1    0.0000
      4 C4         5.0412    6.0612    6.1997 C.2       1 RES1    0.0000
      5 C5         6.2807    6.5362    5.4677 C.3       1 RES1    0.0000
      6 C6         5.9885    6.7014    3.9724 C.3       1 RES1    0.0000
      7 C7         5.8503    5.3391    3.2928 C.3       1 RES1    0.0000
      8 C8         4.7408    4.4534    3.8518 C.3       1 RES1    0.0000
      9 C9         4.9848    3.7456    5.1967 C.3       1 RES1    0.0000
     10 C10        4.8278    4.5887    6.5147 C.3       1 RES1    0.0000
     11 C11        3.4535    4.3575    7.1261 C.3       1 RES1    0.0000
     12 C12        7.0361    7.6437    3.2729 C.3       1 RES1    0.0000
     13 C13        7.0034    9.0312    3.9440 C.3       1 RES1    0.0000
     14 C14        6.6575    7.8026    1.8032 C.3       1 RES1    0.0000
     15 C15        8.4553    7.0695    3.3822 C.3       1 RES1    0.0000
     16 O1         4.3775    8.2368    6.2181 O.3       1 RES1    0.0000
     17 N1         4.1216    6.8792    6.5700 N.2       1 RES1    0.0000
     18 H1         6.1455    2.1284    4.7512 H         1 RES1    0.0000
     19 H2         6.8631    3.9784    4.8250 H         1 RES1    0.0000
     20 H3         5.7583    1.8547    7.1006 H         1 RES1    0.0000
     21 H4         7.3334    2.4509    7.3077 H         1 RES1    0.0000
     22 H5         5.5617    3.9202    8.4483 H         1 RES1    0.0000
     23 H6         6.7821    4.7398    7.4680 H         1 RES1    0.0000
     24 H7         6.4973    7.2866    6.0578 H         1 RES1    0.0000
     25 H8         7.0949    5.7277    5.7060 H         1 RES1    0.0000
     26 H9         4.9868    7.0113    3.9298 H         1 RES1    0.0000
     27 H10        6.8445    4.7492    3.4772 H         1 RES1    0.0000
     28 H11        5.6170    5.5468    2.2586 H         1 RES1    0.0000
     29 H12        4.6548    3.5505    3.1665 H         1 RES1    0.0000
     30 H13        3.6115    4.5997    4.0561 H         1 RES1    0.0000
     31 H14        4.2262    2.8552    5.3556 H         1 RES1    0.0000
     32 H15        3.2667    5.1031    7.8865 H         1 RES1    0.0000
     33 H16        3.4142    3.3743    7.5702 H         1 RES1    0.0000
     34 H17        2.6989    4.4346    6.3572 H         1 RES1    0.0000
     35 H18        7.2694    8.9352    4.9853 H         1 RES1    0.0000
     36 H19        6.0048    9.4449    3.8631 H         1 RES1    0.0000
     37 H20        7.7026    9.6871    3.4503 H         1 RES1    0.0000
     38 H21        6.6782    6.8367    1.3194 H         1 RES1    0.0000
     39 H22        7.3631    8.4633    1.3180 H         1 RES1    0.0000
     40 H23        5.6653    8.2210    1.7308 H         1 RES1    0.0000
     41 H24        8.7147    6.9594    4.4235 H         1 RES1    0.0000
     42 H25        9.1541    7.7412    2.9027 H         1 RES1    0.0000
     43 H26        8.4892    6.1052    2.8970 H         1 RES1    0.0000
     44 H27        4.5915    9.1381    6.7601 H         1 RES1    0.0000
@<TRIPOS>BOND
     1    1    2 1
     2    2    3 1
     3    3   10 1
     4    4    5 1
     5    5    6 1
     6    6    7 1
     7    7    8 1
     8    8    9 1
     9    9    1 1
    10   10    4 1
    11   11   10 1
    12   12    6 1
    13   13   12 1
    14   14   12 1
    15   15   12 1
    16   16   17 1
    17   17    4 2
    18   18    1 1
    19   19    1 1
    20   20    2 1
    21   21    2 1
    22   22    3 1
    23   23    3 1
    24   24    5 1
    25   25    5 1
    26   26    6 1
    27   27    7 1
    28   28    7 1
    29   29    8 1
    30   30    8 1
    31   31    9 1
    32   32   11 1
    33   33   11 1
    34   34   11 1
    35   35   13 1
    36   36   13 1
    37   37   13 1
    38   38   14 1
    39   39   14 1
    40   40   14 1
    41   41   15 1
    42   42   15 1
    43   43   15 1
    44   44   16 1
    45    9   10 1
@<TRIPOS>SUBSTRUCTURE
     1 RES1 1

@<TRIPOS>CRYSIN
   6.5850   15.7310   14.1930  90.0000  91.6700  90.0000 231 1

