# MOL2 file generated by ConQuest
# Please check atom types

@<TRIPOS>MOLECULE
DOTKAY
    40    41     1
SMALL
NO_CHARGES
****
Generated from CSD

@<TRIPOS>ATOM
      1 C1         0.9229    3.0403    5.1218 C.3       1 RES1    0.0000
      2 C2         2.0576    3.2263    4.2197 C.3       1 RES1    0.0000
      3 C3         1.4738    3.6077    2.9050 C.3       1 RES1    0.0000
      4 C4        -0.8736    3.3807    1.8825 C.2       1 RES1    0.0000
      5 C5        -2.2699    2.8437    1.9246 C.3       1 RES1    0.0000
      6 C6        -3.1856    3.7517    2.7590 C.3       1 RES1    0.0000
      7 C7        -2.8352    3.6592    4.2430 C.3       1 RES1    0.0000
      8 C8        -1.3725    3.9430    4.6322 C.3       1 RES1    0.0000
      9 C9        -0.3643    2.8700    4.3085 C.3       1 RES1    0.0000
     10 C10        0.1470    2.8763    2.8466 C.3       1 RES1    0.0000
     11 C11       -4.6881    3.5258    2.4727 C.3       1 RES1    0.0000
     12 C12       -4.9628    3.8579    0.9956 C.3       1 RES1    0.0000
     13 C13       -5.1099    2.0892    2.7531 C.3       1 RES1    0.0000
     14 C14       -5.5337    4.4821    3.3269 C.3       1 RES1    0.0000
     15 N1        -0.4909    4.2835    1.0482 N.2       1 RES1    0.0000
     16 O1        -1.5130    4.7007    0.1648 O.3       1 RES1    0.0000
     17 H1         0.8483    3.4028    6.1571 H         1 RES1    0.0000
     18 H2         1.2569    2.1585    5.6476 H         1 RES1    0.0000
     19 H3         3.0409    3.3671    4.2898 H         1 RES1    0.0000
     20 H4         2.5739    2.4591    4.7782 H         1 RES1    0.0000
     21 H5         2.1329    3.7559    2.1560 H         1 RES1    0.0000
     22 H6         1.1792    4.6313    2.7274 H         1 RES1    0.0000
     23 H7        -2.2105    1.7844    2.3301 H         1 RES1    0.0000
     24 H8        -2.3734    2.7901    0.8075 H         1 RES1    0.0000
     25 H9        -2.8102    4.8352    2.4820 H         1 RES1    0.0000
     26 H10       -3.3661    4.3518    4.7957 H         1 RES1    0.0000
     27 H11       -3.1166    2.5474    4.4966 H         1 RES1    0.0000
     28 H12       -1.3027    4.3696    5.6161 H         1 RES1    0.0000
     29 H13       -1.3529    5.0737    4.1974 H         1 RES1    0.0000
     30 H14       -0.7122    1.8590    4.7268 H         1 RES1    0.0000
     31 H15        0.4590    1.8139    2.5895 H         1 RES1    0.0000
     32 H16       -5.8475    3.8242    0.6439 H         1 RES1    0.0000
     33 H17       -4.4326    4.7847    0.7525 H         1 RES1    0.0000
     34 H18       -6.0576    1.9200    2.4762 H         1 RES1    0.0000
     35 H19       -5.0369    1.9347    3.8866 H         1 RES1    0.0000
     36 H20       -4.4727    1.4177    2.1969 H         1 RES1    0.0000
     37 H21       -6.6292    4.3308    2.9892 H         1 RES1    0.0000
     38 H22       -4.9344    5.4027    3.1399 H         1 RES1    0.0000
     39 H23       -5.6812    4.4043    4.3938 H         1 RES1    0.0000
     40 H24       -0.9914    5.4878   -0.5165 H         1 RES1    0.0000
@<TRIPOS>BOND
     1    1    2 1
     2    2    3 1
     3    3   10 1
     4    4    5 1
     5    5    6 1
     6    6    7 1
     7    7    8 1
     8    8    9 1
     9    9    1 1
    10   10    4 1
    11   11    6 1
    12   12   11 1
    13   13   11 1
    14   14   11 1
    15   15    4 2
    16   16   15 1
    17   17    1 1
    18   18    1 1
    19   19    2 1
    20   20    2 1
    21   21    3 1
    22   22    3 1
    23   23    5 1
    24   24    5 1
    25   25    6 1
    26   26    7 1
    27   27    7 1
    28   28    8 1
    29   29    8 1
    30   30    9 1
    31   31   10 1
    32   32   12 1
    33   33   12 1
    34   34   13 1
    35   35   13 1
    36   36   13 1
    37   37   14 1
    38   38   14 1
    39   39   14 1
    40   40   16 1
    41    9   10 1
@<TRIPOS>SUBSTRUCTURE
     1 RES1 1

@<TRIPOS>CRYSIN
  11.3180   10.5090   12.3500  90.0000 108.8800  90.0000  14 1

