# MOL2 file generated by ConQuest
# Please check atom types

@<TRIPOS>MOLECULE
DOTQOT
    37    37     1
SMALL
NO_CHARGES
****
Generated from CSD

@<TRIPOS>ATOM
      1 C1        25.0983    4.8214    6.8124 C.ar      1 RES1    0.0000
      2 C2        25.8714    4.5146    7.9625 C.ar      1 RES1    0.0000
      3 C3        25.4088    4.8057    9.2211 C.ar      1 RES1    0.0000
      4 H1        25.9279    4.5952    9.9899 H         1 RES1    0.0000
      5 C4        24.1600    5.4177    9.3473 C.ar      1 RES1    0.0000
      6 C5        23.3868    5.7423    8.2437 C.ar      1 RES1    0.0000
      7 H2        22.5398    6.1610    8.3552 H         1 RES1    0.0000
      8 C6        23.8621    5.4490    6.9791 C.ar      1 RES1    0.0000
      9 H3        23.3445    5.6759    6.2174 H         1 RES1    0.0000
     10 C7        27.9150    3.6093    8.7864 C.3       1 RES1    0.0000
     11 H4        27.4807    2.9361    9.3696 H         1 RES1    0.0000
     12 H5        28.0877    4.4243    9.3221 H         1 RES1    0.0000
     13 C8        29.2185    3.0630    8.2282 C.3       1 RES1    0.0000
     14 H6        29.0430    2.1681    7.8172 H         1 RES1    0.0000
     15 C9        30.0476    5.2520    7.6738 C.3       1 RES1    0.0000
     16 H7        30.3558    5.2766    8.6147 H         1 RES1    0.0000
     17 H8        29.2124    5.7789    7.6020 H         1 RES1    0.0000
     18 C10       31.1021    5.8215    6.7662 C.3       1 RES1    0.0000
     19 H9        31.9275    5.2975    6.8535 H         1 RES1    0.0000
     20 H10       31.2781    6.7529    7.0149 H         1 RES1    0.0000
     21 H11       30.7887    5.7856    5.8376 H         1 RES1    0.0000
     22 C11       31.2560    2.2017    9.1094 C.3       1 RES1    0.0000
     23 H12       31.7110    2.6032    8.3252 H         1 RES1    0.0000
     24 H13       31.0758    1.2486    8.9107 H         1 RES1    0.0000
     25 C12       32.1265    2.3159   10.3135 C.3       1 RES1    0.0000
     26 H14       32.2851    3.2623   10.5152 H         1 RES1    0.0000
     27 H15       32.9816    1.8726   10.1402 H         1 RES1    0.0000
     28 H16       31.6875    1.8875   11.0770 H         1 RES1    0.0000
     29 N1        25.5933    4.5109    5.5920 N.3       1 RES1    0.0000
     30 H17       26.2949    4.0974    5.5543 H         1 RES1    0.0000
     31 H18       25.1185    4.6422    4.8185 H         1 RES1    0.0000
     32 N2        23.6616    5.6961   10.6645 N.pl3     1 RES1    0.0000
     33 O1        24.3698    5.4319   11.6427 O.2       1 RES1    0.0000
     34 O2        22.5384    6.1939   10.7778 O.2       1 RES1    0.0000
     35 O3        27.0704    3.9169    7.6754 O.3       1 RES1    0.0000
     36 O4        29.8147    3.8940    7.2626 O.3       1 RES1    0.0000
     37 O5        30.0264    2.8875    9.3669 O.3       1 RES1    0.0000
@<TRIPOS>BOND
     1    1    2 ar
     2    2    3 ar
     3    3    4 1
     4    5    3 ar
     5    6    5 ar
     6    7    6 1
     7    8    1 ar
     8    9    8 1
     9   10   11 1
    10   12   10 1
    11   13   10 1
    12   14   13 1
    13   15   16 1
    14   17   15 1
    15   18   15 1
    16   19   18 1
    17   20   18 1
    18   21   18 1
    19   22   23 1
    20   24   22 1
    21   25   22 1
    22   26   25 1
    23   27   25 1
    24   28   25 1
    25   29    1 1
    26   30   29 1
    27   31   29 1
    28   32    5 1
    29   33   32 2
    30   34   32 2
    31   35    2 1
    32   36   13 1
    33   37   13 1
    34    6    8 ar
    35   10   35 1
    36   15   36 1
    37   22   37 1
@<TRIPOS>SUBSTRUCTURE
     1 RES1 1

@<TRIPOS>CRYSIN
  47.0560    7.4634   15.8243  90.0000  90.0000  90.0000  43 1

