# MOL2 file generated by ConQuest
# Please check atom types

@<TRIPOS>MOLECULE
DOTTOV
    56    58     1
SMALL
NO_CHARGES
****
Generated from CSD

@<TRIPOS>ATOM
      1 C1         8.1509    7.2607    4.7395 C.2       1 RES1    0.0000
      2 C2         8.6929    6.0185    4.6614 C.2       1 RES1    0.0000
      3 C3         8.5799    5.1766    3.3922 C.3       1 RES1    0.0000
      4 C4         8.2286    6.0580    2.1926 C.2       1 RES1    0.0000
      5 C5         7.7201    7.3002    2.3544 C.2       1 RES1    0.0000
      6 C6         8.1015    8.1438    5.9474 C.3       1 RES1    0.0000
      7 C7         7.2328    8.2366    1.2860 C.3       1 RES1    0.0000
      8 C8         9.3877    5.4704    5.8219 C.2       1 RES1    0.0000
      9 C9        10.8090    3.7678    6.6392 C.3       1 RES1    0.0000
     10 C10       11.5894    2.6046    6.1399 C.3       1 RES1    0.0000
     11 C11        8.3813    5.4945    0.8508 C.2       1 RES1    0.0000
     12 C12        8.9445    3.5170   -0.3599 C.3       1 RES1    0.0000
     13 C13        7.8207    2.6390   -0.5635 C.3       1 RES1    0.0000
     14 C14        7.5629    4.0616    3.5763 C.2       1 RES1    0.0000
     15 C15        6.2237    4.2351    3.7381 C.2       1 RES1    0.0000
     16 C16        7.7324    2.6390    3.6683 C.2       1 RES1    0.0000
     17 C17        8.9207    1.7576    3.6097 C.ar      1 RES1    0.0000
     18 C18        8.9039    0.5704    4.3546 C.ar      1 RES1    0.0000
     19 C19        9.9386   -0.3333    4.2458 C.ar      1 RES1    0.0000
     20 C20       11.0059   -0.0859    3.4117 C.ar      1 RES1    0.0000
     21 C21       11.0509    1.1047    2.7003 C.ar      1 RES1    0.0000
     22 C22       10.0233    2.0188    2.8035 C.ar      1 RES1    0.0000
     23 C23        5.3171    5.4051    3.8329 C.3       1 RES1    0.0000
     24 N1         7.6115    7.8363    3.6153 N.pl3     1 RES1    0.0000
     25 N2         6.5830    2.0325    3.8441 N.2       1 RES1    0.0000
     26 O1         9.4336    5.9481    6.9322 O.2       1 RES1    0.0000
     27 O2        10.0427    4.3245    5.5346 O.3       1 RES1    0.0000
     28 O3         8.1791    6.0391   -0.1925 O.2       1 RES1    0.0000
     29 O4         8.8254    4.2351    0.8871 O.3       1 RES1    0.0000
     30 O5         5.6093    3.0342    3.8859 O.3       1 RES1    0.0000
     31 H1         9.4310    4.7694    3.2164 H         1 RES1    0.0000
     32 H2         8.9666    8.2692    6.3436 H         1 RES1    0.0000
     33 H3         7.5047    7.7641    6.5946 H         1 RES1    0.0000
     34 H4         7.7580    8.9891    5.6517 H         1 RES1    0.0000
     35 H5         6.9379    7.7555    0.5105 H         1 RES1    0.0000
     36 H6         7.9452    8.8328    1.0433 H         1 RES1    0.0000
     37 H7         6.5009    8.7434    1.6459 H         1 RES1    0.0000
     38 H8        11.4075    4.4344    6.9852 H         1 RES1    0.0000
     39 H9        10.2122    3.4826    7.3339 H         1 RES1    0.0000
     40 H10       12.0952    2.2301    6.8652 H         1 RES1    0.0000
     41 H11       12.1897    2.9087    5.4565 H         1 RES1    0.0000
     42 H12       11.0032    1.9363    5.7801 H         1 RES1    0.0000
     43 H13        9.7514    2.9964   -0.3459 H         1 RES1    0.0000
     44 H14        8.9834    4.1492   -1.0824 H         1 RES1    0.0000
     45 H15        8.0017    2.0669   -1.3111 H         1 RES1    0.0000
     46 H16        7.0889    3.2232   -0.7755 H         1 RES1    0.0000
     47 H17        7.5912    2.1030    0.2009 H         1 RES1    0.0000
     48 H18        8.1668    0.3866    4.9404 H         1 RES1    0.0000
     49 H19        9.9156   -1.1443    4.7618 H         1 RES1    0.0000
     50 H20       11.7121   -0.7302    3.3224 H         1 RES1    0.0000
     51 H21       11.8013    1.2920    2.1313 H         1 RES1    0.0000
     52 H22       10.0692    2.8435    2.3126 H         1 RES1    0.0000
     53 H23        5.5431    6.0134    3.1244 H         1 RES1    0.0000
     54 H24        5.4486    5.8381    4.6809 H         1 RES1    0.0000
     55 H25        4.3981    5.1423    3.7464 H         1 RES1    0.0000
     56 H26        7.2813    8.6472    3.7297 H         1 RES1    0.0000
@<TRIPOS>BOND
     1    1    2 2
     2    2    3 1
     3    3    4 1
     4    4    5 2
     5    5    7 1
     6    6    1 1
     7    7   35 1
     8    8    2 1
     9    9   10 1
    10   10   40 1
    11   11    4 1
    12   12   13 1
    13   13   45 1
    14   14    3 1
    15   15   14 2
    16   16   14 1
    17   17   16 1
    18   18   17 ar
    19   19   18 ar
    20   20   19 ar
    21   21   20 ar
    22   22   17 ar
    23   23   15 1
    24   24    1 1
    25   25   16 2
    26   26    8 2
    27   27    8 1
    28   28   11 2
    29   29   11 1
    30   30   15 1
    31   31    3 1
    32   32    6 1
    33   33    6 1
    34   34    6 1
    35   36    7 1
    36   37    7 1
    37   38    9 1
    38   39    9 1
    39   41   10 1
    40   42   10 1
    41   43   12 1
    42   44   12 1
    43   46   13 1
    44   47   13 1
    45   48   18 1
    46   49   19 1
    47   50   20 1
    48   51   21 1
    49   52   22 1
    50   53   23 1
    51   54   23 1
    52   55   23 1
    53   56   24 1
    54    5   24 1
    55    9   27 1
    56   12   29 1
    57   21   22 ar
    58   25   30 1
@<TRIPOS>SUBSTRUCTURE
     1 RES1 1

@<TRIPOS>CRYSIN
   8.8280   17.1810   27.8960  90.0000  90.0000  90.0000  61 1

