# MOL2 file generated by ConQuest
# Please check atom types

@<TRIPOS>MOLECULE
DOVCIB
    52    54     1
SMALL
NO_CHARGES
****
Generated from CSD

@<TRIPOS>ATOM
      1 O1         3.8700    1.6861    7.7581 O.2       1 RES1    0.0000
      2 O2         4.3623   -0.0909    8.8949 O.2       1 RES1    0.0000
      3 O3         0.0281    2.2197   12.0242 O.2       1 RES1    0.0000
      4 O4         1.1193    1.8696   13.8249 O.2       1 RES1    0.0000
      5 O5         5.4358    3.8108   13.8767 O.2       1 RES1    0.0000
      6 O6         6.4532    4.3017   12.0489 O.2       1 RES1    0.0000
      7 N1         4.0213    1.0780    8.7969 N.pl3     1 RES1    0.0000
      8 N2         1.0669    2.0581   12.6390 N.pl3     1 RES1    0.0000
      9 N3         5.5733    3.7375   12.6689 N.pl3     1 RES1    0.0000
     10 C1         8.7565    3.6840    8.8851 C.ar      1 RES1    0.0000
     11 H1         8.7319    3.6149    9.8127 H         1 RES1    0.0000
     12 C2         9.9253    4.0578    8.2651 C.ar      1 RES1    0.0000
     13 H2        10.6728    4.2538    8.7831 H         1 RES1    0.0000
     14 C3        10.0155    4.1478    6.8916 C.ar      1 RES1    0.0000
     15 C4        11.3057    4.5483    6.2097 C.3       1 RES1    0.0000
     16 H3        11.8443    5.0602    6.8178 H         1 RES1    0.0000
     17 H4        11.1073    5.0780    5.4346 H         1 RES1    0.0000
     18 H5        11.7858    3.7596    5.9445 H         1 RES1    0.0000
     19 C5         8.8784    3.8870    6.1591 C.ar      1 RES1    0.0000
     20 H6         8.9103    3.9462    5.2319 H         1 RES1    0.0000
     21 C6         7.6922    3.5394    6.7746 C.ar      1 RES1    0.0000
     22 H7         6.9355    3.3917    6.2550 H         1 RES1    0.0000
     23 C7         7.6098    3.4071    8.1479 C.ar      1 RES1    0.0000
     24 C8         6.3279    3.0633    8.7611 C.2       1 RES1    0.0000
     25 H8         5.5706    3.1672    8.2311 H         1 RES1    0.0000
     26 C9         6.1339    2.6206    9.9897 C.2       1 RES1    0.0000
     27 H9         6.8843    2.3830   10.4843 H         1 RES1    0.0000
     28 C10        4.8173    2.4743   10.6381 C.ar      1 RES1    0.0000
     29 C11        3.7495    1.7810   10.0673 C.ar      1 RES1    0.0000
     30 C12        2.4783    1.5910   10.6335 C.ar      1 RES1    0.0000
     31 C13        2.3417    2.1440   11.9116 C.ar      1 RES1    0.0000
     32 C14        3.3556    2.7958   12.5689 C.ar      1 RES1    0.0000
     33 H10        3.2310    3.1146   13.4340 H         1 RES1    0.0000
     34 C15        4.5551    2.9673   11.9265 C.ar      1 RES1    0.0000
     35 C16        1.4054    0.7919   10.0285 C.2       1 RES1    0.0000
     36 H11        0.8642    0.3251   10.6245 H         1 RES1    0.0000
     37 C17        1.1087    0.6487    8.7561 C.2       1 RES1    0.0000
     38 H12        1.6505    1.0973    8.1471 H         1 RES1    0.0000
     39 C18        0.0092   -0.1483    8.1998 C.ar      1 RES1    0.0000
     40 C19        0.0291   -0.4783    6.8636 C.ar      1 RES1    0.0000
     41 H13        0.7388   -0.1921    6.3359 H         1 RES1    0.0000
     42 C20       -0.9745   -1.2182    6.2933 C.ar      1 RES1    0.0000
     43 H14       -0.9260   -1.4317    5.3893 H         1 RES1    0.0000
     44 C21       -2.0525   -1.6544    7.0302 C.ar      1 RES1    0.0000
     45 C22       -3.1708   -2.4324    6.3844 C.3       1 RES1    0.0000
     46 H15       -3.5111   -3.0787    7.0075 H         1 RES1    0.0000
     47 H16       -2.8374   -2.8831    5.6049 H         1 RES1    0.0000
     48 H17       -3.8743   -1.8318    6.1310 H         1 RES1    0.0000
     49 C23       -2.0809   -1.3282    8.3669 C.ar      1 RES1    0.0000
     50 H18       -2.7971   -1.6090    8.8888 H         1 RES1    0.0000
     51 C24       -1.0674   -0.5933    8.9480 C.ar      1 RES1    0.0000
     52 H19       -1.1081   -0.3947    9.8558 H         1 RES1    0.0000
@<TRIPOS>BOND
     1    1    7 2
     2    2    7 2
     3    3    8 2
     4    4    8 2
     5    5    9 2
     6    6    9 2
     7    7   29 1
     8    8   31 1
     9    9   34 1
    10   10   11 1
    11   12   10 ar
    12   13   12 1
    13   14   12 ar
    14   15   14 1
    15   16   15 1
    16   17   15 1
    17   18   15 1
    18   19   14 ar
    19   20   19 1
    20   21   19 ar
    21   22   21 1
    22   23   10 ar
    23   24   23 1
    24   25   24 1
    25   26   24 2
    26   27   26 1
    27   28   26 1
    28   29   28 ar
    29   30   29 ar
    30   31   30 ar
    31   32   31 ar
    32   33   32 1
    33   34   28 ar
    34   35   30 1
    35   36   35 1
    36   37   35 2
    37   38   37 1
    38   39   37 1
    39   40   39 ar
    40   41   40 1
    41   42   40 ar
    42   43   42 1
    43   44   42 ar
    44   45   44 1
    45   46   45 1
    46   47   45 1
    47   48   45 1
    48   49   44 ar
    49   50   49 1
    50   51   39 ar
    51   52   51 1
    52   21   23 ar
    53   32   34 ar
    54   49   51 ar
@<TRIPOS>SUBSTRUCTURE
     1 RES1 1

@<TRIPOS>CRYSIN
   9.3280   11.1953   12.3666 116.1080  95.1460 105.5230   2 1

