# MOL2 file generated by ConQuest
# Please check atom types

@<TRIPOS>MOLECULE
DOVHAY
    47    49     1
SMALL
NO_CHARGES
****
Generated from CSD

@<TRIPOS>ATOM
      1 O1        -0.4911    5.6778    6.0875 O.3       1 RES1    0.0000
      2 O2        -0.6280    7.2928    9.1749 O.2       1 RES1    0.0000
      3 C1        -0.7111    6.4018    8.3435 C.2       1 RES1    0.0000
      4 O3        -3.6774    5.6593   12.1524 O.2       1 RES1    0.0000
      5 C2        -1.3470    5.0418    8.5949 C.3       1 RES1    0.0000
      6 H1        -1.9540    4.8282    7.8297 H         1 RES1    0.0000
      7 O4        -5.3665    6.5407   10.9679 O.3       1 RES1    0.0000
      8 C3        -0.2588    3.9686    8.6659 C.3       1 RES1    0.0000
      9 H2         0.2357    3.9489    7.8197 H         1 RES1    0.0000
     10 H3        -0.6720    3.0937    8.8232 H         1 RES1    0.0000
     11 H4         0.3567    4.1764    9.3990 H         1 RES1    0.0000
     12 C4        -2.1754    5.0545    9.8830 C.3       1 RES1    0.0000
     13 H5        -2.3265    4.1206   10.1752 H         1 RES1    0.0000
     14 H6        -1.6581    5.5116   10.5918 H         1 RES1    0.0000
     15 C5        -3.5267    5.7500    9.7305 C.3       1 RES1    0.0000
     16 H7        -3.3717    6.6468    9.3159 H         1 RES1    0.0000
     17 C6        -4.4836    4.9638    8.8282 C.3       1 RES1    0.0000
     18 H8        -5.3102    5.4756    8.7040 H         1 RES1    0.0000
     19 H9        -4.6921    4.1020    9.2458 H         1 RES1    0.0000
     20 H10       -4.0605    4.8107    7.9579 H         1 RES1    0.0000
     21 C7        -4.1694    5.9589   11.0876 C.2       1 RES1    0.0000
     22 C8        -6.0978    6.7889   12.1912 C.3       1 RES1    0.0000
     23 H11       -7.0041    7.0908   11.9749 H         1 RES1    0.0000
     24 H12       -5.6378    7.4801   12.7120 H         1 RES1    0.0000
     25 H13       -6.1458    5.9622   12.7160 H         1 RES1    0.0000
     26 N1        -0.0840    6.5676    7.1223 N.am      1 RES1    0.0000
     27 C9        -1.3577    6.4959    5.2739 C.3       1 RES1    0.0000
     28 H14       -2.2319    6.6391    5.7165 H         1 RES1    0.0000
     29 H15       -1.5086    6.0836    4.3876 H         1 RES1    0.0000
     30 O5         1.3629    8.8268    4.1071 O.3       1 RES1    0.0000
     31 C10       -0.5892    7.8016    5.1467 C.3       1 RES1    0.0000
     32 H16       -1.2136    8.5660    4.9864 H         1 RES1    0.0000
     33 C11        0.4597    7.7250    4.0531 C.3       1 RES1    0.0000
     34 H17        0.9684    6.8808    4.1482 H         1 RES1    0.0000
     35 H18        0.0114    7.7130    3.1707 H         1 RES1    0.0000
     36 C12        2.0706    8.8624    5.2879 C.ar      1 RES1    0.0000
     37 C13        3.3500    9.4201    5.2448 C.ar      1 RES1    0.0000
     38 H19        3.6913    9.7832    4.4356 H         1 RES1    0.0000
     39 C14        4.1171    9.4376    6.4046 C.ar      1 RES1    0.0000
     40 H20        4.9874    9.8193    6.3905 H         1 RES1    0.0000
     41 C15        3.6146    8.8974    7.5853 C.ar      1 RES1    0.0000
     42 H21        4.1555    8.8799    8.3665 H         1 RES1    0.0000
     43 C16        2.3280    8.3867    7.6224 C.ar      1 RES1    0.0000
     44 H22        1.9813    8.0477    8.4396 H         1 RES1    0.0000
     45 C17        1.5314    8.3636    6.4717 C.ar      1 RES1    0.0000
     46 C18        0.0831    7.9227    6.5382 C.3       1 RES1    0.0000
     47 H23       -0.4305    8.5791    7.0906 H         1 RES1    0.0000
@<TRIPOS>BOND
     1    1   26 1
     2    2    3 2
     3    3    5 1
     4    4   21 2
     5    5    6 1
     6    7   21 1
     7    8    5 1
     8    9    8 1
     9   10    8 1
    10   11    8 1
    11   12    5 1
    12   13   12 1
    13   14   12 1
    14   15   12 1
    15   16   15 1
    16   17   15 1
    17   18   17 1
    18   19   17 1
    19   20   17 1
    20   21   15 1
    21   22    7 1
    22   23   22 1
    23   24   22 1
    24   25   22 1
    25   26    3 1
    26   27    1 1
    27   28   27 1
    28   29   27 1
    29   30   33 1
    30   31   27 1
    31   32   31 1
    32   33   31 1
    33   34   33 1
    34   35   33 1
    35   36   30 1
    36   37   36 ar
    37   38   37 1
    38   39   37 ar
    39   40   39 1
    40   41   39 ar
    41   42   41 1
    42   43   41 ar
    43   44   43 1
    44   45   36 ar
    45   46   26 1
    46   47   46 1
    47   31   46 1
    48   43   45 ar
    49   45   46 1
@<TRIPOS>SUBSTRUCTURE
     1 RES1 1

@<TRIPOS>CRYSIN
   7.6843   10.9358   10.2015  90.0000 100.9740  90.0000   4 1

