# MOL2 file generated by ConQuest
# Please check atom types

@<TRIPOS>MOLECULE
DOVROW
    65    66     2
SMALL
NO_CHARGES
****
Generated from CSD

@<TRIPOS>ATOM
      1 N1         2.1028    8.5950   -0.0406 N.3       1 RES1    0.0000
      2 N2         3.3415    6.0443    1.7336 N.pl3     1 RES1    0.0000
      3 O1         3.4278    9.1273    0.0601 O.3       1 RES1    0.0000
      4 O2         0.8763    7.2713    3.6503 O.3       1 RES1    0.0000
      5 O3         3.7973    5.5662    2.7306 O.2       1 RES1    0.0000
      6 O4         3.1704    5.4404    0.7336 O.2       1 RES1    0.0000
      7 C1         1.8418    8.0435    1.2831 C.3       1 RES1    0.0000
      8 H1         1.2180    7.2907    1.2108 H         1 RES1    0.0000
      9 C2         3.2078    7.5405    1.7752 C.3       1 RES1    0.0000
     10 H2         3.3720    7.8637    2.6860 H         1 RES1    0.0000
     11 C3         4.2121    8.1826    0.8069 C.3       1 RES1    0.0000
     12 H3         4.5668    7.4983    0.2010 H         1 RES1    0.0000
     13 C4         1.9322    7.7536   -1.1871 C.ar      1 RES1    0.0000
     14 C5         2.8106    7.8060   -2.2365 C.ar      1 RES1    0.0000
     15 H4         3.5830    8.3213   -2.1771 H         1 RES1    0.0000
     16 C6         2.5393    7.0808   -3.3909 C.ar      1 RES1    0.0000
     17 H5         3.1326    7.1222   -4.1067 H         1 RES1    0.0000
     18 C7         1.4300    6.3176   -3.4929 C.ar      1 RES1    0.0000
     19 H6         1.2661    5.8296   -4.2671 H         1 RES1    0.0000
     20 C8         0.5560    6.2696   -2.4593 C.ar      1 RES1    0.0000
     21 H7        -0.2100    5.7467   -2.5286 H         1 RES1    0.0000
     22 C9         0.7903    6.9882   -1.3029 C.ar      1 RES1    0.0000
     23 H8         0.1782    6.9557   -0.6029 H         1 RES1    0.0000
     24 C10        1.2857    9.0793    2.2375 C.ar      1 RES1    0.0000
     25 C11        0.7926    8.6284    3.4652 C.ar      1 RES1    0.0000
     26 C12        0.2623    9.5279    4.3622 C.ar      1 RES1    0.0000
     27 H9        -0.0903    9.2284    5.1691 H         1 RES1    0.0000
     28 C13        0.2549   10.8822    4.0582 C.ar      1 RES1    0.0000
     29 H10       -0.0989   11.4780    4.6780 H         1 RES1    0.0000
     30 C14        0.7548   11.3809    2.8672 C.ar      1 RES1    0.0000
     31 C15        1.2595   10.4324    1.9613 C.ar      1 RES1    0.0000
     32 H11        1.5881   10.7271    1.1435 H         1 RES1    0.0000
     33 C16        0.5617    6.7546    4.9354 C.3       1 RES1    0.0000
     34 H12        0.6777    5.8016    4.9334 H         1 RES1    0.0000
     35 H13       -0.3487    6.9661    5.1512 H         1 RES1    0.0000
     36 H14        1.1455    7.1467    5.5888 H         1 RES1    0.0000
     37 C17        0.8125   12.8701    2.5128 C.3       1 RES1    0.0000
     38 C18        0.1036   13.1250    1.1693 C.3       1 RES1    0.0000
     39 H15        0.1454   14.0736    0.9752 H         1 RES1    0.0000
     40 H16        0.5937   12.6619    0.4713 H         1 RES1    0.0000
     41 C19       -1.2873   12.7047    1.1128 C.3       1 RES1    0.0000
     42 H17       -1.6866   13.0306    0.3030 H         1 RES1    0.0000
     43 H18       -1.7595   13.0602    1.8682 H         1 RES1    0.0000
     44 H19       -1.3326   11.7451    1.1287 H         1 RES1    0.0000
     45 C20        2.2683   13.2868    2.3068 C.3       1 RES1    0.0000
     46 H20        2.3009   14.2016    2.0177 H         1 RES1    0.0000
     47 H21        2.6709   12.7253    1.6405 H         1 RES1    0.0000
     48 H22        2.7470   13.1949    3.1345 H         1 RES1    0.0000
     49 C21        0.2002   13.7568    3.5810 C.3       1 RES1    0.0000
     50 H23        0.6844   13.6485    4.4028 H         1 RES1    0.0000
     51 H24       -0.7173   13.5090    3.7157 H         1 RES1    0.0000
     52 H25        0.2459   14.6740    3.3008 H         1 RES1    0.0000
     53 C22        5.3527    8.9003    1.4831 C.ar      1 RES1    0.0000
     54 C23        5.3925   10.2735    1.6088 C.ar      1 RES1    0.0000
     55 H26        4.6995   10.7876    1.2603 H         1 RES1    0.0000
     56 C24        6.4414   10.8924    2.2415 C.ar      1 RES1    0.0000
     57 H27        6.4647   11.8205    2.2989 H         1 RES1    0.0000
     58 C25        7.4469   10.1521    2.7870 C.ar      1 RES1    0.0000
     59 H28        8.1508   10.5722    3.2266 H         1 RES1    0.0000
     60 C26        7.4179    8.7910    2.6850 C.ar      1 RES1    0.0000
     61 H29        8.0982    8.2854    3.0672 H         1 RES1    0.0000
     62 C27        6.3823    8.1543    2.0148 C.ar      1 RES1    0.0000
     63 H30        6.3843    7.2287    1.9247 H         1 RES1    0.0000
     64 O5         4.1357    5.4445    2.3138 Du        2 SUP2    0.0000
     65 O6         2.4961    5.4504    1.0960 Du        2 SUP2    0.0000
@<TRIPOS>BOND
     1    1    3 1
     2    2    5 2
     3    3   11 1
     4    4   25 1
     5    6    2 2
     6    7    1 1
     7    8    7 1
     8    9    2 1
     9   10    9 1
    10   11    9 1
    11   12   11 1
    12   13    1 1
    13   14   13 ar
    14   15   14 1
    15   16   14 ar
    16   17   16 1
    17   18   16 ar
    18   19   18 1
    19   20   18 ar
    20   21   20 1
    21   22   13 ar
    22   23   22 1
    23   24    7 1
    24   25   24 ar
    25   26   25 ar
    26   27   26 1
    27   28   26 ar
    28   29   28 1
    29   30   28 ar
    30   31   24 ar
    31   32   31 1
    32   33    4 1
    33   34   33 1
    34   35   33 1
    35   36   33 1
    36   37   30 1
    37   38   37 1
    38   39   38 1
    39   40   38 1
    40   41   38 1
    41   42   41 1
    42   43   41 1
    43   44   41 1
    44   45   37 1
    45   46   45 1
    46   47   45 1
    47   48   45 1
    48   49   37 1
    49   50   49 1
    50   51   49 1
    51   52   49 1
    52   53   11 1
    53   54   53 ar
    54   55   54 1
    55   56   54 ar
    56   57   56 1
    57   58   56 ar
    58   59   58 1
    59   60   58 ar
    60   61   60 1
    61   62   53 ar
    62   63   62 1
    63    7    9 1
    64   20   22 ar
    65   30   31 ar
    66   60   62 ar
@<TRIPOS>SUBSTRUCTURE
     1 RES1 1
     2 SUP2 64

@<TRIPOS>CRYSIN
  10.8450   11.4050   11.7150 112.2700 109.6300  95.9200   2 1

