# MOL2 file generated by ConQuest
# Please check atom types

@<TRIPOS>MOLECULE
DOVSEM
    25    28     1
SMALL
USER_CHARGES
****
Generated from CSD

@<TRIPOS>ATOM
      1 O1         2.9653   -1.0292    0.0000 O.2       1 RES1   -1.0000
      2 N1         2.9653    0.2271    0.0000 N.pl3     1 RES1    1.0000
      3 C1         2.9653    2.9323    0.0000 C.2       1 RES1    0.0000
      4 C2         2.9653    4.4218    0.0000 C.ar      1 RES1    0.0000
      5 C3         2.9653    7.1999    0.0000 C.ar      1 RES1    0.0000
      6 N2         2.0481    0.8392    0.7669 N.2       1 RES1    0.0000
      7 C4         2.0588    2.1840    0.7646 C.2       1 RES1    0.0000
      8 C5         1.8624    5.1163   -0.5116 C.ar      1 RES1    0.0000
      9 C6         1.8635    6.5137   -0.5093 C.ar      1 RES1    0.0000
     10 C7         1.0263    2.7375    1.6677 C.ar      1 RES1    0.0000
     11 C8         1.2910    3.8325    2.4981 C.ar      1 RES1    0.0000
     12 C9         0.3173    4.2485    3.4175 C.ar      1 RES1    0.0000
     13 C10       -0.9102    3.5790    3.4960 C.ar      1 RES1    0.0000
     14 C11       -1.1817    2.5115    2.6552 C.ar      1 RES1    0.0000
     15 C12       -0.2139    2.0860    1.7324 C.ar      1 RES1    0.0000
     16 N2A        3.8824    0.8392   -0.7669 N.2       1 RES1    0.0000
     17 C4A        3.8717    2.1840   -0.7646 C.2       1 RES1    0.0000
     18 C5A        4.0681    5.1163    0.5116 C.ar      1 RES1    0.0000
     19 C6A        4.0670    6.5137    0.5093 C.ar      1 RES1    0.0000
     20 C7A        4.9042    2.7375   -1.6677 C.ar      1 RES1    0.0000
     21 C8A        4.6395    3.8325   -2.4981 C.ar      1 RES1    0.0000
     22 C12A       6.1444    2.0860   -1.7324 C.ar      1 RES1    0.0000
     23 C9A        5.6132    4.2485   -3.4175 C.ar      1 RES1    0.0000
     24 C11A       7.1122    2.5115   -2.6552 C.ar      1 RES1    0.0000
     25 C10A       6.8407    3.5790   -3.4960 C.ar      1 RES1    0.0000
@<TRIPOS>BOND
     1    1    2 1
     2    2    6 1
     3    3    4 1
     4    4    8 ar
     5    5    9 ar
     6    6    7 2
     7    7    3 1
     8    8    9 ar
     9   10    7 1
    10   11   10 ar
    11   12   11 ar
    12   13   12 ar
    13   14   13 ar
    14   15   10 ar
    15   16    2 2
    16   17    3 2
    17   18    4 ar
    18   19    5 ar
    19   20   17 1
    20   21   20 ar
    21   22   20 ar
    22   23   21 ar
    23   24   22 ar
    24   25   23 ar
    25   14   15 ar
    26   16   17 1
    27   18   19 ar
    28   24   25 ar
@<TRIPOS>SUBSTRUCTURE
     1 RES1 1

