# MOL2 file generated by ConQuest
# Please check atom types

@<TRIPOS>MOLECULE
DOVVEP
    45    46     1
SMALL
NO_CHARGES
****
Generated from CSD

@<TRIPOS>ATOM
      1 O1        14.8914    9.9683    7.6935 O.2       1 RES1    0.0000
      2 N1        13.7568    9.4338    7.4897 N.pl3     1 RES1    0.0000
      3 C1        13.5940    8.0609    8.0043 C.ar      1 RES1    0.0000
      4 C2        14.7075    7.4618    8.5768 C.ar      1 RES1    0.0000
      5 C3        14.6023    6.1795    9.0612 C.ar      1 RES1    0.0000
      6 C4        13.4014    5.4830    9.0002 C.ar      1 RES1    0.0000
      7 C5        12.2863    6.0869    8.4174 C.ar      1 RES1    0.0000
      8 C6        12.3985    7.3836    7.9242 C.ar      1 RES1    0.0000
      9 O2        13.4205    4.2364    9.5306 O.3       1 RES1    0.0000
     10 C7        12.2266    3.4482    9.4973 C.3       1 RES1    0.0000
     11 C8        12.5583    2.1033   10.0881 C.3       1 RES1    0.0000
     12 C9        11.3664    1.1722   10.0579 C.3       1 RES1    0.0000
     13 N2        12.7601    9.9239    6.9054 N.2       1 RES1    0.0000
     14 C10       12.8547   11.2409    6.3805 C.ar      1 RES1    0.0000
     15 C11       11.6364   11.7030    5.8722 C.ar      1 RES1    0.0000
     16 C12       11.5146   12.9553    5.3338 C.ar      1 RES1    0.0000
     17 C13       12.6237   13.8044    5.2704 C.ar      1 RES1    0.0000
     18 C14       13.8439   13.3577    5.7438 C.ar      1 RES1    0.0000
     19 C15       13.9586   12.0986    6.2948 C.ar      1 RES1    0.0000
     20 O3        12.4137   15.0345    4.7304 O.3       1 RES1    0.0000
     21 C16       13.5509   15.9124    4.6646 C.3       1 RES1    0.0000
     22 C17       13.1223   17.2410    4.1120 C.3       1 RES1    0.0000
     23 C18       14.2949   18.2077    4.0668 C.3       1 RES1    0.0000
     24 H1        15.5704    7.9500    8.6426 H         1 RES1    0.0000
     25 H2        15.4161    5.7502    9.4593 H         1 RES1    0.0000
     26 H3        11.4144    5.5958    8.3572 H         1 RES1    0.0000
     27 H4        11.6136    7.8342    7.5088 H         1 RES1    0.0000
     28 H5        11.9197    3.3575    8.5475 H         1 RES1    0.0000
     29 H6        11.5121    3.9074   10.0302 H         1 RES1    0.0000
     30 H7        12.8524    2.2287   11.0372 H         1 RES1    0.0000
     31 H8        13.3025    1.6980    9.5624 H         1 RES1    0.0000
     32 H9        10.8245   11.1241    5.8912 H         1 RES1    0.0000
     33 H10       10.6182   13.2467    4.9873 H         1 RES1    0.0000
     34 H11       14.6431   13.9510    5.6851 H         1 RES1    0.0000
     35 H12       14.8466   11.8092    6.6366 H         1 RES1    0.0000
     36 H13       14.2406   15.4947    4.0755 H         1 RES1    0.0000
     37 H14       13.9173   16.0253    5.5899 H         1 RES1    0.0000
     38 H15       12.3986   17.6172    4.6940 H         1 RES1    0.0000
     39 H16       12.7645   17.1059    3.1875 H         1 RES1    0.0000
     40 H17       11.5942    0.2894   10.4742 H         1 RES1    0.0000
     41 H18       10.6452    1.6305   10.5218 H         1 RES1    0.0000
     42 H19       11.0414    0.9069    9.2373 H         1 RES1    0.0000
     43 H20       14.0877   19.1416    3.7425 H         1 RES1    0.0000
     44 H21       14.9772   17.7909    3.6077 H         1 RES1    0.0000
     45 H22       14.6885   18.3794    4.8922 H         1 RES1    0.0000
@<TRIPOS>BOND
     1    1    2 1
     2    2    3 1
     3    3    4 ar
     4    4    5 ar
     5    5    6 ar
     6    6    7 ar
     7    7    8 ar
     8    8    3 ar
     9    9    6 1
    10   10    9 1
    11   11   10 1
    12   12   11 1
    13   13    2 2
    14   14   13 1
    15   15   14 ar
    16   16   15 ar
    17   17   16 ar
    18   18   17 ar
    19   19   14 ar
    20   20   17 1
    21   21   20 1
    22   22   21 1
    23   23   22 1
    24   24    4 1
    25   25    5 1
    26   26    7 1
    27   27    8 1
    28   28   10 1
    29   29   10 1
    30   30   11 1
    31   31   11 1
    32   32   15 1
    33   33   16 1
    34   34   18 1
    35   35   19 1
    36   36   21 1
    37   37   21 1
    38   38   22 1
    39   39   22 1
    40   40   12 1
    41   41   12 1
    42   42   12 1
    43   43   23 1
    44   44   23 1
    45   45   23 1
    46   18   19 ar
@<TRIPOS>SUBSTRUCTURE
     1 RES1 1

@<TRIPOS>CRYSIN
  21.5070    9.6480    7.9420  90.0000  93.2800  90.0000 231 1

