# MOL2 file generated by ConQuest
# Please check atom types

@<TRIPOS>MOLECULE
DOVXAP
    80    82     2
SMALL
USER_CHARGES
****
Generated from CSD

@<TRIPOS>ATOM
      1 O1         3.8972    3.2511    4.2780 O.3       1 RES1    0.0000
      2 O2        -3.0928    1.9185    6.1451 O.2       1 RES1    0.0000
      3 O3        -0.5471   -1.9104    5.6912 O.2       1 RES1   -1.0000
      4 N1        -1.5547   -1.1319    5.8405 N.pl3     1 RES1    1.0000
      5 N2        -2.7629    0.6836    6.0964 N.3       1 RES1    0.0000
      6 C1        -0.3065    1.0362    5.7534 C.ar      1 RES1    0.0000
      7 C2         1.0809    2.8414    6.5281 C.ar      1 RES1    0.0000
      8 H1         1.2576    3.5113    7.1488 H         1 RES1    0.0000
      9 C3         1.7092    1.5980    4.5670 C.ar      1 RES1    0.0000
     10 H2         2.3009    1.4461    3.8654 H         1 RES1    0.0000
     11 C4         0.5868    0.7971    4.7080 C.ar      1 RES1    0.0000
     12 H3         0.4294    0.1032    4.1089 H         1 RES1    0.0000
     13 C5        -0.0517    2.0587    6.6605 C.ar      1 RES1    0.0000
     14 H4        -0.6450    2.2170    7.3586 H         1 RES1    0.0000
     15 C6        -1.5134    0.2115    5.8927 C.2       1 RES1    0.0000
     16 C7         3.1147    3.5590    5.3233 C.2       1 RES1    0.0000
     17 C8        -3.8846   -0.4287    7.9227 C.3       1 RES1    0.0000
     18 H5        -3.0288   -0.5824    8.3281 H         1 RES1    0.0000
     19 H6        -4.4911   -1.1271    8.1810 H         1 RES1    0.0000
     20 H7        -4.2289    0.4181    8.2147 H         1 RES1    0.0000
     21 C9         1.9559    2.6272    5.4681 C.ar      1 RES1    0.0000
     22 O4         3.3148    4.5067    6.0333 O.2       1 RES1    0.0000
     23 C10       -3.7335   -0.4213    6.4044 C.3       1 RES1    0.0000
     24 C11       -2.9700   -1.6547    5.8451 C.3       1 RES1    0.0000
     25 C12       -5.0745   -0.1206    5.7453 C.3       1 RES1    0.0000
     26 H8        -5.4534    0.6707    6.1365 H         1 RES1    0.0000
     27 H9        -5.6709   -0.8608    5.8808 H         1 RES1    0.0000
     28 H10       -4.9441    0.0177    4.8042 H         1 RES1    0.0000
     29 C13       -3.2951   -1.9878    4.3879 C.3       1 RES1    0.0000
     30 H11       -3.2403   -1.1901    3.8577 H         1 RES1    0.0000
     31 H12       -4.1829   -2.3482    4.3325 H         1 RES1    0.0000
     32 H13       -2.6658   -2.6346    4.0599 H         1 RES1    0.0000
     33 C14       -3.0389   -2.9138    6.7012 C.3       1 RES1    0.0000
     34 H14       -2.4845   -3.5946    6.3142 H         1 RES1    0.0000
     35 H15       -3.9463   -3.2245    6.7415 H         1 RES1    0.0000
     36 H16       -2.7296   -2.7157    7.5884 H         1 RES1    0.0000
     37 C15        5.0431    4.1189    4.0887 C.3       1 RES1    0.0000
     38 H17        5.4898    3.8849    3.2712 H         1 RES1    0.0000
     39 H18        5.6495    4.0143    4.8256 H         1 RES1    0.0000
     40 H19        4.7492    5.0312    4.0430 H         1 RES1    0.0000
     41 O5        -0.5174    8.9925    2.0754 O.2       2 RES2    0.0000
     42 O6        -7.0151    8.2340   -1.5259 O.3       2 RES2    0.0000
     43 O7        -1.9659    4.6348    1.4756 O.2       2 RES2   -1.0000
     44 N3        -0.5707    7.7139    2.0981 N.3       2 RES2    0.0000
     45 O8        -5.8017    9.9604   -2.2878 O.2       2 RES2    0.0000
     46 N4        -1.2817    5.6522    1.8479 N.pl3     2 RES2    1.0000
     47 C16       -4.7803    8.3837   -0.8117 C.ar      2 RES2    0.0000
     48 C17       -1.5397    6.9447    1.5567 C.2       2 RES2    0.0000
     49 C18       -2.5228    8.6112    0.0046 C.ar      2 RES2    0.0000
     50 H20       -1.7212    9.0817    0.0276 H         2 RES2    0.0000
     51 C19       -3.8720    6.7267    0.6829 C.ar      2 RES2    0.0000
     52 H21       -3.9728    5.9371    1.1639 H         2 RES2    0.0000
     53 C20       -4.9159    7.1966   -0.0966 C.ar      2 RES2    0.0000
     54 H22       -5.7117    6.7165   -0.1424 H         2 RES2    0.0000
     55 C21       -2.6659    7.4351    0.7506 C.ar      2 RES2    0.0000
     56 C22       -0.7341    5.2776    4.1865 C.3       2 RES2    0.0000
     57 H23       -1.2647    6.0390    4.4320 H         2 RES2    0.0000
     58 H24       -0.0324    5.1558    4.8302 H         2 RES2    0.0000
     59 H25       -1.2887    4.4939    4.1656 H         2 RES2    0.0000
     60 C23       -5.8940    8.9585   -1.6273 C.2       2 RES2    0.0000
     61 C24       -3.5752    9.0736   -0.7673 C.ar      2 RES2    0.0000
     62 H26       -3.4743    9.8551   -1.2619 H         2 RES2    0.0000
     63 C25       -0.1215    5.5083    2.7984 C.3       2 RES2    0.0000
     64 C26        0.5717    6.8891    2.6332 C.3       2 RES2    0.0000
     65 C27        0.7222    4.3226    2.3823 C.3       2 RES2    0.0000
     66 H27        0.2275    3.5129    2.5223 H         2 RES2    0.0000
     67 H28        1.5258    4.3018    2.9067 H         2 RES2    0.0000
     68 H29        0.9492    4.4017    1.4534 H         2 RES2    0.0000
     69 C28        1.1110    7.5114    3.9113 C.3       2 RES2    0.0000
     70 H30        1.5489    8.3404    3.7046 H         2 RES2    0.0000
     71 H31        1.7392    6.9107    4.3187 H         2 RES2    0.0000
     72 H32        0.3852    7.6761    4.5178 H         2 RES2    0.0000
     73 C29        1.6531    6.9182    1.5503 C.3       2 RES2    0.0000
     74 H33        1.3032    6.5450    0.7382 H         2 RES2    0.0000
     75 H34        2.4096    6.4028    1.8393 H         2 RES2    0.0000
     76 H35        1.9248    7.8256    1.3936 H         2 RES2    0.0000
     77 C30       -8.1594    8.7025   -2.2909 C.3       2 RES2    0.0000
     78 H36       -7.9516    8.6747   -3.2283 H         2 RES2    0.0000
     79 H37       -8.3665    9.6048   -2.0368 H         2 RES2    0.0000
     80 H38       -8.9152    8.1378   -2.1134 H         2 RES2    0.0000
@<TRIPOS>BOND
     1    1   16 1
     2    2    5 1
     3    3    4 1
     4    4   15 2
     5    5   15 1
     6    6   11 ar
     7    7    8 1
     8    9   10 1
     9   11    9 ar
    10   12   11 1
    11   13    6 ar
    12   14   13 1
    13   15    6 1
    14   16   21 1
    15   17   18 1
    16   19   17 1
    17   20   17 1
    18   21    7 ar
    19   22   16 2
    20   23    5 1
    21   24    4 1
    22   25   23 1
    23   26   25 1
    24   27   25 1
    25   28   25 1
    26   29   24 1
    27   30   29 1
    28   31   29 1
    29   32   29 1
    30   33   24 1
    31   34   33 1
    32   35   33 1
    33   36   33 1
    34   37    1 1
    35   38   37 1
    36   39   37 1
    37   40   37 1
    38   41   44 1
    39   42   60 1
    40   43   46 1
    41   44   48 1
    42   45   60 2
    43   46   48 2
    44   47   53 ar
    45   48   55 1
    46   49   50 1
    47   51   52 1
    48   53   51 ar
    49   54   53 1
    50   55   49 ar
    51   56   57 1
    52   58   56 1
    53   59   56 1
    54   60   47 1
    55   61   47 ar
    56   62   61 1
    57   63   46 1
    58   64   44 1
    59   65   63 1
    60   66   65 1
    61   67   65 1
    62   68   65 1
    63   69   64 1
    64   70   69 1
    65   71   69 1
    66   72   69 1
    67   73   64 1
    68   74   73 1
    69   75   73 1
    70   76   73 1
    71   77   42 1
    72   78   77 1
    73   79   77 1
    74   80   77 1
    75    7   13 ar
    76    9   21 ar
    77   17   23 1
    78   23   24 1
    79   49   61 ar
    80   51   55 ar
    81   56   63 1
    82   63   64 1
@<TRIPOS>SUBSTRUCTURE
     1 RES1 1
     2 RES2 41

@<TRIPOS>CRYSIN
   9.5761   10.1949   15.8509 102.6110  96.5270  96.0210   2 1

