# MOL2 file generated by ConQuest
# Please check atom types

@<TRIPOS>MOLECULE
DOWJAB
    27    27     1
SMALL
NO_CHARGES
****
Generated from CSD

@<TRIPOS>ATOM
      1 O1        -0.2486    5.8169    5.9479 O.2       1 RES1    0.0000
      2 O2        -0.9801    6.0592    3.9230 O.2       1 RES1    0.0000
      3 O3         2.8036    5.0505    3.9471 O.2       1 RES1    0.0000
      4 N1        -0.4916    5.3968    4.8279 N.pl3     1 RES1    0.0000
      5 N2         2.1698    4.2499    1.9539 N.am      1 RES1    0.0000
      6 H1         2.4097    3.9354    1.1678 H         1 RES1    0.0000
      7 C1         0.2931    3.6042    3.3354 C.ar      1 RES1    0.0000
      8 C2        -0.2089    3.9696    4.5473 C.ar      1 RES1    0.0000
      9 C3        -0.4789    3.0832    5.5827 C.ar      1 RES1    0.0000
     10 H2        -0.8077    3.3937    6.4179 H         1 RES1    0.0000
     11 C4        -0.2589    1.7465    5.3672 C.ar      1 RES1    0.0000
     12 H3        -0.4527    1.1143    6.0495 H         1 RES1    0.0000
     13 C5         0.2383    1.3295    4.1688 C.ar      1 RES1    0.0000
     14 H4         0.3836    0.4027    4.0194 H         1 RES1    0.0000
     15 C6         0.5321    2.2262    3.1792 C.ar      1 RES1    0.0000
     16 H5         0.9070    1.9109    2.3662 H         1 RES1    0.0000
     17 C7         0.7680    4.5279    2.2333 C.3       1 RES1    0.0000
     18 H6         0.6838    5.4738    2.5478 H         1 RES1    0.0000
     19 C8        -0.0445    4.3635    0.9607 C.3       1 RES1    0.0000
     20 H7         0.2851    4.9862    0.2801 H         1 RES1    0.0000
     21 H8        -0.9880    4.5533    1.1491 H         1 RES1    0.0000
     22 H9         0.0445    3.4438    0.6331 H         1 RES1    0.0000
     23 C9         3.0856    4.4747    2.8907 C.2       1 RES1    0.0000
     24 C10        4.4667    3.9434    2.6259 C.3       1 RES1    0.0000
     25 H10        5.1291    4.6335    2.8414 H         1 RES1    0.0000
     26 H11        4.5462    3.6979    1.6804 H         1 RES1    0.0000
     27 H12        4.6256    3.1531    3.1826 H         1 RES1    0.0000
@<TRIPOS>BOND
     1    1    4 2
     2    2    4 2
     3    3   23 2
     4    4    8 1
     5    5    6 1
     6    7    8 ar
     7    8    9 ar
     8    9   10 1
     9   11    9 ar
    10   12   11 1
    11   13   11 ar
    12   14   13 1
    13   15    7 ar
    14   16   15 1
    15   17    5 1
    16   18   17 1
    17   19   17 1
    18   20   19 1
    19   21   19 1
    20   22   19 1
    21   23    5 1
    22   24   23 1
    23   25   24 1
    24   26   24 1
    25   27   24 1
    26    7   17 1
    27   13   15 ar
@<TRIPOS>SUBSTRUCTURE
     1 RES1 1

@<TRIPOS>CRYSIN
   7.9423    7.9423   16.9740  90.0000  90.0000  90.0000  78 1

