# MOL2 file generated by ConQuest
# Please check atom types

@<TRIPOS>MOLECULE
DOWQEN
    19    19     1
SMALL
NO_CHARGES
****
Generated from CSD

@<TRIPOS>ATOM
      1 O1         6.7936    0.9123    0.2696 O.2       1 RES1    0.0000
      2 O2         5.3582    2.3386   -0.4635 O.2       1 RES1    0.0000
      3 N1         9.0872    1.7019    1.2591 N.3       1 RES1    0.0000
      4 H1         8.6122    1.0254    0.9514 H         1 RES1    0.0000
      5 N2         6.4381    2.0880    0.0789 N.pl3     1 RES1    0.0000
      6 C1         8.5634    2.9220    1.0607 C.ar      1 RES1    0.0000
      7 C2         7.2854    3.1586    0.4879 C.ar      1 RES1    0.0000
      8 C3         6.7985    4.4591    0.2947 C.ar      1 RES1    0.0000
      9 H2         5.9599    4.5843   -0.0883 H         1 RES1    0.0000
     10 C4         7.5427    5.5454    0.6629 C.ar      1 RES1    0.0000
     11 H3         7.2152    6.4061    0.5377 H         1 RES1    0.0000
     12 C5         8.8011    5.3414    1.2297 C.ar      1 RES1    0.0000
     13 H4         9.3122    6.0765    1.4828 H         1 RES1    0.0000
     14 C6         9.2947    4.0862    1.4191 C.ar      1 RES1    0.0000
     15 H5        10.1394    3.9878    1.7958 H         1 RES1    0.0000
     16 C7        10.4247    1.4708    1.7630 C.3       1 RES1    0.0000
     17 H6        10.6186    0.5309    1.7363 H         1 RES1    0.0000
     18 H7        10.4846    1.7839    2.6683 H         1 RES1    0.0000
     19 H8        11.0584    1.9443    1.2180 H         1 RES1    0.0000
@<TRIPOS>BOND
     1    1    5 2
     2    2    5 2
     3    3    4 1
     4    5    7 1
     5    6    3 1
     6    7    6 ar
     7    8    7 ar
     8    9    8 1
     9   10    8 ar
    10   11   10 1
    11   12   10 ar
    12   13   12 1
    13   14    6 ar
    14   15   14 1
    15   16    3 1
    16   17   16 1
    17   18   16 1
    18   19   16 1
    19   12   14 ar
@<TRIPOS>SUBSTRUCTURE
     1 RES1 1

@<TRIPOS>CRYSIN
   7.9822   14.5859    6.6663  90.0000 110.1260  90.0000  14 1

