# MOL2 file generated by ConQuest
# Please check atom types

@<TRIPOS>MOLECULE
DOXGUT
    78    78     2
SMALL
USER_CHARGES
****
Generated from CSD

@<TRIPOS>ATOM
      1 C1        -6.9713    8.1581    9.2590 C.2       1 RES1    0.0000
      2 N1        -7.1666    8.3357   10.5542 N.1       1 RES1    1.0000
      3 N2        -7.3377    8.4862   11.6697 N.2       1 RES1   -1.0000
      4 C2        -8.2017    8.1322    8.4063 C.2       1 RES1    0.0000
      5 O1        -8.2651    7.3060    7.5033 O.2       1 RES1    0.0000
      6 N3        -9.2199    8.9807    8.7264 N.am      1 RES1    0.0000
      7 N4        -1.5679    7.5341    7.6123 N.pl3     1 RES1    0.0000
      8 O2        -0.7204    7.3129    8.4853 O.2       1 RES1    0.0000
      9 O3        -1.2848    7.7025    6.4246 O.2       1 RES1    0.0000
     10 C3        -9.0357   10.2708    9.4387 C.3       1 RES1    0.0000
     11 H1        -8.0750   10.3201    9.7112 H         1 RES1    0.0000
     12 C4        -9.8619   10.3361   10.7122 C.3       1 RES1    0.0000
     13 H2       -10.8122   10.3990   10.4821 H         1 RES1    0.0000
     14 H3        -9.5995   11.1242   11.2325 H         1 RES1    0.0000
     15 H4        -9.7076    9.5271   11.2448 H         1 RES1    0.0000
     16 C5        -9.3006   11.4535    8.5194 C.3       1 RES1    0.0000
     17 H5        -8.7574   11.3659    7.7090 H         1 RES1    0.0000
     18 H6        -9.0658   12.2847    8.9825 H         1 RES1    0.0000
     19 H7       -10.2504   11.4707    8.2756 H         1 RES1    0.0000
     20 C6       -10.5665    8.7230    8.1530 C.3       1 RES1    0.0000
     21 H8       -11.1772    9.4099    8.5453 H         1 RES1    0.0000
     22 C7       -10.6420    8.8919    6.6398 C.3       1 RES1    0.0000
     23 H9       -10.2508    9.7540    6.3878 H         1 RES1    0.0000
     24 H10      -11.5801    8.8636    6.3552 H         1 RES1    0.0000
     25 H11      -10.1469    8.1680    6.2053 H         1 RES1    0.0000
     26 C8       -11.0912    7.3701    8.6093 C.3       1 RES1    0.0000
     27 H12      -10.5217    6.6597    8.2470 H         1 RES1    0.0000
     28 H13      -12.0091    7.2492    8.2851 H         1 RES1    0.0000
     29 H14      -11.0819    7.3294    9.5886 H         1 RES1    0.0000
     30 C9        -5.6071    7.9016    8.8327 C.ar      1 RES1    0.0000
     31 C10       -4.5778    7.7450    9.7602 C.ar      1 RES1    0.0000
     32 H15       -4.7874    7.7277   10.6877 H         1 RES1    0.0000
     33 C11       -3.2694    7.6155    9.3666 C.ar      1 RES1    0.0000
     34 H16       -2.5793    7.5279   10.0135 H         1 RES1    0.0000
     35 C12       -2.9714    7.6130    8.0236 C.ar      1 RES1    0.0000
     36 C13       -3.9669    7.7253    7.0648 C.ar      1 RES1    0.0000
     37 H17       -3.7523    7.7018    6.1386 H         1 RES1    0.0000
     38 C14       -5.2709    7.8708    7.4788 C.ar      1 RES1    0.0000
     39 H18       -5.9587    7.9522    6.8291 H         1 RES1    0.0000
     40 C15        0.2548   10.4742    7.4856 C.2       2 RES2    0.0000
     41 N5         0.4494   10.2264    6.2094 N.1       2 RES2    1.0000
     42 N6         0.6380   10.0216    5.0953 N.2       2 RES2   -1.0000
     43 C16        1.4880   10.7246    8.2947 C.2       2 RES2    0.0000
     44 O4         1.5167   11.7458    8.9814 O.2       2 RES2    0.0000
     45 N7         2.5122    9.8477    8.2048 N.am      2 RES2    0.0000
     46 N8        -5.0998   11.2623    9.2467 N.pl3     2 RES2    0.0000
     47 O5        -5.9257   11.7001    8.4431 O.2       2 RES2    0.0000
     48 O6        -5.3872   10.9478   10.4044 O.2       2 RES2    0.0000
     49 C17        2.3625    8.4677    7.6858 C.3       2 RES2    0.0000
     50 H19        1.4107    8.3567    7.4025 H         2 RES2    0.0000
     51 C18        3.2351    8.2321    6.4546 C.3       2 RES2    0.0000
     52 H20        3.0645    8.9339    5.7926 H         2 RES2    0.0000
     53 H21        3.0232    7.3577    6.0664 H         2 RES2    0.0000
     54 H22        4.1796    8.2519    6.7147 H         2 RES2    0.0000
     55 C19        2.6347    7.4428    8.7891 C.3       2 RES2    0.0000
     56 H23        3.5655    7.5193    9.0846 H         2 RES2    0.0000
     57 H24        2.4769    6.5401    8.4418 H         2 RES2    0.0000
     58 H25        2.0368    7.6106    9.5463 H         2 RES2    0.0000
     59 C20        3.8381   10.2313    8.7605 C.3       2 RES2    0.0000
     60 H26        4.4576    9.4741    8.5562 H         2 RES2    0.0000
     61 C21        3.8284   10.3793   10.2832 C.3       2 RES2    0.0000
     62 H27        3.3265   11.1846   10.5297 H         2 RES2    0.0000
     63 H28        4.7484   10.4545   10.6101 H         2 RES2    0.0000
     64 H29        3.4015    9.5937   10.6850 H         2 RES2    0.0000
     65 C22        4.4020   11.4510    8.0440 C.3       2 RES2    0.0000
     66 H30        4.3975   11.2931    7.0770 H         2 RES2    0.0000
     67 H31        5.3198   11.6113    8.3464 H         2 RES2    0.0000
     68 H32        3.8490   12.2341    8.2497 H         2 RES2    0.0000
     69 C23       -1.1173   10.7086    7.9256 C.ar      2 RES2    0.0000
     70 C24       -2.1621   10.8615    7.0157 C.ar      2 RES2    0.0000
     71 H33       -1.9778   10.8183    6.0841 H         2 RES2    0.0000
     72 C25       -3.4545   11.0712    7.4393 C.ar      2 RES2    0.0000
     73 H34       -4.1521   11.2031    6.8087 H         2 RES2    0.0000
     74 C26       -3.7211   11.0884    8.7891 C.ar      2 RES2    0.0000
     75 C27       -2.7124   10.9232    9.7289 C.ar      2 RES2    0.0000
     76 H35       -2.9096   10.9306   10.6578 H         2 RES2    0.0000
     77 C28       -1.4114   10.7456    9.2821 C.ar      2 RES2    0.0000
     78 H36       -0.7094   10.6469    9.9155 H         2 RES2    0.0000
@<TRIPOS>BOND
     1    1    2 2
     2    2    3 2
     3    4    1 1
     4    5    4 2
     5    6    4 1
     6    7    8 2
     7    9    7 2
     8   10    6 1
     9   11   10 1
    10   12   10 1
    11   13   12 1
    12   14   12 1
    13   15   12 1
    14   16   10 1
    15   17   16 1
    16   18   16 1
    17   19   16 1
    18   20    6 1
    19   21   20 1
    20   22   20 1
    21   23   22 1
    22   24   22 1
    23   25   22 1
    24   26   20 1
    25   27   26 1
    26   28   26 1
    27   29   26 1
    28   30    1 1
    29   31   30 ar
    30   32   31 1
    31   33   31 ar
    32   34   33 1
    33   35    7 1
    34   36   35 ar
    35   37   36 1
    36   38   30 ar
    37   39   38 1
    38   40   41 2
    39   41   42 2
    40   43   40 1
    41   44   43 2
    42   45   43 1
    43   46   47 2
    44   48   46 2
    45   49   45 1
    46   50   49 1
    47   51   49 1
    48   52   51 1
    49   53   51 1
    50   54   51 1
    51   55   49 1
    52   56   55 1
    53   57   55 1
    54   58   55 1
    55   59   45 1
    56   60   59 1
    57   61   59 1
    58   62   61 1
    59   63   61 1
    60   64   61 1
    61   65   59 1
    62   66   65 1
    63   67   65 1
    64   68   65 1
    65   69   40 1
    66   70   69 ar
    67   71   70 1
    68   72   70 ar
    69   73   72 1
    70   74   46 1
    71   75   74 ar
    72   76   75 1
    73   77   69 ar
    74   78   77 1
    75   33   35 ar
    76   36   38 ar
    77   72   74 ar
    78   75   77 ar
@<TRIPOS>SUBSTRUCTURE
     1 RES1 1
     2 RES2 40

@<TRIPOS>CRYSIN
  18.1640   12.3328   13.9780  90.0000 102.9930  90.0000  14 1

