# MOL2 file generated by ConQuest
# Please check atom types

@<TRIPOS>MOLECULE
DOXGON
    32    32     1
SMALL
USER_CHARGES
****
Generated from CSD

@<TRIPOS>ATOM
      1 O1         7.6750    4.1110    9.9571 O.2       1 RES1    0.0000
      2 O2         7.2160    1.9042    9.6249 O.3       1 RES1    0.0000
      3 O3         1.9887    7.3465   13.8063 O.2       1 RES1    0.0000
      4 O4         3.4430    8.7179   12.9908 O.2       1 RES1    0.0000
      5 N1         4.8561    2.1129   10.4432 N.1       1 RES1    1.0000
      6 N2         4.2469    1.1745   10.3760 N.2       1 RES1   -1.0000
      7 N3         2.9927    7.5879   13.1427 N.pl3     1 RES1    0.0000
      8 C1         5.5550    3.2411   10.5146 C.2       1 RES1    0.0000
      9 C2         6.9297    3.1622    9.9996 C.2       1 RES1    0.0000
     10 C3         8.5921    1.5396    9.1837 C.3       1 RES1    0.0000
     11 C4         8.4487    0.0533    8.9115 C.3       1 RES1    0.0000
     12 C5         8.9277    2.2943    7.9076 C.3       1 RES1    0.0000
     13 C6         9.5688    1.7911   10.3143 C.3       1 RES1    0.0000
     14 C7         4.9201    4.3715   11.1861 C.ar      1 RES1    0.0000
     15 C8         3.7622    4.1555   11.9607 C.ar      1 RES1    0.0000
     16 C9         3.1381    5.1990   12.6070 C.ar      1 RES1    0.0000
     17 C10        3.6687    6.4728   12.4815 C.ar      1 RES1    0.0000
     18 C11        4.8096    6.7180   11.7383 C.ar      1 RES1    0.0000
     19 C12        5.4331    5.6673   11.0900 C.ar      1 RES1    0.0000
     20 H1         9.3149   -0.3170    8.6296 H         1 RES1    0.0000
     21 H2         7.8083   -0.1401    8.2501 H         1 RES1    0.0000
     22 H3         8.1453   -0.4202    9.7354 H         1 RES1    0.0000
     23 H4         9.0338    3.2721    8.0442 H         1 RES1    0.0000
     24 H5         8.2344    2.1555    7.2744 H         1 RES1    0.0000
     25 H6         9.7577    1.9353    7.5346 H         1 RES1    0.0000
     26 H7         9.6776    2.7246   10.5160 H         1 RES1    0.0000
     27 H8         9.2394    1.3483   11.1231 H         1 RES1    0.0000
     28 H9        10.4211    1.4260   10.0606 H         1 RES1    0.0000
     29 H10        3.4123    3.2976   12.0771 H         1 RES1    0.0000
     30 H11        2.3424    5.0559   13.1178 H         1 RES1    0.0000
     31 H12        5.1380    7.5972   11.6651 H         1 RES1    0.0000
     32 H13        6.2336    5.8720   10.5702 H         1 RES1    0.0000
@<TRIPOS>BOND
     1    1    9 2
     2    2    9 1
     3    3    7 2
     4    4    7 2
     5    5    6 2
     6    7   17 1
     7    8    5 2
     8    9    8 1
     9   10    2 1
    10   11   10 1
    11   12   10 1
    12   13   10 1
    13   14    8 1
    14   15   14 ar
    15   16   15 ar
    16   17   16 ar
    17   18   17 ar
    18   19   14 ar
    19   20   11 1
    20   21   11 1
    21   22   11 1
    22   23   12 1
    23   24   12 1
    24   25   12 1
    25   26   13 1
    26   27   13 1
    27   28   13 1
    28   29   15 1
    29   30   16 1
    30   31   18 1
    31   32   19 1
    32   18   19 ar
@<TRIPOS>SUBSTRUCTURE
     1 RES1 1

@<TRIPOS>CRYSIN
   9.0670   12.7320   10.9460  90.0000  97.9350  90.0000  14 1

