# MOL2 file generated by ConQuest
# Please check atom types

@<TRIPOS>MOLECULE
DOXROY
    28    29     1
SMALL
NO_CHARGES
****
Generated from CSD

@<TRIPOS>ATOM
      1 O1        -1.6225    1.8535    0.1006 O.3       1 RES1    0.0000
      2 O2        -0.0539    4.2554   -3.0600 O.2       1 RES1    0.0000
      3 N1        -1.2270    2.7640   -0.8885 N.2       1 RES1    0.0000
      4 C1        -0.3401    2.2894   -1.6574 C.2       1 RES1    0.0000
      5 C2         0.2562    3.1275   -2.7527 C.2       1 RES1    0.0000
      6 C3         1.3450    2.2664   -3.3260 C.3       1 RES1    0.0000
      7 C4         2.4299    2.2600   -2.1179 C.3       1 RES1    0.0000
      8 C5         1.8365    1.3938   -1.0651 C.3       1 RES1    0.0000
      9 C6         0.4047    1.0129   -1.6708 C.3       1 RES1    0.0000
     10 C7         0.7522    0.8743   -3.1226 C.3       1 RES1    0.0000
     11 C8         1.8908    2.7307   -4.6537 C.3       1 RES1    0.0000
     12 C9        -0.5443    0.6978   -3.9597 C.3       1 RES1    0.0000
     13 C10        1.7601   -0.2796   -3.4109 C.3       1 RES1    0.0000
     14 H1        -2.3403    2.3261    0.3912 H         1 RES1    0.0000
     15 H2         3.2776    1.7408   -2.3470 H         1 RES1    0.0000
     16 H3         2.5389    3.2335   -1.8217 H         1 RES1    0.0000
     17 H4         1.5931    1.8371   -0.0559 H         1 RES1    0.0000
     18 H5         2.4798    0.5770   -0.8829 H         1 RES1    0.0000
     19 H6         0.0552    0.2835   -1.2964 H         1 RES1    0.0000
     20 H7         2.6908    2.2152   -4.7722 H         1 RES1    0.0000
     21 H8         2.3317    3.7511   -4.6604 H         1 RES1    0.0000
     22 H9         1.1611    2.5463   -5.3421 H         1 RES1    0.0000
     23 H10       -0.0904    0.9526   -4.4816 H         1 RES1    0.0000
     24 H11       -1.1830    1.4500   -3.8669 H         1 RES1    0.0000
     25 H12       -1.0347    0.0354   -3.2746 H         1 RES1    0.0000
     26 H13        1.9101   -0.3733   -4.4592 H         1 RES1    0.0000
     27 H14        1.1958   -1.1014   -3.1963 H         1 RES1    0.0000
     28 H15        2.5914    0.1722   -3.0511 H         1 RES1    0.0000
@<TRIPOS>BOND
     1    1    3 1
     2    2    5 2
     3    3    4 2
     4    4    5 1
     5    5    6 1
     6    6    7 1
     7    7    8 1
     8    8    9 1
     9    9    4 1
    10   10    6 1
    11   11    6 1
    12   12   10 1
    13   13   10 1
    14   14    1 1
    15   15    7 1
    16   16    7 1
    17   17    8 1
    18   18    8 1
    19   19    9 1
    20   20   11 1
    21   21   11 1
    22   22   11 1
    23   23   12 1
    24   24   12 1
    25   25   12 1
    26   26   13 1
    27   27   13 1
    28   28   13 1
    29    9   10 1
@<TRIPOS>SUBSTRUCTURE
     1 RES1 1

@<TRIPOS>CRYSIN
   6.8670    7.1410   11.4400  85.4000  77.6800  70.5000   2 1

