# MOL2 file generated by ConQuest
# Please check atom types

@<TRIPOS>MOLECULE
DOXZOF
    17    18     1
SMALL
NO_CHARGES
****
Generated from CSD

@<TRIPOS>ATOM
      1 O1         0.8195    4.0787    2.2048 O.3       1 RES1    0.0000
      2 N1         0.3477    2.9716    2.9391 N.2       1 RES1    0.0000
      3 C1         1.2674    2.5430    3.6971 C.2       1 RES1    0.0000
      4 C2         1.3049    1.3654    4.6647 C.3       1 RES1    0.0000
      5 C3         2.7378    1.8272    4.9165 C.ar      1 RES1    0.0000
      6 C4         3.8964    1.5747    5.6205 C.ar      1 RES1    0.0000
      7 C5         4.9494    2.4341    5.3839 C.ar      1 RES1    0.0000
      8 C6         4.8576    3.4823    4.4991 C.ar      1 RES1    0.0000
      9 C7         3.7004    3.7427    3.7833 C.ar      1 RES1    0.0000
     10 C8         2.6558    2.8817    4.0292 C.ar      1 RES1    0.0000
     11 H1         0.1316    4.4495    1.8929 H         1 RES1    0.0000
     12 H2         0.6568    1.4674    5.4253 H         1 RES1    0.0000
     13 H3         1.1943    0.4944    4.2422 H         1 RES1    0.0000
     14 H4         3.9715    0.8152    6.2365 H         1 RES1    0.0000
     15 H5         5.7998    2.3247    5.8562 H         1 RES1    0.0000
     16 H6         5.6337    4.0393    4.3520 H         1 RES1    0.0000
     17 H7         3.6100    4.4390    3.1605 H         1 RES1    0.0000
@<TRIPOS>BOND
     1    1    2 1
     2    2    3 2
     3    3    4 1
     4    4    5 1
     5    5    6 ar
     6    6    7 ar
     7    7    8 ar
     8    8    9 ar
     9    9   10 ar
    10   10    3 1
    11   11    1 1
    12   12    4 1
    13   13    4 1
    14   14    6 1
    15   15    7 1
    16   16    8 1
    17   17    9 1
    18    5   10 ar
@<TRIPOS>SUBSTRUCTURE
     1 RES1 1

@<TRIPOS>CRYSIN
  15.3490    5.2595    8.7040  90.0000 103.8600  90.0000  14 1

