# MOL2 file generated by ConQuest
# Please check atom types

@<TRIPOS>MOLECULE
DOYCID
    34    36     2
SMALL
USER_CHARGES
****
Generated from CSD

@<TRIPOS>ATOM
      1 C1         1.7250    2.4460    2.1395 C.2       1 RES1    0.0000
      2 C2         0.7681    1.2723    2.1323 C.2       1 RES1    0.0000
      3 C3         0.7703    0.6904    3.4473 C.2       1 RES1    0.0000
      4 C4         1.5738    1.0849    4.5703 C.2       1 RES1    0.0000
      5 C5         2.4460    2.1156    4.4921 C.2       1 RES1    0.0000
      6 C6         2.5261    2.8504    3.1701 C.2       1 RES1    0.0000
      7 N1         3.2245    3.8170    2.7934 N.2       1 RES1    0.0000
      8 N2         1.9500    3.1463    1.0164 N.pl3     1 RES1    1.0000
      9 N3         0.0850    0.9459    1.0875 N.pl3     1 RES1    0.0000
     10 N4        -0.0405   -0.3748    3.7743 N.pl3     1 RES1    0.0000
     11 N5         3.2228    2.6137    5.5086 N.pl3     1 RES1    0.0000
     12 O1         2.9036    4.1227    1.3647 O.3       1 RES1    0.0000
     13 O2         1.3279    3.0970   -0.0370 O.2       1 RES1   -1.0000
     14 O3        -0.6863   -1.0258    2.9284 O.2       1 RES1    0.0000
     15 O4        -0.0157   -0.8719    4.9897 O.2       1 RES1    0.0000
     16 O5         3.0851    2.0219    6.6316 O.2       1 RES1    0.0000
     17 O6         3.9739    3.5211    5.4162 O.2       1 RES1    0.0000
     18 C7        -4.3421    2.5299    2.1750 C.2       2 RES2    0.0000
     19 C8        -5.1634    3.5605    2.2816 C.2       2 RES2    0.0000
     20 C9        -5.2169    4.1819    3.5184 C.2       2 RES2    0.0000
     21 C10       -4.4630    3.7381    4.6201 C.2       2 RES2    0.0000
     22 C11       -3.5594    2.6531    4.4140 C.2       2 RES2    0.0000
     23 C12       -3.4629    2.0614    3.2696 C.2       2 RES2    0.0000
     24 N6        -2.7021    0.9962    2.7578 N.2       2 RES2    0.0000
     25 N7        -4.1353    1.6915    1.0875 N.pl3     2 RES2    1.0000
     26 N8        -5.9230    4.0537    1.2368 N.pl3     2 RES2    0.0000
     27 N9        -5.9722    5.3852    3.7743 N.pl3     2 RES2    0.0000
     28 N10       -2.6716    2.4164    5.6578 N.pl3     2 RES2    0.0000
     29 O7        -3.1455    0.7989    1.3078 O.3       2 RES2    0.0000
     30 O8        -4.5780    1.6964   -0.0498 O.2       2 RES2   -1.0000
     31 O9        -6.6198    5.9405    2.9583 O.2       2 RES2    0.0000
     32 O10       -5.8850    5.7107    4.9968 O.2       2 RES2    0.0000
     33 O11       -2.7523    3.0082    6.6245 O.2       2 RES2    0.0000
     34 O12       -1.8625    1.4301    5.4019 O.2       2 RES2    0.0000
@<TRIPOS>BOND
     1    1    2 1
     2    2    3 2
     3    3    4 1
     4    4    5 2
     5    5    6 1
     6    6    1 1
     7    7    6 2
     8    8    1 2
     9    9    2 1
    10   10    3 1
    11   11    5 1
    12   12    7 1
    13   13    8 1
    14   14   10 2
    15   15   10 2
    16   16   11 2
    17   17   11 2
    18   18   19 1
    19   19   20 2
    20   20   21 1
    21   21   22 2
    22   22   23 1
    23   23   18 1
    24   24   23 2
    25   25   18 2
    26   26   19 1
    27   27   20 1
    28   28   22 1
    29   29   24 1
    30   30   25 1
    31   31   27 2
    32   32   27 2
    33   33   28 2
    34   34   28 2
    35    8   12 1
    36   25   29 1
@<TRIPOS>SUBSTRUCTURE
     1 RES1 1
     2 RES2 18

@<TRIPOS>CRYSIN
  11.9590    9.8630    7.1800  90.0000  98.1310  90.0000   4 1

