# MOL2 file generated by ConQuest
# Please check atom types

@<TRIPOS>MOLECULE
DOYGAB
    56    58     1
SMALL
NO_CHARGES
****
Generated from CSD

@<TRIPOS>ATOM
      1 O1        -1.0970    0.9881   -7.0603 O.3       1 RES1    0.0000
      2 O2         4.3705    0.6575   -1.2705 O.2       1 RES1    0.0000
      3 O3         5.7972    1.2300    0.2437 O.2       1 RES1    0.0000
      4 O4         1.9550    3.7833    0.0220 O.3       1 RES1    0.0000
      5 N1         4.7234    1.3724   -0.3444 N.pl3     1 RES1    0.0000
      6 N2         2.2901    4.2110    1.3867 N.3       1 RES1    0.0000
      7 C1         2.3108    2.4922   -1.8601 C.ar      1 RES1    0.0000
      8 C2         1.0354    2.0116   -2.0153 C.ar      1 RES1    0.0000
      9 H1         0.4906    1.8624   -1.2522 H         1 RES1    0.0000
     10 C3         0.5277    1.7386   -3.3077 C.ar      1 RES1    0.0000
     11 C4         1.3266    1.9843   -4.4435 C.ar      1 RES1    0.0000
     12 C5         2.6493    2.4726   -4.2510 C.ar      1 RES1    0.0000
     13 H2         3.2058    2.6316   -5.0040 H         1 RES1    0.0000
     14 C6         3.1273    2.7160   -2.9937 C.ar      1 RES1    0.0000
     15 H3         4.0141    3.0372   -2.8798 H         1 RES1    0.0000
     16 C7        -0.7859    1.2261   -3.4831 C.ar      1 RES1    0.0000
     17 H4        -1.3289    1.0442   -2.7253 H         1 RES1    0.0000
     18 C8        -1.2684    0.9927   -4.7373 C.ar      1 RES1    0.0000
     19 H5        -2.1464    0.6457   -4.8448 H         1 RES1    0.0000
     20 C9        -0.4776    1.2596   -5.8780 C.ar      1 RES1    0.0000
     21 C10        0.7995    1.7433   -5.7403 C.ar      1 RES1    0.0000
     22 H6         1.3287    1.9160   -6.5092 H         1 RES1    0.0000
     23 C11       -0.3949    1.2477   -8.2604 C.3       1 RES1    0.0000
     24 H7        -0.2632    2.2144   -8.3590 H         1 RES1    0.0000
     25 H8        -0.9111    0.9091   -9.0207 H         1 RES1    0.0000
     26 H9         0.4773    0.8018   -8.2318 H         1 RES1    0.0000
     27 C12        2.7890    2.8516   -0.5049 C.2       1 RES1    0.0000
     28 C13        3.8879    2.4267    0.1435 C.2       1 RES1    0.0000
     29 H10        4.1200    2.8460    0.9635 H         1 RES1    0.0000
     30 C14        1.1510    3.7712    2.2468 C.3       1 RES1    0.0000
     31 C15        1.4491    4.3273    3.6478 C.3       1 RES1    0.0000
     32 H11        0.6830    4.1257    4.2413 H         1 RES1    0.0000
     33 H12        2.2430    3.8646    4.0143 H         1 RES1    0.0000
     34 C16        1.7009    5.8137    3.6645 C.3       1 RES1    0.0000
     35 H13        1.9206    6.1070    4.5846 H         1 RES1    0.0000
     36 H14        0.8884    6.2958    3.3704 H         1 RES1    0.0000
     37 C17        2.8598    6.1324    2.7296 C.3       1 RES1    0.0000
     38 H15        3.6793    5.6967    3.0722 H         1 RES1    0.0000
     39 H16        3.0140    7.1092    2.7301 H         1 RES1    0.0000
     40 C18        2.6099    5.6674    1.2930 C.3       1 RES1    0.0000
     41 C19        1.5558    6.5494    0.6030 C.3       1 RES1    0.0000
     42 H17        1.2602    6.1163   -0.2257 H         1 RES1    0.0000
     43 H18        1.9475    7.4239    0.3944 H         1 RES1    0.0000
     44 H19        0.7888    6.6687    1.2011 H         1 RES1    0.0000
     45 C20        3.9104    5.7893    0.4966 C.3       1 RES1    0.0000
     46 H20        4.5678    5.1513    0.8447 H         1 RES1    0.0000
     47 H21        4.2620    6.6990    0.5833 H         1 RES1    0.0000
     48 H22        3.7346    5.5942   -0.4479 H         1 RES1    0.0000
     49 C21       -0.2515    4.1914    1.7642 C.3       1 RES1    0.0000
     50 H23       -0.3882    5.1443    1.9472 H         1 RES1    0.0000
     51 H24       -0.9306    3.6665    2.2382 H         1 RES1    0.0000
     52 H25       -0.3278    4.0301    0.8007 H         1 RES1    0.0000
     53 C22        1.1935    2.2379    2.2953 C.3       1 RES1    0.0000
     54 H26        1.0526    1.8787    1.3947 H         1 RES1    0.0000
     55 H27        0.4881    1.9090    2.8917 H         1 RES1    0.0000
     56 H28        2.0673    1.9463    2.6303 H         1 RES1    0.0000
@<TRIPOS>BOND
     1    1   20 1
     2    2    5 2
     3    3    5 2
     4    4    6 1
     5    5   28 1
     6    6   30 1
     7    7    8 ar
     8    8    9 1
     9   10    8 ar
    10   11   10 ar
    11   12   11 ar
    12   13   12 1
    13   14    7 ar
    14   15   14 1
    15   16   10 ar
    16   17   16 1
    17   18   16 ar
    18   19   18 1
    19   20   18 ar
    20   21   11 ar
    21   22   21 1
    22   23    1 1
    23   24   23 1
    24   25   23 1
    25   26   23 1
    26   27    4 1
    27   28   27 2
    28   29   28 1
    29   30   31 1
    30   31   32 1
    31   33   31 1
    32   34   31 1
    33   35   34 1
    34   36   34 1
    35   37   34 1
    36   38   37 1
    37   39   37 1
    38   40    6 1
    39   41   40 1
    40   42   41 1
    41   43   41 1
    42   44   41 1
    43   45   40 1
    44   46   45 1
    45   47   45 1
    46   48   45 1
    47   49   30 1
    48   50   49 1
    49   51   49 1
    50   52   49 1
    51   53   30 1
    52   54   53 1
    53   55   53 1
    54   56   53 1
    55    7   27 1
    56   12   14 ar
    57   20   21 ar
    58   37   40 1
@<TRIPOS>SUBSTRUCTURE
     1 RES1 1

@<TRIPOS>CRYSIN
   7.5640   23.3090   12.0810  90.0000 100.4590  90.0000 231 1

