# MOL2 file generated by ConQuest
# Please check atom types

@<TRIPOS>MOLECULE
DOYGEF
    48    48     2
SMALL
NO_CHARGES
****
Generated from CSD

@<TRIPOS>ATOM
      1 O1         7.8660    9.8927    1.0598 O.3       1 RES1    0.0000
      2 O2        11.8754    7.6084    1.3392 O.2       1 RES1    0.0000
      3 O3        11.6309    8.8913   -0.3441 O.2       1 RES1    0.0000
      4 N1         9.1642   13.0369   -5.3008 N.1       1 RES1    0.0000
      5 N2         7.5759    9.3858    2.4102 N.3       1 RES1    0.0000
      6 N3        11.2120    8.3947    0.6854 N.pl3     1 RES1    0.0000
      7 C1         9.2091   12.4229   -4.3349 C.1       1 RES1    0.0000
      8 C2         9.2471   11.6777   -3.1122 C.ar      1 RES1    0.0000
      9 C3         9.1165   10.2987   -3.1268 C.ar      1 RES1    0.0000
     10 H1         9.0239    9.8374   -3.9523 H         1 RES1    0.0000
     11 C4         9.1222    9.5958   -1.9375 C.ar      1 RES1    0.0000
     12 H2         9.0498    8.6487   -1.9463 H         1 RES1    0.0000
     13 C5         9.2343   10.2686   -0.7343 C.ar      1 RES1    0.0000
     14 C6         9.0790    9.5522    0.5686 C.2       1 RES1    0.0000
     15 C7         6.4353    8.4278    2.2557 C.3       1 RES1    0.0000
     16 C8         6.0124    8.0449    3.6860 C.3       1 RES1    0.0000
     17 H3         5.2069    7.4711    3.6379 H         1 RES1    0.0000
     18 H4         6.7364    7.5114    4.1006 H         1 RES1    0.0000
     19 C9         5.7131    9.2299    4.5712 C.3       1 RES1    0.0000
     20 H5         5.4763    8.9195    5.4814 H         1 RES1    0.0000
     21 H6         4.9457    9.7388    4.2058 H         1 RES1    0.0000
     22 C10        9.3764   12.3462   -1.9073 C.ar      1 RES1    0.0000
     23 H7         9.4703   13.2911   -1.8937 H         1 RES1    0.0000
     24 C11        9.3678   11.6337   -0.7239 C.ar      1 RES1    0.0000
     25 H8         9.4553   12.0926    0.1040 H         1 RES1    0.0000
     26 C12        9.9197    8.7341    1.2008 C.2       1 RES1    0.0000
     27 H9         9.6497    8.3599    2.0312 H         1 RES1    0.0000
     28 C13        7.4140   10.6045    3.2588 C.3       1 RES1    0.0000
     29 C14        6.9385   10.1160    4.6317 C.3       1 RES1    0.0000
     30 H10        7.6745    9.6152    5.0641 H         1 RES1    0.0000
     31 H11        6.7361   10.9025    5.1980 H         1 RES1    0.0000
     32 C15        8.8108   11.2257    3.4036 C.3       1 RES1    0.0000
     33 H12        9.4544   10.5290    3.6487 H         1 RES1    0.0000
     34 H13        8.7917   11.9135    4.1006 H         1 RES1    0.0000
     35 H14        9.0769   11.6316    2.5512 H         1 RES1    0.0000
     36 C16        6.4734   11.6937    2.7042 C.3       1 RES1    0.0000
     37 H15        6.7713   11.9579    1.8088 H         1 RES1    0.0000
     38 H16        6.4919   12.4731    3.2984 H         1 RES1    0.0000
     39 H17        5.5608   11.3413    2.6552 H         1 RES1    0.0000
     40 C17        6.9977    7.1796    1.5816 C.3       1 RES1    0.0000
     41 H18        7.2574    7.3947    0.6611 H         1 RES1    0.0000
     42 H19        6.3138    6.4768    1.5721 H         1 RES1    0.0000
     43 H20        7.7817    6.8656    2.0778 H         1 RES1    0.0000
     44 C18        5.2433    8.9375    1.4382 C.3       1 RES1    0.0000
     45 H21        4.7962    9.6597    1.9295 H         1 RES1    0.0000
     46 H22        4.6119    8.2043    1.2887 H         1 RES1    0.0000
     47 H23        5.5589    9.2778    0.5762 H         1 RES1    0.0000
     48 H24       11.4798    7.2489    1.8530 Du        2 SUP2    0.0000
@<TRIPOS>BOND
     1    1    5 1
     2    2    6 2
     3    3    6 2
     4    4    7 3
     5    5   15 1
     6    6   26 1
     7    7    8 1
     8    8    9 ar
     9    9   10 1
    10   11    9 ar
    11   12   11 1
    12   13   11 ar
    13   14    1 1
    14   15   16 1
    15   16   17 1
    16   18   16 1
    17   19   16 1
    18   20   19 1
    19   21   19 1
    20   22    8 ar
    21   23   22 1
    22   24   13 ar
    23   25   24 1
    24   26   14 2
    25   27   26 1
    26   28    5 1
    27   29   19 1
    28   30   29 1
    29   31   29 1
    30   32   28 1
    31   33   32 1
    32   34   32 1
    33   35   32 1
    34   36   28 1
    35   37   36 1
    36   38   36 1
    37   39   36 1
    38   40   15 1
    39   41   40 1
    40   42   40 1
    41   43   40 1
    42   44   15 1
    43   45   44 1
    44   46   44 1
    45   47   44 1
    46   13   14 1
    47   22   24 ar
    48   28   29 1
@<TRIPOS>SUBSTRUCTURE
     1 RES1 1
     2 SUP2 48

@<TRIPOS>CRYSIN
  21.8410   13.8868   11.9765  90.0000  93.4350  90.0000  15 1

