# MOL2 file generated by ConQuest
# Please check atom types

@<TRIPOS>MOLECULE
DOYLAG
    35    37     1
SMALL
NO_CHARGES
****
Generated from CSD

@<TRIPOS>ATOM
      1 C1         8.1043    6.5789    8.6344 C.2       1 RES1    0.0000
      2 H1         7.2859    6.3646    8.2491 H         1 RES1    0.0000
      3 C2         8.2595    7.1845    9.8715 C.2       1 RES1    0.0000
      4 C3         9.6807    7.3209   10.0732 C.ar      1 RES1    0.0000
      5 C4        10.2952    6.7878    8.9292 C.ar      1 RES1    0.0000
      6 C5        11.6700    6.7714    8.7582 C.ar      1 RES1    0.0000
      7 H2        12.0603    6.4036    7.9978 H         1 RES1    0.0000
      8 C6        12.4307    7.3209    9.7599 C.ar      1 RES1    0.0000
      9 H3        13.3569    7.3357    9.6718 H         1 RES1    0.0000
     10 C7        11.8457    7.8587   10.9081 C.ar      1 RES1    0.0000
     11 H4        12.3897    8.2133   11.5748 H         1 RES1    0.0000
     12 C8        10.4823    7.8727   11.0716 C.ar      1 RES1    0.0000
     13 H5        10.1002    8.2445   11.8343 H         1 RES1    0.0000
     14 C9         9.5323    5.7255    6.7716 C.3       1 RES1    0.0000
     15 H6         8.7721    5.1916    6.5293 H         1 RES1    0.0000
     16 H7        10.3129    5.1674    6.8194 H         1 RES1    0.0000
     17 H8         9.6667    6.4082    6.1101 H         1 RES1    0.0000
     18 C10        7.2260    7.6334   10.7500 C.2       1 RES1    0.0000
     19 C11        5.7666    7.5119   10.2818 C.2       1 RES1    0.0000
     20 C12        4.7310    7.0559   11.2515 C.ar      1 RES1    0.0000
     21 C13        3.3998    7.2952   10.9409 C.ar      1 RES1    0.0000
     22 H9         3.1790    7.7504   10.1604 H         1 RES1    0.0000
     23 C14        2.4065    6.8595   11.7853 C.ar      1 RES1    0.0000
     24 H10        1.5123    7.0317   11.5928 H         1 RES1    0.0000
     25 C15        2.7573    6.1651   12.9196 C.ar      1 RES1    0.0000
     26 C16        4.0580    5.9063   13.2550 C.ar      1 RES1    0.0000
     27 H11        4.2672    5.4332   14.0274 H         1 RES1    0.0000
     28 C17        5.0521    6.3669   12.4152 C.ar      1 RES1    0.0000
     29 H12        5.9443    6.2142   12.6297 H         1 RES1    0.0000
     30 N1         9.2977    6.3453    8.0699 N.3       1 RES1    0.0000
     31 N2         1.6816    5.6982   13.8114 N.pl3     1 RES1    0.0000
     32 O1         7.4155    8.1788   11.8311 O.2       1 RES1    0.0000
     33 O2         5.4788    7.8602    9.1559 O.2       1 RES1    0.0000
     34 O3         1.9619    4.9188   14.7046 O.2       1 RES1    0.0000
     35 O4         0.5573    6.1253   13.6137 O.2       1 RES1    0.0000
@<TRIPOS>BOND
     1    1    2 1
     2    3    1 2
     3    4    3 1
     4    5    4 ar
     5    6    5 ar
     6    7    6 1
     7    8    6 ar
     8    9    8 1
     9   10    8 ar
    10   11   10 1
    11   12    4 ar
    12   13   12 1
    13   14   15 1
    14   16   14 1
    15   17   14 1
    16   18    3 1
    17   19   18 1
    18   20   19 1
    19   21   20 ar
    20   22   21 1
    21   23   21 ar
    22   24   23 1
    23   25   23 ar
    24   26   25 ar
    25   27   26 1
    26   28   20 ar
    27   29   28 1
    28   30    1 1
    29   31   25 1
    30   32   18 2
    31   33   19 2
    32   34   31 2
    33   35   31 2
    34    5   30 1
    35   10   12 ar
    36   14   30 1
    37   26   28 ar
@<TRIPOS>SUBSTRUCTURE
     1 RES1 1

@<TRIPOS>CRYSIN
  13.3890    7.7940   13.8810  90.0000  90.5790  90.0000  14 1

