# MOL2 file generated by ConQuest
# Please check atom types

@<TRIPOS>MOLECULE
DOYTUG
    18    18     1
SMALL
NO_CHARGES
****
Generated from CSD

@<TRIPOS>ATOM
      1 N1         3.9415    4.8846    7.4418 N.2       1 RES1    0.0000
      2 N2         4.5132    3.7775    6.6846 N.pl3     1 RES1    0.0000
      3 N3         5.2372    2.9692    7.3319 N.2       1 RES1    0.0000
      4 C1         5.2511    3.4641    8.7088 C.3       1 RES1    0.0000
      5 C2         4.4206    4.6947    8.6110 C.2       1 RES1    0.0000
      6 C3         4.1611    5.6358    9.7316 C.3       1 RES1    0.0000
      7 C4         6.6866    3.7559    9.1412 C.3       1 RES1    0.0000
      8 C5         4.6039    2.4126    9.6156 C.3       1 RES1    0.0000
      9 O1         4.2506    3.7297    5.4725 O.2       1 RES1    0.0000
     10 H1         4.8452    6.0373    9.8961 H         1 RES1    0.0000
     11 H2         4.0885    5.1657   10.5555 H         1 RES1    0.0000
     12 H3         3.3415    6.2928    9.4731 H         1 RES1    0.0000
     13 H4         7.1396    2.9461    9.1427 H         1 RES1    0.0000
     14 H5         7.0834    4.4554    8.5449 H         1 RES1    0.0000
     15 H6         6.6436    4.0879   10.1282 H         1 RES1    0.0000
     16 H7         4.6916    2.8287   10.5497 H         1 RES1    0.0000
     17 H8         5.2003    1.5857    9.4834 H         1 RES1    0.0000
     18 H9         3.7655    2.2412    9.2675 H         1 RES1    0.0000
@<TRIPOS>BOND
     1    1    2 1
     2    2    3 2
     3    3    4 1
     4    4    5 1
     5    5    1 2
     6    6    5 1
     7    7    4 1
     8    8    4 1
     9    9    2 1
    10   10    6 1
    11   11    6 1
    12   12    6 1
    13   13    7 1
    14   14    7 1
    15   15    7 1
    16   16    8 1
    17   17    8 1
    18   18    8 1
@<TRIPOS>SUBSTRUCTURE
     1 RES1 1

@<TRIPOS>CRYSIN
   6.0490    7.7203   14.6870  90.0000  90.0000  90.0000  19 1

