# MOL2 file generated by ConQuest
# Please check atom types

@<TRIPOS>MOLECULE
DOZHIL
    66    70     1
SMALL
NO_CHARGES
****
Generated from CSD

@<TRIPOS>ATOM
      1 O1         5.5055    7.5747    1.6061 O.2       1 RES1    0.0000
      2 O2         7.5982    7.3941    1.1964 O.2       1 RES1    0.0000
      3 C1        10.6471    3.7392    0.7522 C.2       1 RES1    0.0000
      4 N1        11.5755    3.3923    1.6386 N.2       1 RES1    0.0000
      5 N2        11.1544    2.1980    2.1691 N.pl3     1 RES1    0.0000
      6 C2         9.9731    1.8290    1.5926 C.2       1 RES1    0.0000
      7 O3         9.3944    0.6601    1.8961 O.3       1 RES1    0.0000
      8 C3         8.0048    0.5706    1.4268 C.3       1 RES1    0.0000
      9 C4         7.9702    1.0867   -0.0284 C.3       1 RES1    0.0000
     10 H1         8.6355    0.5573   -0.5165 H         1 RES1    0.0000
     11 C5         6.6547    0.8590   -0.7453 C.3       1 RES1    0.0000
     12 H2         6.7756    1.0375   -1.6909 H         1 RES1    0.0000
     13 H3         6.4011   -0.0726   -0.6500 H         1 RES1    0.0000
     14 O4         5.5902    1.6846   -0.2473 O.3       1 RES1    0.0000
     15 C6         5.8961    2.9663    0.0870 C.ar      1 RES1    0.0000
     16 C7         4.8019    3.7537    0.4410 C.ar      1 RES1    0.0000
     17 H4         3.9463    3.3903    0.4192 H         1 RES1    0.0000
     18 C8         4.9766    5.0454    0.8163 C.ar      1 RES1    0.0000
     19 H5         4.2493    5.5764    1.0503 H         1 RES1    0.0000
     20 C9         6.2511    5.5503    0.8420 C.ar      1 RES1    0.0000
     21 C10        7.3503    4.7762    0.5187 C.ar      1 RES1    0.0000
     22 H6         8.2034    5.1456    0.5558 H         1 RES1    0.0000
     23 C11        7.1918    3.4631    0.1424 C.ar      1 RES1    0.0000
     24 C12        8.3900    2.5706   -0.2124 C.3       1 RES1    0.0000
     25 C13        9.5931    2.7902    0.6783 C.2       1 RES1    0.0000
     26 C14       10.8488    5.0257    0.0336 C.3       1 RES1    0.0000
     27 H7        10.2948    5.7029    0.4286 H         1 RES1    0.0000
     28 H8        10.6107    4.9171   -0.8902 H         1 RES1    0.0000
     29 H9        11.7696    5.2877    0.0989 H         1 RES1    0.0000
     30 C15       11.9401    1.5777    3.1743 C.ar      1 RES1    0.0000
     31 C16       11.4328    0.5959    3.9737 C.ar      1 RES1    0.0000
     32 H10       10.5575    0.3041    3.8576 H         1 RES1    0.0000
     33 C17       12.2266    0.0401    4.9550 C.ar      1 RES1    0.0000
     34 H11       11.8829   -0.6376    5.4920 H         1 RES1    0.0000
     35 C18       13.5160    0.4678    5.1528 C.ar      1 RES1    0.0000
     36 H12       14.0423    0.0895    5.8185 H         1 RES1    0.0000
     37 C19       14.0057    1.4435    4.3673 C.ar      1 RES1    0.0000
     38 H13       14.8799    1.7368    4.4950 H         1 RES1    0.0000
     39 C20       13.2344    2.0163    3.3740 C.ar      1 RES1    0.0000
     40 H14       13.5844    2.6955    2.8433 H         1 RES1    0.0000
     41 C21        7.1340    1.3272    2.4166 C.3       1 RES1    0.0000
     42 H15        7.2685    0.9711    3.2986 H         1 RES1    0.0000
     43 H16        6.2115    1.2304    2.1698 H         1 RES1    0.0000
     44 H17        7.3729    2.2571    2.4069 H         1 RES1    0.0000
     45 N3         6.4710    6.9311    1.2389 N.pl3     1 RES1    0.0000
     46 C22        8.7772    2.8365   -1.6680 C.3       1 RES1    0.0000
     47 H18        9.0540    3.7500   -1.7631 H         1 RES1    0.0000
     48 H19        8.0202    2.6708   -2.2357 H         1 RES1    0.0000
     49 H20        9.4991    2.2556   -1.9186 H         1 RES1    0.0000
     50 C23        7.6982   -0.9255    1.4735 C.3       1 RES1    0.0000
     51 H21        8.2860   -1.3725    0.8447 H         1 RES1    0.0000
     52 H22        6.7893   -1.0560    1.1618 H         1 RES1    0.0000
     53 C24        7.8388   -1.6206    2.8326 C.3       1 RES1    0.0000
     54 H23        8.7754   -1.6704    3.0804 H         1 RES1    0.0000
     55 H24        7.3709   -1.1100    3.5122 H         1 RES1    0.0000
     56 C25        7.2635   -3.0000    2.7507 C.2       1 RES1    0.0000
     57 H25        7.8123   -3.6589    2.3880 H         1 RES1    0.0000
     58 C26        6.0747   -3.3756    3.1322 C.2       1 RES1    0.0000
     59 C27        5.1169   -2.5041    3.8717 C.3       1 RES1    0.0000
     60 H26        5.2401   -2.6230    4.8153 H         1 RES1    0.0000
     61 H27        4.2187   -2.7434    3.6330 H         1 RES1    0.0000
     62 H28        5.2763   -1.5871    3.6409 H         1 RES1    0.0000
     63 C28        5.5385   -4.7350    2.8433 C.3       1 RES1    0.0000
     64 H29        6.1968   -5.2444    2.3645 H         1 RES1    0.0000
     65 H30        4.7439   -4.6593    2.3079 H         1 RES1    0.0000
     66 H31        5.3280   -5.1796    3.6676 H         1 RES1    0.0000
@<TRIPOS>BOND
     1    1   45 2
     2    2   45 2
     3    3    4 2
     4    4    5 1
     5    5    6 1
     6    6    7 1
     7    7    8 1
     8    8    9 1
     9    9   10 1
    10   11    9 1
    11   12   11 1
    12   13   11 1
    13   14   11 1
    14   15   14 1
    15   16   15 ar
    16   17   16 1
    17   18   16 ar
    18   19   18 1
    19   20   18 ar
    20   21   20 ar
    21   22   21 1
    22   23   15 ar
    23   24    9 1
    24   25    3 1
    25   26    3 1
    26   27   26 1
    27   28   26 1
    28   29   26 1
    29   30    5 1
    30   31   30 ar
    31   32   31 1
    32   33   31 ar
    33   34   33 1
    34   35   33 ar
    35   36   35 1
    36   37   35 ar
    37   38   37 1
    38   39   30 ar
    39   40   39 1
    40   41    8 1
    41   42   41 1
    42   43   41 1
    43   44   41 1
    44   45   20 1
    45   46   24 1
    46   47   46 1
    47   48   46 1
    48   49   46 1
    49   50    8 1
    50   51   50 1
    51   52   50 1
    52   53   50 1
    53   54   53 1
    54   55   53 1
    55   56   53 1
    56   57   56 1
    57   58   56 2
    58   59   58 1
    59   60   59 1
    60   61   59 1
    61   62   59 1
    62   63   58 1
    63   64   63 1
    64   65   63 1
    65   66   63 1
    66    6   25 2
    67   21   23 ar
    68   23   24 1
    69   24   25 1
    70   37   39 ar
@<TRIPOS>SUBSTRUCTURE
     1 RES1 1

@<TRIPOS>CRYSIN
  10.0801   15.4384   15.7805  90.0000  95.7800  90.0000 231 1

