# MOL2 file generated by ConQuest
# Please check atom types

@<TRIPOS>MOLECULE
DOZMIQ
    92    94     2
SMALL
NO_CHARGES
****
Generated from CSD

@<TRIPOS>ATOM
      1 N1         4.2455    8.0755    4.8781 N.3       1 RES1    0.0000
      2 O1         4.6251    7.5344    6.2061 O.3       1 RES1    0.0000
      3 C1         6.6850    8.6593    5.9197 C.2       1 RES1    0.0000
      4 H1         6.4122    8.9328    5.0728 H         1 RES1    0.0000
      5 C2         5.3995    7.9018    9.1028 C.ar      1 RES1    0.0000
      6 H2         4.9113    8.6864    8.9965 H         1 RES1    0.0000
      7 C3         6.1838    6.1317   10.5103 C.ar      1 RES1    0.0000
      8 H3         6.2414    5.7216   11.3427 H         1 RES1    0.0000
      9 O2         8.6942    9.6604    5.5751 O.2       1 RES1    0.0000
     10 C4         3.4468    7.3749    2.6930 C.3       1 RES1    0.0000
     11 H4         4.0828    7.9402    2.2287 H         1 RES1    0.0000
     12 H5         3.2511    6.6159    2.1213 H         1 RES1    0.0000
     13 C5         4.0779    6.8736    3.9909 C.3       1 RES1    0.0000
     14 C6         3.6200   10.2257    5.8481 C.3       1 RES1    0.0000
     15 H6         3.9776    9.9993    6.7096 H         1 RES1    0.0000
     16 H7         2.9171   10.8722    5.9522 H         1 RES1    0.0000
     17 H8         4.3167   10.5974    5.3010 H         1 RES1    0.0000
     18 C7         5.8420    7.9018    6.6425 C.2       1 RES1    0.0000
     19 C8         5.4796    6.3681    3.6530 C.3       1 RES1    0.0000
     20 H9         5.9029    6.0420    4.4507 H         1 RES1    0.0000
     21 H10        5.9986    7.0872    3.2860 H         1 RES1    0.0000
     22 H11        5.4175    5.6590    3.0108 H         1 RES1    0.0000
     23 C9         6.6944    6.1431    8.1574 C.ar      1 RES1    0.0000
     24 H12        7.0939    5.7387    7.4212 H         1 RES1    0.0000
     25 C10        6.0151    7.3194    8.0153 C.ar      1 RES1    0.0000
     26 O3         8.3394    8.7904    7.5185 O.2       1 RES1    0.0000
     27 C11        3.2764    5.7145    4.6174 C.3       1 RES1    0.0000
     28 H13        3.7027    5.4326    5.4297 H         1 RES1    0.0000
     29 H14        3.2430    4.9783    4.0009 H         1 RES1    0.0000
     30 H15        2.3834    6.0093    4.8110 H         1 RES1    0.0000
     31 C12        3.0620    8.9669    5.1779 C.3       1 RES1    0.0000
     32 N2         7.9770    9.0695    6.3751 N.pl3     1 RES1    0.0000
     33 C13        5.5077    7.3094   10.3727 C.ar      1 RES1    0.0000
     34 H16        5.1221    7.7181   11.1145 H         1 RES1    0.0000
     35 C14        2.1749    8.1538    2.9347 C.3       1 RES1    0.0000
     36 H17        1.5159    7.5842    3.3621 H         1 RES1    0.0000
     37 H18        1.8106    8.4614    2.0900 H         1 RES1    0.0000
     38 C15        6.7813    5.5550    9.4138 C.ar      1 RES1    0.0000
     39 H19        7.2512    4.7576    9.5145 H         1 RES1    0.0000
     40 C16        2.4815    9.3329    3.8174 C.3       1 RES1    0.0000
     41 H20        1.6649    9.8384    3.9551 H         1 RES1    0.0000
     42 H21        3.1099    9.9110    3.3576 H         1 RES1    0.0000
     43 C17        1.9851    8.3532    6.0987 C.3       1 RES1    0.0000
     44 H22        1.6218    7.5657    5.6859 H         1 RES1    0.0000
     45 H23        1.2836    8.9926    6.2420 H         1 RES1    0.0000
     46 H24        2.3807    8.1182    6.9412 H         1 RES1    0.0000
     47 O4         9.9327   11.8349   10.5785 O.3       2 RES2    0.0000
     48 C18        9.3127   12.5041   12.7815 C.3       2 RES2    0.0000
     49 C19        7.2837   11.0104   10.6759 C.3       2 RES2    0.0000
     50 H25        7.6913   11.2638    9.8446 H         2 RES2    0.0000
     51 H26        6.8941   11.7822   11.0910 H         2 RES2    0.0000
     52 H27        6.6006   10.3568   10.5092 H         2 RES2    0.0000
     53 C20       10.8021   11.4618    7.6606 C.ar      2 RES2    0.0000
     54 H28       10.3030   10.6814    7.7490 H         2 RES2    0.0000
     55 C21       11.9924   10.7056   10.8582 C.2       2 RES2    0.0000
     56 H29       11.7182   10.4223   11.6996 H         2 RES2    0.0000
     57 C22        8.3382   10.4166   11.5967 C.3       2 RES2    0.0000
     58 C23       12.0745   13.2275    8.6251 C.ar      2 RES2    0.0000
     59 H30       12.4557   13.6348    9.3691 H         2 RES2    0.0000
     60 C24        8.5295   13.6433   12.1751 C.3       2 RES2    0.0000
     61 H31        7.6437   13.3429   11.9581 H         2 RES2    0.0000
     62 H32        8.9699   13.9452   11.3774 H         2 RES2    0.0000
     63 H33        8.4765   14.3653   12.8050 H         2 RES2    0.0000
     64 C25       11.3859   12.0456    8.7716 C.ar      2 RES2    0.0000
     65 O5        13.9756    9.7088   11.2028 O.2       2 RES2    0.0000
     66 C26        8.6255   12.0015   14.0805 C.3       2 RES2    0.0000
     67 H34        9.2534   11.4490   14.5716 H         2 RES2    0.0000
     68 H35        8.4112   12.7676   14.6354 H         2 RES2    0.0000
     69 N3         9.5132   11.3066   11.9066 N.3       2 RES2    0.0000
     70 C27       11.1628   11.4532   10.1344 C.2       2 RES2    0.0000
     71 N4        13.2919   10.3197   10.3906 N.pl3     2 RES2    0.0000
     72 O6        13.6864   10.5817    9.2606 O.2       2 RES2    0.0000
     73 C28       12.2053   13.8228    7.3641 C.ar      2 RES2    0.0000
     74 H36       12.6776   14.6174    7.2690 H         2 RES2    0.0000
     75 C29       10.9673   12.0542    6.4064 C.ar      2 RES2    0.0000
     76 H37       10.6142   11.6384    5.6534 H         2 RES2    0.0000
     77 C30       11.6352   13.2261    6.2699 C.ar      2 RES2    0.0000
     78 H38       11.7059   13.6248    5.4330 H         2 RES2    0.0000
     79 C31        7.3567   11.2012   13.8399 C.3       2 RES2    0.0000
     80 H39        6.6901   11.7565   13.4047 H         2 RES2    0.0000
     81 H40        6.9930   10.8893   14.6835 H         2 RES2    0.0000
     82 C32        7.7136   10.0136   12.9505 C.3       2 RES2    0.0000
     83 H41        8.3386    9.4440   13.4248 H         2 RES2    0.0000
     84 H42        6.9109    9.4952   12.7815 H         2 RES2    0.0000
     85 C33       10.7099   13.0097   13.1283 C.3       2 RES2    0.0000
     86 H43       11.2201   12.2977   13.5199 H         2 RES2    0.0000
     87 H44       10.6420   13.7359   13.7515 H         2 RES2    0.0000
     88 H45       11.1471   13.3144   12.3295 H         2 RES2    0.0000
     89 C34        8.9142    9.1620   10.9287 C.3       2 RES2    0.0000
     90 H46        9.3037    9.3984   10.0840 H         2 RES2    0.0000
     91 H47        8.2112    8.5226   10.7900 H         2 RES2    0.0000
     92 H48        9.5882    8.7775   11.4960 H         2 RES2    0.0000
@<TRIPOS>BOND
     1    1    2 1
     2    2   18 1
     3    3    4 1
     4    5    6 1
     5    7    8 1
     6    9   32 2
     7   10   11 1
     8   12   10 1
     9   13    1 1
    10   14   15 1
    11   16   14 1
    12   17   14 1
    13   18    3 2
    14   19   13 1
    15   20   19 1
    16   21   19 1
    17   22   19 1
    18   23   24 1
    19   25    5 ar
    20   26   32 2
    21   27   13 1
    22   28   27 1
    23   29   27 1
    24   30   27 1
    25   31    1 1
    26   32    3 1
    27   33    5 ar
    28   34   33 1
    29   35   10 1
    30   36   35 1
    31   37   35 1
    32   38    7 ar
    33   39   38 1
    34   40   31 1
    35   41   40 1
    36   42   40 1
    37   43   31 1
    38   44   43 1
    39   45   43 1
    40   46   43 1
    41   47   69 1
    42   48   60 1
    43   49   50 1
    44   51   49 1
    45   52   49 1
    46   53   54 1
    47   55   56 1
    48   57   49 1
    49   58   59 1
    50   60   61 1
    51   62   60 1
    52   63   60 1
    53   64   53 ar
    54   65   71 2
    55   66   48 1
    56   67   66 1
    57   68   66 1
    58   69   48 1
    59   70   47 1
    60   71   55 1
    61   72   71 2
    62   73   58 ar
    63   74   73 1
    64   75   53 ar
    65   76   75 1
    66   77   73 ar
    67   78   77 1
    68   79   66 1
    69   80   79 1
    70   81   79 1
    71   82   57 1
    72   83   82 1
    73   84   82 1
    74   85   48 1
    75   86   85 1
    76   87   85 1
    77   88   85 1
    78   89   57 1
    79   90   89 1
    80   91   89 1
    81   92   89 1
    82    7   33 ar
    83   10   13 1
    84   14   31 1
    85   18   25 1
    86   23   25 ar
    87   23   38 ar
    88   35   40 1
    89   55   70 2
    90   57   69 1
    91   58   64 ar
    92   64   70 1
    93   75   77 ar
    94   79   82 1
@<TRIPOS>SUBSTRUCTURE
     1 RES1 1
     2 RES2 47

@<TRIPOS>CRYSIN
  10.7700   14.2400   11.1900  90.0000  91.0000  90.0000   4 1

