# MOL2 file generated by ConQuest
# Please check atom types

@<TRIPOS>MOLECULE
DOZXIA
    33    35     1
SMALL
NO_CHARGES
****
Generated from CSD

@<TRIPOS>ATOM
      1 C1         1.3588    1.2382    7.2107 C.3       1 RES1    0.0000
      2 C2         1.3304    0.6591    8.6538 C.3       1 RES1    0.0000
      3 C3         0.8044    1.5962    9.7200 C.2       1 RES1    0.0000
      4 C4        -0.3900    2.1807    9.7586 C.2       1 RES1    0.0000
      5 C5        -1.4012    2.1804    8.6922 C.2       1 RES1    0.0000
      6 C6        -1.0767    2.1109    7.2668 C.2       1 RES1    0.0000
      7 C7         0.0675    1.7888    6.6672 C.2       1 RES1    0.0000
      8 C8         3.6471    1.8334    7.4852 C.3       1 RES1    0.0000
      9 C9         3.6193    1.2878    8.8897 C.3       1 RES1    0.0000
     10 C10        0.9259   -0.9659    6.3856 C.3       1 RES1    0.0000
     11 C11        0.9046   -1.5213    7.7850 C.3       1 RES1    0.0000
     12 C12       -4.3810    2.5185   10.4405 C.3       1 RES1    0.0000
     13 N1        -2.6706    2.3557    8.9065 N.2       1 RES1    0.0000
     14 O1         2.3188    2.2641    7.1040 O.3       1 RES1    0.0000
     15 O2         2.6495    0.2318    8.9911 O.3       1 RES1    0.0000
     16 O3         1.7822    0.1903    6.3211 O.3       1 RES1    0.0000
     17 O4         0.5069   -0.4855    8.7142 O.3       1 RES1    0.0000
     18 O5        -2.9540    2.4441   10.2718 O.3       1 RES1    0.0000
     19 H1         1.3919    1.7890   10.4416 H         1 RES1    0.0000
     20 H2        -0.6121    2.6454   10.5564 H         1 RES1    0.0000
     21 H3        -1.7910    2.3285    6.6795 H         1 RES1    0.0000
     22 H4         0.0699    1.9325    5.7282 H         1 RES1    0.0000
     23 H5         3.9636    1.1330    6.8606 H         1 RES1    0.0000
     24 H6         4.2734    2.5982    7.4362 H         1 RES1    0.0000
     25 H7         4.5154    0.9410    9.1294 H         1 RES1    0.0000
     26 H8         3.3887    2.0130    9.5240 H         1 RES1    0.0000
     27 H9         1.2544   -1.6579    5.7593 H         1 RES1    0.0000
     28 H10        0.0078   -0.7149    6.1133 H         1 RES1    0.0000
     29 H11        0.2678   -2.2772    7.8349 H         1 RES1    0.0000
     30 H12        1.8034   -1.8576    8.0254 H         1 RES1    0.0000
     31 H13       -4.5887    2.7348   11.3740 H         1 RES1    0.0000
     32 H14       -4.7829    1.6559   10.2078 H         1 RES1    0.0000
     33 H15       -4.7428    3.2160    9.8551 H         1 RES1    0.0000
@<TRIPOS>BOND
     1    1    2 1
     2    2    3 1
     3    3    4 2
     4    4    5 1
     5    5    6 1
     6    6    7 2
     7    7    1 1
     8    8    9 1
     9    9   15 1
    10   10   11 1
    11   11   17 1
    12   12   18 1
    13   13    5 2
    14   14    1 1
    15   15    2 1
    16   16    1 1
    17   17    2 1
    18   18   13 1
    19   19    3 1
    20   20    4 1
    21   21    6 1
    22   22    7 1
    23   23    8 1
    24   24    8 1
    25   25    9 1
    26   26    9 1
    27   27   10 1
    28   28   10 1
    29   29   11 1
    30   30   11 1
    31   31   12 1
    32   32   12 1
    33   33   12 1
    34    8   14 1
    35   10   16 1
@<TRIPOS>SUBSTRUCTURE
     1 RES1 1

@<TRIPOS>CRYSIN
  12.4729    6.9341   14.2423  90.0000 108.4140  90.0000  14 1

