# MOL2 file generated by ConQuest
# Please check atom types

@<TRIPOS>MOLECULE
DOZXEW
    21    19     2
SMALL
NO_CHARGES
****
Generated from CSD

@<TRIPOS>ATOM
      1 C1        -2.0759    1.7157    9.5395 C.2       1 RES1    0.0000
      2 C2        -3.0551    2.3463   10.5471 C.2       1 RES1    0.0000
      3 C3        -2.7636    2.5174   11.9638 C.2       1 RES1    0.0000
      4 H1        -3.4863    2.8517   12.4827 H         1 RES1    0.0000
      5 C4        -1.6479    2.2794   12.6456 C.2       1 RES1    0.0000
      6 H2        -1.7292    2.3850   13.5860 H         1 RES1    0.0000
      7 C5        -0.3355    1.8889   12.1981 C.2       1 RES1    0.0000
      8 C6         0.1252    1.8240   10.8111 C.2       1 RES1    0.0000
      9 H3         1.0671    1.8167   10.6878 H         1 RES1    0.0000
     10 C7        -0.6135    1.7732    9.6855 C.2       1 RES1    0.0000
     11 H4        -0.1219    1.7746    8.8727 H         1 RES1    0.0000
     12 C8         2.4050    1.1674   14.2053 C.3       1 RES1    0.0000
     13 H5         2.5051    1.9992   14.5863 H         1 RES1    0.0000
     14 H6         3.3232    0.8224   13.8629 H         1 RES1    0.0000
     15 H7         2.0197    0.5617   14.8038 H         1 RES1    0.0000
     16 N1         0.3872    1.6649   13.2831 N.2       1 RES1    0.0000
     17 O1        -2.5638    1.2096    8.5472 O.2       1 RES1    0.0000
     18 O2        -4.1397    2.6839   10.1063 O.2       1 RES1    0.0000
     19 O3         1.6523    1.2604   12.9373 O.3       1 RES1    0.0000
     20 N2         1.1139    1.6455   12.5349 Du        2 SUP2    0.0000
     21 O4         0.9538    1.5292   13.9499 Du        2 SUP2    0.0000
@<TRIPOS>BOND
     1    1    2 1
     2    2    3 1
     3    3    4 1
     4    5    3 2
     5    6    5 1
     6    7    5 1
     7    8    7 1
     8    9    8 1
     9   10    1 1
    10   11   10 1
    11   12   13 1
    12   14   12 1
    13   15   12 1
    14   16    7 2
    15   17    1 2
    16   18    2 2
    17   19   12 1
    18    8   10 2
    19   16   19 1
@<TRIPOS>SUBSTRUCTURE
     1 RES1 1
     2 SUP2 20

@<TRIPOS>CRYSIN
   7.6917    6.6864   14.4980  90.0000  90.2210  90.0000  14 1

