# MOL2 file generated by ConQuest
# Please check atom types

@<TRIPOS>MOLECULE
DPBFOO10
    37    39     1
SMALL
NO_CHARGES
****
Generated from CSD

@<TRIPOS>ATOM
      1 C1        -7.1351    3.2602    4.0835 C.3       1 RES1    0.0000
      2 C2       -10.2091    6.6122    0.4221 C.3       1 RES1    0.0000
      3 C3        -7.7241    6.3430    0.5439 C.3       1 RES1    0.0000
      4 C4        -5.6199    3.4602    4.0703 C.ar      1 RES1    0.0000
      5 C5        -4.9943    4.1233    3.0343 C.ar      1 RES1    0.0000
      6 C6        -3.6069    4.2740    3.0222 C.ar      1 RES1    0.0000
      7 C7        -2.8426    3.7364    4.0389 C.ar      1 RES1    0.0000
      8 C8        -3.4592    3.0828    5.0761 C.ar      1 RES1    0.0000
      9 C9        -7.5719    2.0422    3.2876 C.2       1 RES1    0.0000
     10 C10       -4.8464    2.9217    5.0954 C.ar      1 RES1    0.0000
     11 C11       -8.4422    3.7753    2.2166 C.2       1 RES1    0.0000
     12 C12       -9.2437    4.4332    1.1517 C.3       1 RES1    0.0000
     13 C13       -9.0499    5.9482    1.2000 C.3       1 RES1    0.0000
     14 C14       -9.0826    6.4235    2.6713 C.3       1 RES1    0.0000
     15 C15       -8.0936    5.7249    3.5879 C.2       1 RES1    0.0000
     16 C16       -7.9078    4.3276    3.3153 C.2       1 RES1    0.0000
     17 H1        -7.5491    3.1685    5.1376 H         1 RES1    0.0000
     18 H2        -8.9737    4.1467    0.2533 H         1 RES1    0.0000
     19 H3       -10.2271    4.1986    1.3748 H         1 RES1    0.0000
     20 H4       -10.1616    7.6182    0.5306 H         1 RES1    0.0000
     21 H5       -11.1408    6.3283    0.8201 H         1 RES1    0.0000
     22 H6       -10.0792    6.2850   -0.5909 H         1 RES1    0.0000
     23 H7        -7.6089    7.3325    0.6151 H         1 RES1    0.0000
     24 H8        -7.6393    5.9214   -0.3739 H         1 RES1    0.0000
     25 H9        -6.9302    5.8262    0.9889 H         1 RES1    0.0000
     26 H10       -8.9183    7.4450    2.7738 H         1 RES1    0.0000
     27 H11       -9.9877    6.0945    3.1356 H         1 RES1    0.0000
     28 H12       -5.6177    4.6488    2.2793 H         1 RES1    0.0000
     29 H13       -3.1496    4.7527    2.2311 H         1 RES1    0.0000
     30 H14       -1.7956    3.7918    4.0160 H         1 RES1    0.0000
     31 H15       -2.9567    2.7096    5.8129 H         1 RES1    0.0000
     32 H16       -5.2668    2.5019    5.8612 H         1 RES1    0.0000
     33 H17       -7.0379   -0.5194    4.8119 H         1 RES1    0.0000
     34 N1        -7.5679    0.7973    3.4733 N.2       1 RES1    0.0000
     35 O1        -6.9729    0.4588    4.6986 O.3       1 RES1    0.0000
     36 O2        -7.5324    6.3023    4.5141 O.2       1 RES1    0.0000
     37 O3        -8.1969    2.4343    2.0948 O.3       1 RES1    0.0000
@<TRIPOS>BOND
     1    1    4 1
     2    2   13 1
     3    3   13 1
     4    4    5 ar
     5    5    6 ar
     6    6    7 ar
     7    7    8 ar
     8    8   10 ar
     9    9    1 1
    10   10    4 ar
    11   11   12 1
    12   12   13 1
    13   13   14 1
    14   14   15 1
    15   15   16 1
    16   16    1 1
    17   17    1 1
    18   18   12 1
    19   19   12 1
    20   20    2 1
    21   21    2 1
    22   22    2 1
    23   23    3 1
    24   24    3 1
    25   25    3 1
    26   26   14 1
    27   27   14 1
    28   28    5 1
    29   29    6 1
    30   30    7 1
    31   31    8 1
    32   32   10 1
    33   33   35 1
    34   34    9 2
    35   35   34 1
    36   36   15 2
    37   37    9 1
    38   11   16 2
    39   11   37 1
@<TRIPOS>SUBSTRUCTURE
     1 RES1 1

@<TRIPOS>CRYSIN
  13.1580    8.6570   12.2050  90.0000  98.8400  90.0000 231 1

