# MOL2 file generated by ConQuest
# Please check atom types

@<TRIPOS>MOLECULE
DPBFOO11
    37    39     1
SMALL
NO_CHARGES
****
Generated from CSD

@<TRIPOS>ATOM
      1 C1         5.8458   10.3025    9.8268 C.2       1 RES1    0.0000
      2 C2         4.9167   10.4277   11.0159 C.3       1 RES1    0.0000
      3 H1         5.2245   11.1572   11.6263 H         1 RES1    0.0000
      4 C3         3.4632   10.6396   10.6253 C.ar      1 RES1    0.0000
      5 C4         2.7403   11.6758   11.1729 C.ar      1 RES1    0.0000
      6 H2         3.1594   12.2829   11.7722 H         1 RES1    0.0000
      7 C5         1.4040   11.8323   10.8502 C.ar      1 RES1    0.0000
      8 H3         0.9079   12.5469   11.2320 H         1 RES1    0.0000
      9 C6         0.7918   10.9715    9.9897 C.ar      1 RES1    0.0000
     10 H4        -0.1216   11.1006    9.7629 H         1 RES1    0.0000
     11 C7         1.4850    9.9231    9.4506 C.ar      1 RES1    0.0000
     12 H5         1.0513    9.3084    8.8705 H         1 RES1    0.0000
     13 C8         2.8319    9.7656    9.7603 C.ar      1 RES1    0.0000
     14 H6         3.3227    9.0500    9.3731 H         1 RES1    0.0000
     15 C9         5.1564    9.0754   11.6456 C.2       1 RES1    0.0000
     16 C10        4.6339    8.5161   12.8685 C.2       1 RES1    0.0000
     17 C11        5.1049    7.1204   13.1920 C.3       1 RES1    0.0000
     18 H7         4.4543    6.7006   13.8089 H         1 RES1    0.0000
     19 H8         5.9730    7.1795   13.6653 H         1 RES1    0.0000
     20 C12        5.2759    6.2112   11.9600 C.3       1 RES1    0.0000
     21 C13        3.9162    5.9767   11.3009 C.3       1 RES1    0.0000
     22 H9         3.5374    6.8354   11.0189 H         1 RES1    0.0000
     23 H10        3.3124    5.5475   11.9420 H         1 RES1    0.0000
     24 H11        4.0284    5.3966   10.5185 H         1 RES1    0.0000
     25 C14        5.8590    4.8695   12.3905 C.3       1 RES1    0.0000
     26 H12        6.7310    5.0129   12.8139 H         1 RES1    0.0000
     27 H13        5.9682    4.2936   11.6047 H         1 RES1    0.0000
     28 H14        5.2529    4.4397   13.0293 H         1 RES1    0.0000
     29 C15        6.2519    6.8921   10.9750 C.3       1 RES1    0.0000
     30 H15        7.1782    6.8118   11.3140 H         1 RES1    0.0000
     31 H16        6.2053    6.4422   10.0945 H         1 RES1    0.0000
     32 C16        5.8997    8.3194   10.8238 C.2       1 RES1    0.0000
     33 N1         6.2745   11.1289    8.9732 N.2       1 RES1    0.0000
     34 O1         5.7099   12.3894    9.2402 O.3       1 RES1    0.0000
     35 H17        6.0828   12.9118    8.5616 H         1 RES1    0.0000
     36 O2         3.8818    9.1314   13.6182 O.2       1 RES1    0.0000
     37 O3         6.3256    8.9948    9.7056 O.3       1 RES1    0.0000
@<TRIPOS>BOND
     1    1    2 1
     2    2    3 1
     3    4    2 1
     4    5    4 ar
     5    6    5 1
     6    7    5 ar
     7    8    7 1
     8    9    7 ar
     9   10    9 1
    10   11    9 ar
    11   12   11 1
    12   13    4 ar
    13   14   13 1
    14   15    2 1
    15   16   15 1
    16   17   16 1
    17   18   17 1
    18   19   17 1
    19   20   17 1
    20   21   20 1
    21   22   21 1
    22   23   21 1
    23   24   21 1
    24   25   20 1
    25   26   25 1
    26   27   25 1
    27   28   25 1
    28   29   20 1
    29   30   29 1
    30   31   29 1
    31   32   15 2
    32   33    1 2
    33   34   33 1
    34   35   34 1
    35   36   16 2
    36   37    1 1
    37   11   13 ar
    38   29   32 1
    39   32   37 1
@<TRIPOS>SUBSTRUCTURE
     1 RES1 1

@<TRIPOS>CRYSIN
  13.5604    9.4281   12.8923  90.0000 117.8670  90.0000  14 1

