# MOL2 file generated by ConQuest
# Please check atom types

@<TRIPOS>MOLECULE
DPFUZO
    28    30     1
SMALL
USER_CHARGES
****
Generated from CSD

@<TRIPOS>ATOM
      1 N1         9.9301    4.0250    6.1585 N.2       1 RES1    0.0000
      2 N2        11.6797    2.9001    5.3279 N.pl3     1 RES1    1.0000
      3 O1        10.7344    2.9258    6.3793 O.3       1 RES1    0.0000
      4 O2        12.4641    2.0125    5.3733 O.2       1 RES1   -1.0000
      5 C1        10.3678    4.6183    5.0679 C.2       1 RES1    0.0000
      6 C2         9.6740    5.8020    4.5693 C.ar      1 RES1    0.0000
      7 C3         9.8444    6.2238    3.2679 C.ar      1 RES1    0.0000
      8 C4         9.1895    7.3474    2.8160 C.ar      1 RES1    0.0000
      9 C5         8.3452    8.0340    3.6163 C.ar      1 RES1    0.0000
     10 C6         8.1420    7.6165    4.8899 C.ar      1 RES1    0.0000
     11 C7         8.7989    6.5058    5.3759 C.ar      1 RES1    0.0000
     12 C8        11.4835    3.9330    4.5428 C.2       1 RES1    0.0000
     13 C9        12.3832    4.1782    3.3942 C.ar      1 RES1    0.0000
     14 C10       12.5182    3.2379    2.3982 C.ar      1 RES1    0.0000
     15 C11       13.3686    3.4794    1.3392 C.ar      1 RES1    0.0000
     16 C12       14.0688    4.6459    1.2774 C.ar      1 RES1    0.0000
     17 C13       13.9471    5.5826    2.2569 C.ar      1 RES1    0.0000
     18 C14       13.0948    5.3570    3.3209 C.ar      1 RES1    0.0000
     19 H1        10.4784    5.7254    2.6633 H         1 RES1    0.0000
     20 H2         9.2483    7.5644    1.9060 H         1 RES1    0.0000
     21 H3         7.8565    8.8333    3.2692 H         1 RES1    0.0000
     22 H4         7.6237    8.0732    5.5286 H         1 RES1    0.0000
     23 H5         8.7061    6.1790    6.2354 H         1 RES1    0.0000
     24 H6        13.2967    2.4397    2.4614 H         1 RES1    0.0000
     25 H7        13.4363    2.8443    0.6311 H         1 RES1    0.0000
     26 H8        14.6267    4.7875    0.5175 H         1 RES1    0.0000
     27 H9        14.4210    6.4120    2.2215 H         1 RES1    0.0000
     28 H10       13.0088    5.9890    4.0518 H         1 RES1    0.0000
@<TRIPOS>BOND
     1    1    3 1
     2    2    3 1
     3    4    2 1
     4    5    1 2
     5    6    5 1
     6    7    6 ar
     7    8    7 ar
     8    9    8 ar
     9   10    9 ar
    10   11    6 ar
    11   12    2 2
    12   13   12 1
    13   14   13 ar
    14   15   14 ar
    15   16   15 ar
    16   17   16 ar
    17   18   13 ar
    18   19    7 1
    19   20    8 1
    20   21    9 1
    21   22   10 1
    22   23   11 1
    23   24   14 1
    24   25   15 1
    25   26   16 1
    26   27   17 1
    27   28   18 1
    28    5   12 1
    29   10   11 ar
    30   17   18 ar
@<TRIPOS>SUBSTRUCTURE
     1 RES1 1

@<TRIPOS>CRYSIN
  15.1510    6.1300   12.6590  90.0000  94.3600  90.0000  14 1

