# MOL2 file generated by ConQuest
# Please check atom types

@<TRIPOS>MOLECULE
DPISOX
    28    30     1
SMALL
NO_CHARGES
****
Generated from CSD

@<TRIPOS>ATOM
      1 N1         0.1631    2.4685    1.7951 N.2       1 RES1    0.0000
      2 C1         2.8757    3.0941    2.3996 C.2       1 RES1    0.0000
      3 C2         4.7208    4.5545    1.9441 C.2       1 RES1    0.0000
      4 C3         2.4983    5.2248    1.3531 C.2       1 RES1    0.0000
      5 C4        -0.5403    4.5861    1.7738 C.2       1 RES1    0.0000
      6 C5         1.9942    4.0149    1.8518 C.2       1 RES1    0.0000
      7 C6         4.2232    3.3578    2.4485 C.2       1 RES1    0.0000
      8 C7         3.8525    5.4748    1.3978 C.2       1 RES1    0.0000
      9 C8         0.5557    3.7414    1.8057 C.2       1 RES1    0.0000
     10 H1         4.8525    2.7237    2.8026 H         1 RES1    0.0000
     11 H2         4.1928    6.2501    1.1139 H         1 RES1    0.0000
     12 H3        -0.5403    5.5792    1.7738 H         1 RES1    0.0000
     13 H4         2.5218    2.2764    2.7458 H         1 RES1    0.0000
     14 H5         5.6700    4.8051    2.0008 H         1 RES1    0.0000
     15 H6         1.8938    5.8601    1.0430 H         1 RES1    0.0000
     16 N1B       -1.2436    2.4685    1.7525 N.2       1 RES1    0.0000
     17 C8B       -1.6363    3.7414    1.7419 C.2       1 RES1    0.0000
     18 C5B       -3.0747    4.0149    1.6957 C.2       1 RES1    0.0000
     19 C1B       -3.9563    3.0941    1.1480 C.2       1 RES1    0.0000
     20 C6B       -5.3037    3.3578    1.0990 C.2       1 RES1    0.0000
     21 C2B       -5.8014    4.5545    1.6035 C.2       1 RES1    0.0000
     22 C7B       -4.9330    5.4748    2.1498 C.2       1 RES1    0.0000
     23 C3B       -3.5788    5.2248    2.1945 C.2       1 RES1    0.0000
     24 H6B       -2.9743    5.8601    2.5046 H         1 RES1    0.0000
     25 H2B       -5.2734    6.2501    2.4336 H         1 RES1    0.0000
     26 H5B       -6.7506    4.8051    1.5467 H         1 RES1    0.0000
     27 H1B       -5.9330    2.7237    0.7450 H         1 RES1    0.0000
     28 H4B       -3.6023    2.2764    0.8018 H         1 RES1    0.0000
@<TRIPOS>BOND
     1    1    9 1
     2    2    6 1
     3    3    7 1
     4    4    6 1
     5    5    9 1
     6    6    9 1
     7    7    2 1
     8    8    3 1
     9   10    7 1
    10   11    8 1
    11   12    5 1
    12   13    2 1
    13   14    3 1
    14   15    4 1
    15   16    1 1
    16   17    5 1
    17   18   17 1
    18   19   18 1
    19   20   19 1
    20   21   20 1
    21   22   21 1
    22   23   18 1
    23   24   23 1
    24   25   22 1
    25   26   21 1
    26   27   20 1
    27   28   19 1
    28    4    8 1
    29   16   17 1
    30   22   23 1
@<TRIPOS>SUBSTRUCTURE
     1 RES1 1

@<TRIPOS>CRYSIN
  27.3020    5.7340    7.4170  90.0000 106.9400  90.0000  15 1

