# MOL2 file generated by ConQuest
# Please check atom types

@<TRIPOS>MOLECULE
DUCLEU
    89    94     1
SMALL
NO_CHARGES
****
Generated from CSD

@<TRIPOS>ATOM
      1 C1         6.0397    7.7888    1.2622 C.2       1 RES1    0.0000
      2 C2         6.6383    7.1171    0.2382 C.2       1 RES1    0.0000
      3 H1         6.7632    7.4392   -0.6254 H         1 RES1    0.0000
      4 C3         7.0356    5.8480    0.7141 C.2       1 RES1    0.0000
      5 H2         7.4766    5.1944    0.2209 H         1 RES1    0.0000
      6 C4         6.6590    5.7456    2.0267 C.2       1 RES1    0.0000
      7 C5         6.7409    4.6231    3.0255 C.3       1 RES1    0.0000
      8 C6         5.3138    4.2148    3.4694 C.3       1 RES1    0.0000
      9 H3         5.3863    3.5017    4.1227 H         1 RES1    0.0000
     10 H4         4.8983    4.9731    3.9087 H         1 RES1    0.0000
     11 C7         4.3998    3.7482    2.3416 C.3       1 RES1    0.0000
     12 H5         4.3730    4.4163    1.6541 H         1 RES1    0.0000
     13 H6         3.5140    3.6064    2.6854 H         1 RES1    0.0000
     14 H7         4.7369    2.9271    1.9758 H         1 RES1    0.0000
     15 C8         7.4787    3.4247    2.3686 C.3       1 RES1    0.0000
     16 H8         7.0148    3.1936    1.5491 H         1 RES1    0.0000
     17 H9         8.3720    3.7127    2.1249 H         1 RES1    0.0000
     18 C9         7.5951    2.1756    3.2182 C.3       1 RES1    0.0000
     19 H10        8.0291    2.3916    4.0468 H         1 RES1    0.0000
     20 H11        8.1110    1.5167    2.7489 H         1 RES1    0.0000
     21 H12        6.7184    1.8276    3.3978 H         1 RES1    0.0000
     22 C10        7.5174    5.0798    4.2477 C.2       1 RES1    0.0000
     23 C11        7.3230    4.8682    5.5752 C.2       1 RES1    0.0000
     24 H13        6.5997    4.4281    5.9604 H         1 RES1    0.0000
     25 C12        8.4201    5.4366    6.2692 C.2       1 RES1    0.0000
     26 H14        8.5400    5.4334    7.1920 H         1 RES1    0.0000
     27 C13        9.2643    5.9856    5.3639 C.2       1 RES1    0.0000
     28 C14       10.5887    6.6957    5.5331 C.3       1 RES1    0.0000
     29 C15       11.6852    5.9589    4.7410 C.3       1 RES1    0.0000
     30 H15       11.4410    5.9231    3.8134 H         1 RES1    0.0000
     31 H16       11.7803    5.0662    5.0809 H         1 RES1    0.0000
     32 H17       12.5170    6.4281    4.8351 H         1 RES1    0.0000
     33 C16       10.9755    6.6874    7.0347 C.3       1 RES1    0.0000
     34 H18       11.8027    7.1589    7.1547 H         1 RES1    0.0000
     35 H19       11.0788    5.7800    7.3342 H         1 RES1    0.0000
     36 H20       10.2852    7.1166    7.5454 H         1 RES1    0.0000
     37 C17       10.5054    8.1292    5.0755 C.2       1 RES1    0.0000
     38 C18       11.4642    8.9984    4.6664 C.2       1 RES1    0.0000
     39 H21       12.3641    8.7996    4.5397 H         1 RES1    0.0000
     40 C19       10.8576   10.2598    4.4664 C.2       1 RES1    0.0000
     41 H22       11.2896   11.0332    4.1821 H         1 RES1    0.0000
     42 C20        9.5311   10.1485    4.7615 C.2       1 RES1    0.0000
     43 C21        8.4181   11.1691    4.8502 C.3       1 RES1    0.0000
     44 C22        8.8351   12.4278    4.0556 C.3       1 RES1    0.0000
     45 H23        9.6467   12.7859    4.4485 H         1 RES1    0.0000
     46 H24        9.0430   12.1631    3.1466 H         1 RES1    0.0000
     47 C23        7.7952   13.5297    4.0109 C.3       1 RES1    0.0000
     48 H25        6.9769   13.1820    3.6478 H         1 RES1    0.0000
     49 H26        8.1130   14.2467    3.4558 H         1 RES1    0.0000
     50 H27        7.6376   13.8572    4.8986 H         1 RES1    0.0000
     51 C24        8.1622   11.4924    6.3502 C.3       1 RES1    0.0000
     52 H28        7.4645   12.1630    6.4050 H         1 RES1    0.0000
     53 H29        7.8312   10.6909    6.7847 H         1 RES1    0.0000
     54 C25        9.3744   11.9945    7.1213 C.3       1 RES1    0.0000
     55 H30       10.0716   11.3346    7.0856 H         1 RES1    0.0000
     56 H31        9.1286   12.1511    8.0355 H         1 RES1    0.0000
     57 H32        9.6873   12.8116    6.7294 H         1 RES1    0.0000
     58 C26        7.1316   10.6134    4.2800 C.2       1 RES1    0.0000
     59 C27        5.8807   10.5050    4.8086 C.2       1 RES1    0.0000
     60 H33        5.6332   10.7341    5.6760 H         1 RES1    0.0000
     61 C28        5.0241    9.9856    3.8148 C.2       1 RES1    0.0000
     62 H34        4.1148    9.8154    3.9128 H         1 RES1    0.0000
     63 C29        5.7554    9.7778    2.6912 C.2       1 RES1    0.0000
     64 C30        5.4012    9.1550    1.3493 C.3       1 RES1    0.0000
     65 C31        5.9110   10.0135    0.1752 C.3       1 RES1    0.0000
     66 H35        6.8712   10.0242    0.1795 H         1 RES1    0.0000
     67 H36        5.5807   10.9109    0.2679 H         1 RES1    0.0000
     68 H37        5.5981    9.6419   -0.6531 H         1 RES1    0.0000
     69 C32        3.8598    9.0713    1.2861 C.ar      1 RES1    0.0000
     70 C33        3.1117   10.2428    1.2191 C.ar      1 RES1    0.0000
     71 H38        3.5495   11.0619    1.1653 H         1 RES1    0.0000
     72 C34        1.7280   10.2136    1.2305 C.ar      1 RES1    0.0000
     73 H39        1.2360   11.0016    1.1791 H         1 RES1    0.0000
     74 C35        1.0976    9.0014    1.3198 C.ar      1 RES1    0.0000
     75 C36        1.7932    7.8238    1.3622 C.ar      1 RES1    0.0000
     76 H40        1.3456    7.0101    1.4111 H         1 RES1    0.0000
     77 C37        3.1833    7.8692    1.3306 C.ar      1 RES1    0.0000
     78 H41        3.6656    7.0741    1.3393 H         1 RES1    0.0000
     79 N1         6.0655    6.9456    2.3447 N.pl3     1 RES1    0.0000
     80 H42        5.7515    7.1417    3.1203 H         1 RES1    0.0000
     81 N2         8.7046    5.7642    4.1228 N.pl3     1 RES1    0.0000
     82 H43        9.0495    6.0173    3.3771 H         1 RES1    0.0000
     83 N3         9.3325    8.8439    5.1400 N.pl3     1 RES1    0.0000
     84 H44        8.5756    8.5177    5.3846 H         1 RES1    0.0000
     85 N4         7.0460   10.1629    2.9845 N.pl3     1 RES1    0.0000
     86 H45        7.7050   10.1264    2.4341 H         1 RES1    0.0000
     87 N5        -0.3692    8.9705    1.4262 N.pl3     1 RES1    0.0000
     88 O1        -0.9856    9.9963    1.1351 O.2       1 RES1    0.0000
     89 O2        -0.9112    7.9457    1.8032 O.2       1 RES1    0.0000
@<TRIPOS>BOND
     1    1    2 2
     2    2    3 1
     3    4    2 1
     4    5    4 1
     5    6    4 2
     6    7    6 1
     7    8    7 1
     8    9    8 1
     9   10    8 1
    10   11    8 1
    11   12   11 1
    12   13   11 1
    13   14   11 1
    14   15    7 1
    15   16   15 1
    16   17   15 1
    17   18   15 1
    18   19   18 1
    19   20   18 1
    20   21   18 1
    21   22    7 1
    22   23   22 2
    23   24   23 1
    24   25   23 1
    25   26   25 1
    26   27   25 2
    27   28   27 1
    28   29   28 1
    29   30   29 1
    30   31   29 1
    31   32   29 1
    32   33   28 1
    33   34   33 1
    34   35   33 1
    35   36   33 1
    36   37   28 1
    37   38   37 2
    38   39   38 1
    39   40   38 1
    40   41   40 1
    41   42   40 2
    42   43   42 1
    43   44   43 1
    44   45   44 1
    45   46   44 1
    46   47   44 1
    47   48   47 1
    48   49   47 1
    49   50   47 1
    50   51   43 1
    51   52   51 1
    52   53   51 1
    53   54   51 1
    54   55   54 1
    55   56   54 1
    56   57   54 1
    57   58   43 1
    58   59   58 2
    59   60   59 1
    60   61   59 1
    61   62   61 1
    62   63   61 2
    63   64    1 1
    64   65   64 1
    65   66   65 1
    66   67   65 1
    67   68   65 1
    68   69   64 1
    69   70   69 ar
    70   71   70 1
    71   72   70 ar
    72   73   72 1
    73   74   72 ar
    74   75   74 ar
    75   76   75 1
    76   77   69 ar
    77   78   77 1
    78   79    1 1
    79   80   79 1
    80   81   22 1
    81   82   81 1
    82   83   37 1
    83   84   83 1
    84   85   58 1
    85   86   85 1
    86   87   74 1
    87   88   87 2
    88   89   87 2
    89    6   79 1
    90   27   81 1
    91   42   83 1
    92   63   64 1
    93   63   85 1
    94   75   77 ar
@<TRIPOS>SUBSTRUCTURE
     1 RES1 1

@<TRIPOS>CRYSIN
  10.5528   12.0644   14.3453 104.8720  90.4200 107.4360   2 1

