# MOL2 file generated by ConQuest
# Please check atom types

@<TRIPOS>MOLECULE
DUCRIE
   104   110     2
SMALL
NO_CHARGES
****
Generated from CSD

@<TRIPOS>ATOM
      1 O1         3.1091    0.9520    0.6970 O.2       1 RES1    0.0000
      2 O2         3.1415   -1.1087    1.3594 O.2       1 RES1    0.0000
      3 O3         5.5778   -1.1727    5.6449 O.2       1 RES1    0.0000
      4 O4         5.1552    0.3549    7.1026 O.2       1 RES1    0.0000
      5 N1         1.0742    2.0213    2.6649 N.pl3     1 RES1    0.0000
      6 N2         3.0823    0.1022    1.5735 N.pl3     1 RES1    0.0000
      7 N3         5.0153   -0.1398    5.9851 N.pl3     1 RES1    0.0000
      8 C1         0.3259    1.1437    1.7120 C.3       1 RES1    0.0000
      9 H1         0.8286    0.3094    1.5338 H         1 RES1    0.0000
     10 C2        -1.0100    0.8381    2.3086 C.2       1 RES1    0.0000
     11 H2        -1.3018   -0.0406    2.4734 H         1 RES1    0.0000
     12 C3        -1.7535    1.9000    2.5877 C.2       1 RES1    0.0000
     13 C4        -1.0227    3.1836    2.2606 C.3       1 RES1    0.0000
     14 H3        -1.5863    3.9613    2.4987 H         1 RES1    0.0000
     15 C5        -0.6877    3.2220    0.7558 C.3       1 RES1    0.0000
     16 H4        -1.5336    3.2172    0.2419 H         1 RES1    0.0000
     17 C6         0.1084    1.9316    0.4193 C.3       1 RES1    0.0000
     18 H5        -0.3919    1.3878   -0.2246 H         1 RES1    0.0000
     19 H6         0.9720    2.1656    0.0199 H         1 RES1    0.0000
     20 C7         0.3050    3.2355    3.0518 C.3       1 RES1    0.0000
     21 H7         0.1133    3.2114    4.0231 H         1 RES1    0.0000
     22 C8         1.0807    4.5049    2.7147 C.3       1 RES1    0.0000
     23 H8         0.5665    5.2853    3.0090 H         1 RES1    0.0000
     24 H9         1.9298    4.5031    3.2031 H         1 RES1    0.0000
     25 C9         1.3613    4.6229    1.2258 C.3       1 RES1    0.0000
     26 H10        1.7771    5.4908    1.0407 H         1 RES1    0.0000
     27 H11        1.9923    3.9221    0.9569 H         1 RES1    0.0000
     28 C10        0.0870    4.4920    0.4137 C.3       1 RES1    0.0000
     29 H12        0.3135    4.4835   -0.5396 H         1 RES1    0.0000
     30 H13       -0.4825    5.2708    0.5808 H         1 RES1    0.0000
     31 C11       -3.1666    1.8972    3.1340 C.3       1 RES1    0.0000
     32 C12       -4.0805    2.6285    2.1398 C.3       1 RES1    0.0000
     33 H14       -3.7553    3.5311    2.0043 H         1 RES1    0.0000
     34 H15       -4.9837    2.6582    2.4920 H         1 RES1    0.0000
     35 H16       -4.0795    2.1548    1.2932 H         1 RES1    0.0000
     36 C13       -3.1876    2.6123    4.4883 C.3       1 RES1    0.0000
     37 H17       -2.6020    2.1501    5.1077 H         1 RES1    0.0000
     38 H18       -4.0914    2.6151    4.8392 H         1 RES1    0.0000
     39 H19       -2.8825    3.5269    4.3767 H         1 RES1    0.0000
     40 C14       -3.6648    0.4670    3.3200 C.3       1 RES1    0.0000
     41 H20       -3.6574    0.0086    2.4654 H         1 RES1    0.0000
     42 H21       -4.5695    0.4836    3.6709 H         1 RES1    0.0000
     43 H22       -3.0862    0.0010    3.9421 H         1 RES1    0.0000
     44 C15        2.1514    1.6196    3.3707 C.ar      1 RES1    0.0000
     45 C16        3.0161    0.5513    2.9664 C.ar      1 RES1    0.0000
     46 C17        3.9294   -0.0284    3.8058 C.ar      1 RES1    0.0000
     47 H23        4.4208   -0.7803    3.5300 H         1 RES1    0.0000
     48 C18        4.1167    0.5090    5.0638 C.ar      1 RES1    0.0000
     49 C19        3.4347    1.6653    5.4430 C.ar      1 RES1    0.0000
     50 H24        3.6276    2.0723    6.2680 H         1 RES1    0.0000
     51 C20        2.4881    2.2102    4.6195 C.ar      1 RES1    0.0000
     52 H25        2.0478    2.9970    4.8870 H         1 RES1    0.0000
     53 O5         0.3840   -4.5491    3.3333 O.2       2 RES2    0.0000
     54 O6        -0.3568   -2.6462    2.6459 O.2       2 RES2    0.0000
     55 O7        -0.1370    0.9258    5.8303 O.2       2 RES2    0.0000
     56 O8         1.1982    0.7805    7.5376 O.2       2 RES2    0.0000
     57 N4         3.1509   -4.1297    4.2337 N.pl3     2 RES2    0.0000
     58 N5         0.3713   -3.3226    3.3643 N.pl3     2 RES2    0.0000
     59 N6         0.7033    0.3277    6.5023 N.pl3     2 RES2    0.0000
     60 C21        3.2404   -4.2248    2.7458 C.3       2 RES2    0.0000
     61 H26        2.5263   -3.6913    2.3153 H         2 RES2    0.0000
     62 C22        4.5970   -3.7282    2.3391 C.2       2 RES2    0.0000
     63 H27        4.7138   -3.0129    1.7411 H         2 RES2    0.0000
     64 C23        5.6211   -4.3736    2.8873 C.2       2 RES2    0.0000
     65 C24        5.1518   -5.4542    3.8186 C.3       2 RES2    0.0000
     66 H28        5.9274   -5.9151    4.2252 H         2 RES2    0.0000
     67 C25        4.2804   -6.4773    3.0130 C.3       2 RES2    0.0000
     68 H29        4.8442   -6.8764    2.3046 H         2 RES2    0.0000
     69 C26        3.1377   -5.7029    2.3392 C.3       2 RES2    0.0000
     70 H30        2.2734   -6.0683    2.6223 H         2 RES2    0.0000
     71 H31        3.2057   -5.7878    1.3650 H         2 RES2    0.0000
     72 C27        4.2677   -4.8351    4.9155 C.3       2 RES2    0.0000
     73 H32        4.7975   -4.1862    5.4426 H         2 RES2    0.0000
     74 C28        3.7398   -5.9368    5.8363 C.3       2 RES2    0.0000
     75 H33        3.1253   -5.5449    6.4912 H         2 RES2    0.0000
     76 H34        4.4887   -6.3366    6.3251 H         2 RES2    0.0000
     77 C29        3.0088   -7.0297    5.0452 C.3       2 RES2    0.0000
     78 H35        2.7900   -7.7648    5.6552 H         2 RES2    0.0000
     79 H36        2.1644   -6.6616    4.7089 H         2 RES2    0.0000
     80 C30        3.7782   -7.5808    3.8942 C.3       2 RES2    0.0000
     81 H37        3.2030   -8.1798    3.3732 H         2 RES2    0.0000
     82 H38        4.5376   -8.1032    4.2278 H         2 RES2    0.0000
     83 C31        7.1022   -4.1110    2.6736 C.3       2 RES2    0.0000
     84 C32        7.3281   -3.0595    1.5922 C.3       2 RES2    0.0000
     85 H39        6.9600   -3.3745    0.7523 H         2 RES2    0.0000
     86 H40        8.2800   -2.9007    1.4899 H         2 RES2    0.0000
     87 H41        6.8900   -2.2323    1.8488 H         2 RES2    0.0000
     88 C33        7.7089   -3.6177    3.9926 C.3       2 RES2    0.0000
     89 H42        7.2879   -2.7824    4.2504 H         2 RES2    0.0000
     90 H43        8.6620   -3.4780    3.8783 H         2 RES2    0.0000
     91 H44        7.5597   -4.2827    4.6837 H         2 RES2    0.0000
     92 C34        7.8041   -5.4080    2.2488 C.3       2 RES2    0.0000
     93 H45        7.7013   -6.0756    2.9452 H         2 RES2    0.0000
     94 H46        8.7481   -5.2337    2.1053 H         2 RES2    0.0000
     95 H47        7.4069   -5.7366    1.4261 H         2 RES2    0.0000
     96 C35        2.3847   -3.2344    4.8926 C.ar      2 RES2    0.0000
     97 C36        1.1949   -2.6499    4.3626 C.ar      2 RES2    0.0000
     98 C37        0.6465   -1.4864    4.8776 C.ar      2 RES2    0.0000
     99 H48       -0.0781   -1.0683    4.4484 H         2 RES2    0.0000
    100 C38        1.1806   -0.9553    6.0257 C.ar      2 RES2    0.0000
    101 C39        2.1753   -1.6398    6.7236 C.ar      2 RES2    0.0000
    102 H49        2.4522   -1.3331    7.5678 H         2 RES2    0.0000
    103 C40        2.7465   -2.7546    6.1808 C.ar      2 RES2    0.0000
    104 H50        3.3986   -3.2187    6.6733 H         2 RES2    0.0000
@<TRIPOS>BOND
     1    1    6 2
     2    2    6 2
     3    3    7 2
     4    4    7 2
     5    5    8 1
     6    6   45 1
     7    7   48 1
     8    8    9 1
     9   10    8 1
    10   11   10 1
    11   12   10 2
    12   13   12 1
    13   14   13 1
    14   15   13 1
    15   16   15 1
    16   17    8 1
    17   18   17 1
    18   19   17 1
    19   20    5 1
    20   21   20 1
    21   22   20 1
    22   23   22 1
    23   24   22 1
    24   25   22 1
    25   26   25 1
    26   27   25 1
    27   28   15 1
    28   29   28 1
    29   30   28 1
    30   31   12 1
    31   32   31 1
    32   33   32 1
    33   34   32 1
    34   35   32 1
    35   36   31 1
    36   37   36 1
    37   38   36 1
    38   39   36 1
    39   40   31 1
    40   41   40 1
    41   42   40 1
    42   43   40 1
    43   44    5 1
    44   45   44 ar
    45   46   45 ar
    46   47   46 1
    47   48   46 ar
    48   49   48 ar
    49   50   49 1
    50   51   44 ar
    51   52   51 1
    52   53   58 2
    53   54   58 2
    54   55   59 2
    55   56   59 2
    56   57   60 1
    57   58   97 1
    58   59  100 1
    59   60   61 1
    60   62   60 1
    61   63   62 1
    62   64   62 2
    63   65   64 1
    64   66   65 1
    65   67   65 1
    66   68   67 1
    67   69   60 1
    68   70   69 1
    69   71   69 1
    70   72   57 1
    71   73   72 1
    72   74   72 1
    73   75   74 1
    74   76   74 1
    75   77   74 1
    76   78   77 1
    77   79   77 1
    78   80   67 1
    79   81   80 1
    80   82   80 1
    81   83   64 1
    82   84   83 1
    83   85   84 1
    84   86   84 1
    85   87   84 1
    86   88   83 1
    87   89   88 1
    88   90   88 1
    89   91   88 1
    90   92   83 1
    91   93   92 1
    92   94   92 1
    93   95   92 1
    94   96   57 1
    95   97   96 ar
    96   98   97 ar
    97   99   98 1
    98  100   98 ar
    99  101  100 ar
   100  102  101 1
   101  103   96 ar
   102  104  103 1
   103   13   20 1
   104   15   17 1
   105   25   28 1
   106   49   51 ar
   107   65   72 1
   108   67   69 1
   109   77   80 1
   110  101  103 ar
@<TRIPOS>SUBSTRUCTURE
     1 RES1 1
     2 RES2 53

@<TRIPOS>CRYSIN
  11.4885   12.6257   14.7269  65.3270  81.4960  84.1850   2 1

