# MOL2 file generated by ConQuest
# Please check atom types

@<TRIPOS>MOLECULE
DUCRUQ
    64    64     2
SMALL
NO_CHARGES
****
Generated from CSD

@<TRIPOS>ATOM
      1 O1         0.4234    2.7214   -3.1961 O.2       1 RES1    0.0000
      2 O2         1.7064    4.5223   -3.6080 O.3       1 RES1    0.0000
      3 O3         4.6645    3.0462   -7.4130 O.3       1 RES1    0.0000
      4 O4         4.5202    0.2387   -7.3881 O.3       1 RES1    0.0000
      5 O5         2.9141   -1.0005   -5.6458 O.3       1 RES1    0.0000
      6 O6         4.2359    5.0645   -5.1028 O.2       1 RES1    0.0000
      7 O7         2.5211    5.1840   -6.4272 O.2       1 RES1    0.0000
      8 N1         3.2944    4.5692   -5.7099 N.pl3     1 RES1    0.0000
      9 C1         3.1207    3.1146   -5.6118 C.ar      1 RES1    0.0000
     10 C2         2.2423    2.5133   -4.7182 C.ar      1 RES1    0.0000
     11 C3         2.1641    1.1181   -4.7112 C.ar      1 RES1    0.0000
     12 H1         1.6168    0.7181   -4.0877 H         1 RES1    0.0000
     13 C4         2.9302    0.3546   -5.5882 C.ar      1 RES1    0.0000
     14 C5         3.7771    0.9874   -6.5185 C.ar      1 RES1    0.0000
     15 C6         3.8821    2.3769   -6.5118 C.ar      1 RES1    0.0000
     16 C7         1.3520    3.2418   -3.7642 C.2       1 RES1    0.0000
     17 C8         0.8482    5.3029   -2.7442 C.3       1 RES1    0.0000
     18 H2         0.0651    5.4936   -3.1862 H         1 RES1    0.0000
     19 H3         0.7030    4.8203   -1.9161 H         1 RES1    0.0000
     20 H4         1.3569    6.1230   -2.5524 H         1 RES1    0.0000
     21 C9         6.0799    2.9835   -7.1049 C.3       1 RES1    0.0000
     22 H5         6.5293    3.4629   -7.8065 H         1 RES1    0.0000
     23 H6         6.2400    3.4201   -6.2182 H         1 RES1    0.0000
     24 H7         6.3838    2.0715   -7.0811 H         1 RES1    0.0000
     25 C10        3.9398    0.1145   -8.6858 C.3       1 RES1    0.0000
     26 H8         4.5290   -0.4063   -9.2502 H         1 RES1    0.0000
     27 H9         3.7027    0.9451   -9.0695 H         1 RES1    0.0000
     28 H10        2.9691   -0.3898   -8.5706 H         1 RES1    0.0000
     29 C11        2.1557   -1.6832   -4.6393 C.3       1 RES1    0.0000
     30 H11        2.4926   -1.4362   -3.7526 H         1 RES1    0.0000
     31 H12        1.2156   -1.5259   -4.7215 H         1 RES1    0.0000
     32 H13        2.3147   -2.6162   -4.8155 H         1 RES1    0.0000
     33 O8         4.9865    0.3882   -2.6989 O.2       2 RES2    0.0000
     34 O9         6.1186    2.2821   -3.1588 O.3       2 RES2    0.0000
     35 O10        1.6101    2.1050    0.7570 O.3       2 RES2    0.0000
     36 O11        1.8565    4.8214    0.7115 O.3       2 RES2    0.0000
     37 O12        3.6776    6.0170   -0.9988 O.3       2 RES2    0.0000
     38 O13        2.1079    0.0637   -1.5869 O.2       2 RES2    0.0000
     39 O14        3.6144   -0.2292   -0.0680 O.2       2 RES2    0.0000
     40 N2         3.0001    0.4681   -0.8561 N.pl3     2 RES2    0.0000
     41 C12        3.3003    1.9124   -0.8995 C.ar      2 RES2    0.0000
     42 C13        4.2829    2.4496   -1.7252 C.ar      2 RES2    0.0000
     43 C14        4.4339    3.8371   -1.7459 C.ar      2 RES2    0.0000
     44 H14        5.0792    4.2064   -2.3427 H         2 RES2    0.0000
     45 C15        3.6371    4.6602   -0.9617 C.ar      2 RES2    0.0000
     46 C16        2.6931    4.0990   -0.0793 C.ar      2 RES2    0.0000
     47 C17        2.5151    2.7061   -0.0725 C.ar      2 RES2    0.0000
     48 C18        5.1454    1.5815   -2.5712 C.2       2 RES2    0.0000
     49 C19        7.0427    1.5262   -3.9768 C.3       2 RES2    0.0000
     50 H15        6.5329    1.0348   -4.6878 H         2 RES2    0.0000
     51 H16        7.5360    0.9471   -3.4056 H         2 RES2    0.0000
     52 H17        7.6161    2.1836   -4.4034 H         2 RES2    0.0000
     53 C20        0.2511    2.1966    0.2728 C.3       2 RES2    0.0000
     54 H18        0.1910    1.7675   -0.6170 H         2 RES2    0.0000
     55 H19       -0.2807    1.7256    0.9086 H         2 RES2    0.0000
     56 H20       -0.0444    3.1414    0.2169 H         2 RES2    0.0000
     57 C21        2.3880    5.9747    1.4181 C.3       2 RES2    0.0000
     58 H21        3.2874    5.8112    1.7112 H         2 RES2    0.0000
     59 H22        2.3538    6.7554    0.8363 H         2 RES2    0.0000
     60 H23        1.8080    6.1064    2.1908 H         2 RES2    0.0000
     61 C22        4.5676    6.6366   -1.9375 C.3       2 RES2    0.0000
     62 H24        4.3427    6.3598   -2.8488 H         2 RES2    0.0000
     63 H25        4.4227    7.5817   -1.8390 H         2 RES2    0.0000
     64 H26        5.4906    6.4397   -1.7329 H         2 RES2    0.0000
@<TRIPOS>BOND
     1    1   16 2
     2    2   16 1
     3    3   15 1
     4    4   14 1
     5    5   13 1
     6    6    8 2
     7    7    8 2
     8    8    9 1
     9    9   10 ar
    10   10   11 ar
    11   11   12 1
    12   13   11 ar
    13   14   13 ar
    14   15    9 ar
    15   16   10 1
    16   17    2 1
    17   18   17 1
    18   19   17 1
    19   20   17 1
    20   21    3 1
    21   22   21 1
    22   23   21 1
    23   24   21 1
    24   25    4 1
    25   26   25 1
    26   27   25 1
    27   28   25 1
    28   29    5 1
    29   30   29 1
    30   31   29 1
    31   32   29 1
    32   33   48 2
    33   34   48 1
    34   35   47 1
    35   36   46 1
    36   37   45 1
    37   38   40 2
    38   39   40 2
    39   40   41 1
    40   41   42 ar
    41   42   43 ar
    42   43   44 1
    43   45   43 ar
    44   46   45 ar
    45   47   41 ar
    46   48   42 1
    47   49   34 1
    48   50   49 1
    49   51   49 1
    50   52   49 1
    51   53   35 1
    52   54   53 1
    53   55   53 1
    54   56   53 1
    55   57   36 1
    56   58   57 1
    57   59   57 1
    58   60   57 1
    59   61   37 1
    60   62   61 1
    61   63   61 1
    62   64   61 1
    63   14   15 ar
    64   46   47 ar
@<TRIPOS>SUBSTRUCTURE
     1 RES1 1
     2 RES2 33

@<TRIPOS>CRYSIN
  20.5200    9.7438   24.4340  90.0000  99.4600  90.0000  15 1

