# MOL2 file generated by ConQuest
# Please check atom types

@<TRIPOS>MOLECULE
DUCTUR
    43    44     1
SMALL
NO_CHARGES
****
Generated from CSD

@<TRIPOS>ATOM
      1 N1        26.3201    1.4043    4.1222 N.2       1 RES1    0.0000
      2 N2        23.0116    5.8382    0.7338 N.pl3     1 RES1    0.0000
      3 O1        26.5589    0.5463    5.2031 O.3       1 RES1    0.0000
      4 O2        21.9809    6.4037    1.0702 O.2       1 RES1    0.0000
      5 O3        23.5775    6.0657   -0.3327 O.2       1 RES1    0.0000
      6 C1        27.7891   -0.1637    5.0292 C.3       1 RES1    0.0000
      7 H1        28.5228    0.4577    4.9056 H         1 RES1    0.0000
      8 H2        27.7375   -0.7426    4.2527 H         1 RES1    0.0000
      9 C2        27.9946   -0.9767    6.2771 C.3       1 RES1    0.0000
     10 H3        27.2229   -1.5493    6.4045 H         1 RES1    0.0000
     11 C3        25.2198    2.0171    4.3017 C.2       1 RES1    0.0000
     12 H4        24.7339    1.8385    5.0732 H         1 RES1    0.0000
     13 C4        24.6879    2.9876    3.3501 C.ar      1 RES1    0.0000
     14 C5        25.3544    3.3299    2.1681 C.ar      1 RES1    0.0000
     15 H5        26.1663    2.9277    1.9585 H         1 RES1    0.0000
     16 C6        24.8023    4.2698    1.3094 C.ar      1 RES1    0.0000
     17 H6        25.2451    4.5111    0.5279 H         1 RES1    0.0000
     18 C7        23.5957    4.8381    1.6283 C.ar      1 RES1    0.0000
     19 C8        22.9195    4.5211    2.7858 C.ar      1 RES1    0.0000
     20 H7        22.1057    4.9219    2.9854 H         1 RES1    0.0000
     21 C9        23.4762    3.5990    3.6395 C.ar      1 RES1    0.0000
     22 H8        23.0309    3.3807    4.4272 H         1 RES1    0.0000
     23 N1A       29.6691    1.4043    8.4320 N.2       1 RES1    0.0000
     24 N2A       32.9776    5.8382   11.8204 N.pl3     1 RES1    0.0000
     25 O1A       29.4304    0.5463    7.3511 O.3       1 RES1    0.0000
     26 O2A       34.0084    6.4037   11.4840 O.2       1 RES1    0.0000
     27 O3A       32.4118    6.0657   12.8869 O.2       1 RES1    0.0000
     28 C1A       28.2001   -0.1637    7.5250 C.3       1 RES1    0.0000
     29 H1A       27.4664    0.4577    7.6487 H         1 RES1    0.0000
     30 H2A       28.2518   -0.7426    8.3015 H         1 RES1    0.0000
     31 H3A       28.7664   -1.5493    6.1497 H         1 RES1    0.0000
     32 C3A       30.7695    2.0171    8.2525 C.2       1 RES1    0.0000
     33 H4A       31.2553    1.8385    7.4811 H         1 RES1    0.0000
     34 C4A       31.3014    2.9876    9.2041 C.ar      1 RES1    0.0000
     35 C5A       30.6349    3.3299   10.3861 C.ar      1 RES1    0.0000
     36 H5A       29.8229    2.9277   10.5958 H         1 RES1    0.0000
     37 C6A       31.1870    4.2698   11.2448 C.ar      1 RES1    0.0000
     38 H6A       30.7442    4.5111   12.0263 H         1 RES1    0.0000
     39 C7A       32.3936    4.8381   10.9259 C.ar      1 RES1    0.0000
     40 C8A       33.0698    4.5211    9.7684 C.ar      1 RES1    0.0000
     41 H7A       33.8836    4.9219    9.5688 H         1 RES1    0.0000
     42 C9A       32.5131    3.5990    8.9147 C.ar      1 RES1    0.0000
     43 H8A       32.9584    3.3807    8.1270 H         1 RES1    0.0000
@<TRIPOS>BOND
     1    1    3 1
     2    2    4 2
     3    3    6 1
     4    5    2 2
     5    6    7 1
     6    8    6 1
     7    9    6 1
     8   10    9 1
     9   11    1 2
    10   12   11 1
    11   13   11 1
    12   14   13 ar
    13   15   14 1
    14   16   14 ar
    15   17   16 1
    16   18    2 1
    17   19   18 ar
    18   20   19 1
    19   21   13 ar
    20   22   21 1
    21   23   25 1
    22   24   26 2
    23   25   28 1
    24   27   24 2
    25   28    9 1
    26   29   28 1
    27   30   28 1
    28   31    9 1
    29   32   23 2
    30   33   32 1
    31   34   32 1
    32   35   34 ar
    33   36   35 1
    34   37   35 ar
    35   38   37 1
    36   39   24 1
    37   40   39 ar
    38   41   40 1
    39   42   34 ar
    40   43   42 1
    41   16   18 ar
    42   19   21 ar
    43   37   39 ar
    44   40   42 ar
@<TRIPOS>SUBSTRUCTURE
     1 RES1 1

@<TRIPOS>CRYSIN
  29.0050    4.7878    6.3579  90.0000  99.1440  90.0000   5 1

