# MOL2 file generated by ConQuest
# Please check atom types

@<TRIPOS>MOLECULE
DUCVUT
    33    35     1
SMALL
NO_CHARGES
****
Generated from CSD

@<TRIPOS>ATOM
      1 O1         0.3589   -1.0391   12.3172 O.3       1 RES1    0.0000
      2 N1        -0.9481    1.5924   10.7328 N.2       1 RES1    0.0000
      3 N2        -0.4783    0.5465    9.9395 N.3       1 RES1    0.0000
      4 C1         0.7056    0.7147    9.2501 C.ar      1 RES1    0.0000
      5 C2         1.3637    1.9449    9.2603 C.ar      1 RES1    0.0000
      6 H1         1.0184    2.6647    9.7382 H         1 RES1    0.0000
      7 C3        -1.9369    1.1641   11.4181 C.2       1 RES1    0.0000
      8 C4         1.2496   -0.3256    8.4922 C.ar      1 RES1    0.0000
      9 H2         0.8114   -1.1453    8.4533 H         1 RES1    0.0000
     10 C5        -0.0898   -1.5788   11.1420 C.2       1 RES1    0.0000
     11 C6         2.5379    2.0718    8.5475 C.ar      1 RES1    0.0000
     12 N3         3.1958    3.3741    8.5695 N.pl3     1 RES1    0.0000
     13 O2         4.2685    3.5073    8.0029 O.2       1 RES1    0.0000
     14 C7        -1.0471   -0.7522   10.3574 C.3       1 RES1    0.0000
     15 H3        -1.3542   -1.2512    9.5716 H         1 RES1    0.0000
     16 C8         3.1023    1.0511    7.8201 C.ar      1 RES1    0.0000
     17 H4         3.9028    1.1673    7.3610 H         1 RES1    0.0000
     18 C9        -2.2505   -0.2711   11.1741 C.3       1 RES1    0.0000
     19 H5        -3.0755   -0.3693   10.6735 H         1 RES1    0.0000
     20 H6        -2.3256   -0.7596   12.0089 H         1 RES1    0.0000
     21 C10        1.1835   -1.9826   12.8758 C.2       1 RES1    0.0000
     22 H7         1.6309   -1.8820   13.6843 H         1 RES1    0.0000
     23 O3         2.6567    4.2878    9.1483 O.2       1 RES1    0.0000
     24 C11        2.4309   -0.1499    7.8015 C.ar      1 RES1    0.0000
     25 H8         2.7813   -0.8591    7.3118 H         1 RES1    0.0000
     26 C12        0.4309   -2.7872   10.9833 C.2       1 RES1    0.0000
     27 H9         0.2849   -3.3607   10.2653 H         1 RES1    0.0000
     28 C13        1.2522   -3.0439   12.1124 C.2       1 RES1    0.0000
     29 H10        1.7441   -3.8165   12.2779 H         1 RES1    0.0000
     30 C14       -2.7059    2.0523   12.3223 C.3       1 RES1    0.0000
     31 H11       -2.3180    2.9306   12.3148 H         1 RES1    0.0000
     32 H12       -2.6810    1.7000   13.2146 H         1 RES1    0.0000
     33 H13       -3.6167    2.1025   12.0239 H         1 RES1    0.0000
@<TRIPOS>BOND
     1    1   10 1
     2    2    3 1
     3    3    4 1
     4    4    5 ar
     5    5    6 1
     6    7    2 2
     7    8    4 ar
     8    9    8 1
     9   10   14 1
    10   11    5 ar
    11   12   11 1
    12   13   12 2
    13   14    3 1
    14   15   14 1
    15   16   11 ar
    16   17   16 1
    17   18    7 1
    18   19   18 1
    19   20   18 1
    20   21    1 1
    21   22   21 1
    22   23   12 2
    23   24    8 ar
    24   25   24 1
    25   26   10 2
    26   27   26 1
    27   28   21 2
    28   29   28 1
    29   30    7 1
    30   31   30 1
    31   32   30 1
    32   33   30 1
    33   14   18 1
    34   16   24 ar
    35   26   28 1
@<TRIPOS>SUBSTRUCTURE
     1 RES1 1

@<TRIPOS>CRYSIN
   6.2089    7.8581   14.3800 105.7640  97.0540  96.9440   2 1

