# MOL2 file generated by ConQuest
# Please check atom types

@<TRIPOS>MOLECULE
DUCXEF
    28    28     1
SMALL
NO_CHARGES
****
Generated from CSD

@<TRIPOS>ATOM
      1 N1         1.9531   10.6906    1.4478 N.2       1 RES1    0.0000
      2 C1         1.5732    9.1086   -0.2667 C.ar      1 RES1    0.0000
      3 N2         1.8033   10.3915    0.1167 N.3       1 RES1    0.0000
      4 C2         1.4721    8.0814    0.6948 C.ar      1 RES1    0.0000
      5 H1         1.5400    8.2966    1.5975 H         1 RES1    0.0000
      6 C3         1.4336    8.7069   -1.6141 C.ar      1 RES1    0.0000
      7 C4         1.2386    7.3763   -1.9525 C.ar      1 RES1    0.0000
      8 H2         1.1548    7.1352   -2.8476 H         1 RES1    0.0000
      9 N3         1.4866    9.6624   -2.6874 N.pl3     1 RES1    0.0000
     10 C5         1.2778    6.7889    0.3358 C.ar      1 RES1    0.0000
     11 H3         1.2170    6.1362    0.9957 H         1 RES1    0.0000
     12 C6         1.1682    6.4232   -0.9909 C.ar      1 RES1    0.0000
     13 H4         1.0470    5.5314   -1.2225 H         1 RES1    0.0000
     14 O1         1.5941   10.8585   -2.4361 O.2       1 RES1    0.0000
     15 C7         2.2107   11.9138    1.7301 C.2       1 RES1    0.0000
     16 O2         1.4260    9.2614   -3.8415 O.2       1 RES1    0.0000
     17 C8         2.3630   12.2713    3.1663 C.3       1 RES1    0.0000
     18 H5         3.2451   12.6533    3.2939 H         1 RES1    0.0000
     19 H6         1.7142   12.9598    3.3796 H         1 RES1    0.0000
     20 C9         2.3677   13.0231    0.7379 C.3       1 RES1    0.0000
     21 H7         3.0655   12.8004    0.1163 H         1 RES1    0.0000
     22 H8         2.5960   13.8342    1.1978 H         1 RES1    0.0000
     23 H9         1.5431   13.1457    0.2617 H         1 RES1    0.0000
     24 C10        2.1949   11.1660    4.1224 C.3       1 RES1    0.0000
     25 H10        1.3420   10.7492    3.9829 H         1 RES1    0.0000
     26 H11        2.2421   11.5082    5.0179 H         1 RES1    0.0000
     27 H12        2.8921   10.5194    3.9902 H         1 RES1    0.0000
     28 H13        1.8410   11.0383   -0.4913 H         1 RES1    0.0000
@<TRIPOS>BOND
     1    1    3 1
     2    2    3 1
     3    3   28 1
     4    4    2 ar
     5    5    4 1
     6    6    2 ar
     7    7    6 ar
     8    8    7 1
     9    9    6 1
    10   10    4 ar
    11   11   10 1
    12   12    7 ar
    13   13   12 1
    14   14    9 2
    15   15    1 2
    16   16    9 2
    17   17   15 1
    18   18   17 1
    19   19   17 1
    20   20   15 1
    21   21   20 1
    22   22   20 1
    23   23   20 1
    24   24   17 1
    25   25   24 1
    26   26   24 1
    27   27   24 1
    28   10   12 ar
@<TRIPOS>SUBSTRUCTURE
     1 RES1 1

@<TRIPOS>CRYSIN
   7.3079   10.2150   14.7630  90.0000 100.0580  90.0000  14 1

