# MOL2 file generated by ConQuest
# Please check atom types

@<TRIPOS>MOLECULE
DUDBUA
    36    36     1
SMALL
NO_CHARGES
****
Generated from CSD

@<TRIPOS>ATOM
      1 C1         3.5453    2.0138    0.0576 C.ar      1 RES1    0.0000
      2 C2         3.6657    1.3363   -1.1335 C.ar      1 RES1    0.0000
      3 H1         2.9097    1.1178   -1.6290 H         1 RES1    0.0000
      4 C3         4.9174    0.9869   -1.5820 C.ar      1 RES1    0.0000
      5 H2         5.0153    0.5296   -2.3858 H         1 RES1    0.0000
      6 C4         6.0261    1.3168   -0.8345 C.ar      1 RES1    0.0000
      7 H3         6.8717    1.0722   -1.1333 H         1 RES1    0.0000
      8 C5         5.8948    2.0095    0.3550 C.ar      1 RES1    0.0000
      9 H4         6.6567    2.2326    0.8390 H         1 RES1    0.0000
     10 C6         4.6446    2.3788    0.8424 C.ar      1 RES1    0.0000
     11 C7         4.5614    3.2024    2.0548 C.2       1 RES1    0.0000
     12 H5         4.0309    3.9650    2.0187 H         1 RES1    0.0000
     13 C8         5.1845    2.9436    3.1985 C.2       1 RES1    0.0000
     14 C9         5.8673    1.6365    3.4548 C.2       1 RES1    0.0000
     15 C10        7.8940    0.6042    4.1254 C.3       1 RES1    0.0000
     16 H6         8.8424    0.7643    4.0041 H         1 RES1    0.0000
     17 H7         7.6365   -0.1266    3.5417 H         1 RES1    0.0000
     18 C11        7.6343    0.2238    5.5340 C.3       1 RES1    0.0000
     19 H8         7.8440    0.9626    6.1086 H         1 RES1    0.0000
     20 H9         8.1812   -0.5299    5.7678 H         1 RES1    0.0000
     21 H10        6.7085   -0.0091    5.6367 H         1 RES1    0.0000
     22 C12        5.1245    3.9488    4.2937 C.2       1 RES1    0.0000
     23 C13        5.4899    4.3104    6.5991 C.3       1 RES1    0.0000
     24 H11        4.6110    4.7005    6.7283 H         1 RES1    0.0000
     25 H12        6.1271    5.0277    6.4578 H         1 RES1    0.0000
     26 C14        5.8746    3.5108    7.7873 C.3       1 RES1    0.0000
     27 H13        5.2008    2.8479    7.9581 H         1 RES1    0.0000
     28 H14        5.9552    4.0885    8.5492 H         1 RES1    0.0000
     29 H15        6.7149    3.0775    7.6233 H         1 RES1    0.0000
     30 N1         2.1923    2.2974    0.5317 N.pl3     1 RES1    0.0000
     31 O1         1.2927    2.3316   -0.2949 O.2       1 RES1    0.0000
     32 O2         2.0135    2.4692    1.7193 O.2       1 RES1    0.0000
     33 O3         5.3086    0.5828    3.3854 O.2       1 RES1    0.0000
     34 O4         4.7752    5.0870    4.1447 O.2       1 RES1    0.0000
     35 O5         5.4785    3.4184    5.4544 O.3       1 RES1    0.0000
     36 O6         7.1498    1.8015    3.7588 O.3       1 RES1    0.0000
@<TRIPOS>BOND
     1    1    2 ar
     2    2    3 1
     3    4    2 ar
     4    5    4 1
     5    6    4 ar
     6    7    6 1
     7    8    6 ar
     8    9    8 1
     9   10    1 ar
    10   11   10 1
    11   12   11 1
    12   13   11 2
    13   14   13 1
    14   15   16 1
    15   17   15 1
    16   18   15 1
    17   19   18 1
    18   20   18 1
    19   21   18 1
    20   22   13 1
    21   23   24 1
    22   25   23 1
    23   26   23 1
    24   27   26 1
    25   28   26 1
    26   29   26 1
    27   30    1 1
    28   31   30 2
    29   32   30 2
    30   33   14 2
    31   34   22 2
    32   35   22 1
    33   36   14 1
    34    8   10 ar
    35   15   36 1
    36   23   35 1
@<TRIPOS>SUBSTRUCTURE
     1 RES1 1

@<TRIPOS>CRYSIN
   7.8410    8.5571   12.3533  80.8660  75.0370  64.4020   2 1

