# MOL2 file generated by ConQuest
# Please check atom types

@<TRIPOS>MOLECULE
DUDHOA
    28    28     1
SMALL
NO_CHARGES
****
Generated from CSD

@<TRIPOS>ATOM
      1 N1        -2.1877    6.6960    1.8031 N.ar      1 RES1    0.0000
      2 N2        -0.2479    9.5141    0.9776 N.2       1 RES1    0.0000
      3 N3         0.6150   10.3986    1.5544 N.am      1 RES1    0.0000
      4 N4         2.5092   11.8793    2.6438 N.2       1 RES1    0.0000
      5 O1         0.7931   11.6352   -0.3269 O.2       1 RES1    0.0000
      6 O2         3.3776   12.7849    3.2358 O.3       1 RES1    0.0000
      7 C1        -1.6779    7.6586    1.0406 C.ar      1 RES1    0.0000
      8 C2        -1.9846    7.7609   -0.2954 C.ar      1 RES1    0.0000
      9 H1        -1.6256    8.4505   -0.8070 H         1 RES1    0.0000
     10 C3        -2.8190    6.8453   -0.8614 C.ar      1 RES1    0.0000
     11 H2        -3.0209    6.8933   -1.7683 H         1 RES1    0.0000
     12 C4        -3.3481    5.8749   -0.0978 C.ar      1 RES1    0.0000
     13 H3        -3.9277    5.2425   -0.4595 H         1 RES1    0.0000
     14 C5        -3.0099    5.8407    1.2252 C.ar      1 RES1    0.0000
     15 H4        -3.3826    5.1717    1.7531 H         1 RES1    0.0000
     16 C6        -0.7486    8.6026    1.7184 C.2       1 RES1    0.0000
     17 C7        -0.4397    8.4299    3.1739 C.3       1 RES1    0.0000
     18 H5        -0.6632    9.2337    3.6464 H         1 RES1    0.0000
     19 H6         0.4960    8.2450    3.2825 H         1 RES1    0.0000
     20 H7        -0.9531    7.6993    3.5258 H         1 RES1    0.0000
     21 C8         1.0908   11.4263    0.8505 C.2       1 RES1    0.0000
     22 C9         2.0128   12.3415    1.5533 C.2       1 RES1    0.0000
     23 C10        2.3177   13.6553    0.9656 C.3       1 RES1    0.0000
     24 H8         1.5544   13.9715    0.4779 H         1 RES1    0.0000
     25 H9         3.0666   13.5742    0.3715 H         1 RES1    0.0000
     26 H10        2.5302   14.2775    1.6662 H         1 RES1    0.0000
     27 H11        0.7473   10.4233    2.4114 H         1 RES1    0.0000
     28 H12        3.6416   12.2910    3.8560 H         1 RES1    0.0000
@<TRIPOS>BOND
     1    1    7 ar
     2    2    3 1
     3    3   21 1
     4    4    6 1
     5    5   21 2
     6    6   28 1
     7    7    8 ar
     8    8    9 1
     9   10    8 ar
    10   11   10 1
    11   12   10 ar
    12   13   12 1
    13   14    1 ar
    14   15   14 1
    15   16    2 2
    16   17   16 1
    17   18   17 1
    18   19   17 1
    19   20   17 1
    20   21   22 1
    21   22    4 2
    22   23   22 1
    23   24   23 1
    24   25   23 1
    25   26   23 1
    26   27    3 1
    27    7   16 1
    28   12   14 ar
@<TRIPOS>SUBSTRUCTURE
     1 RES1 1

@<TRIPOS>CRYSIN
   4.4498   22.8330   10.9550  90.0000  97.4700  90.0000   9 1

