# MOL2 file generated by ConQuest
# Please check atom types

@<TRIPOS>MOLECULE
DUDHOB
    34    35     1
SMALL
NO_CHARGES
****
Generated from CSD

@<TRIPOS>ATOM
      1 O1         1.6716    3.0751    4.9193 O.3       1 RES1    0.0000
      2 O2         1.4434    0.9741    4.1199 O.2       1 RES1    0.0000
      3 O3         0.6116   -3.5511   13.1736 O.2       1 RES1    0.0000
      4 O4         0.9531   -4.9680   11.6037 O.2       1 RES1    0.0000
      5 N1         1.4612    2.2145    7.4928 N.2       1 RES1    0.0000
      6 N2         1.3638    1.5285    8.5925 N.2       1 RES1    0.0000
      7 N3         1.2661    0.2137    8.2508 N.pl3     1 RES1    0.0000
      8 N4         1.1189   -2.0273    8.7965 N.ar      1 RES1    0.0000
      9 N5         0.8270   -3.8382   12.0082 N.pl3     1 RES1    0.0000
     10 C1         2.9909    3.2951    2.8620 C.3       1 RES1    0.0000
     11 H1         2.9045    2.3591    2.6612 H         1 RES1    0.0000
     12 H2         3.7668    3.4352    3.4100 H         1 RES1    0.0000
     13 H3         3.0839    3.7902    2.0447 H         1 RES1    0.0000
     14 C2         0.4918    3.4916    2.8066 C.3       1 RES1    0.0000
     15 H4         0.4514    2.5595    2.5842 H         1 RES1    0.0000
     16 H5         0.4996    4.0124    2.0006 H         1 RES1    0.0000
     17 H6        -0.2747    3.7292    3.3340 H         1 RES1    0.0000
     18 C3         1.8665    5.2050    4.0171 C.3       1 RES1    0.0000
     19 H7         1.9204    5.7616    3.2355 H         1 RES1    0.0000
     20 H8         2.6557    5.3259    4.5501 H         1 RES1    0.0000
     21 H9         1.0925    5.4479    4.5304 H         1 RES1    0.0000
     22 C4         1.7592    3.7685    3.6014 C.3       1 RES1    0.0000
     23 C5         1.5127    1.7753    5.0249 C.2       1 RES1    0.0000
     24 C6         1.4250    1.3451    6.4409 C.2       1 RES1    0.0000
     25 C7         1.3007    0.0786    6.9101 C.2       1 RES1    0.0000
     26 H10        1.2494   -0.7079    6.4165 H         1 RES1    0.0000
     27 C8         1.1514   -0.7861    9.2569 C.ar      1 RES1    0.0000
     28 C9         1.0780   -0.4261   10.5903 C.ar      1 RES1    0.0000
     29 H11        1.1037    0.4662   10.8540 H         1 RES1    0.0000
     30 C10        0.9648   -1.4366   11.5071 C.ar      1 RES1    0.0000
     31 H12        0.9092   -1.2503   12.4164 H         1 RES1    0.0000
     32 C11        0.9367   -2.7305   11.0548 C.ar      1 RES1    0.0000
     33 C12        1.0198   -3.0032    9.7073 C.ar      1 RES1    0.0000
     34 H13        1.0063   -3.8883    9.4230 H         1 RES1    0.0000
@<TRIPOS>BOND
     1    1   22 1
     2    2   23 2
     3    3    9 2
     4    4    9 2
     5    5    6 2
     6    6    7 1
     7    7   25 1
     8    8   27 ar
     9    9   32 1
    10   10   11 1
    11   12   10 1
    12   13   10 1
    13   14   15 1
    14   16   14 1
    15   17   14 1
    16   18   19 1
    17   20   18 1
    18   21   18 1
    19   22   10 1
    20   23    1 1
    21   24    5 1
    22   25   24 2
    23   26   25 1
    24   27    7 1
    25   28   27 ar
    26   29   28 1
    27   30   28 ar
    28   31   30 1
    29   32   30 ar
    30   33    8 ar
    31   34   33 1
    32   14   22 1
    33   18   22 1
    34   23   24 1
    35   32   33 ar
@<TRIPOS>SUBSTRUCTURE
     1 RES1 1

@<TRIPOS>CRYSIN
   6.8854   21.7830    9.3986  90.0000  93.2390  90.0000  14 1

