# MOL2 file generated by ConQuest
# Please check atom types

@<TRIPOS>MOLECULE
DUDMUL
    62    54     3
SMALL
NO_CHARGES
****
Generated from CSD

@<TRIPOS>ATOM
      1 O1         2.1628    2.6321    4.2493 O.3       1 RES1    0.0000
      2 O2         2.9595    5.4633    5.7074 O.3       2 RES2    0.0000
      3 N1         1.3720    3.7863    4.1049 N.2       1 RES1    0.0000
      4 N2         3.7229    4.2995    5.9232 N.2       2 RES2    0.0000
      5 C1         0.2959    3.5471    3.4812 C.2       1 RES1    0.0000
      6 H1         0.1138    2.6772    3.2076 H         1 RES1    0.0000
      7 C2        -0.6590    4.5985    3.1821 C.2       1 RES1    0.0000
      8 C3        -1.7726    4.3235    2.5287 C.2       1 RES1    0.0000
      9 H2        -1.9277    3.4359    2.2993 H         1 RES1    0.0000
     10 C4        -2.7996    5.3244    2.1327 C.3       1 RES1    0.0000
     11 H3        -3.5871    5.2068    2.6859 H         1 RES1    0.0000
     12 H4        -3.0580    5.1654    1.2108 H         1 RES1    0.0000
     13 C5        -2.3030    6.7632    2.2704 C.3       1 RES1    0.0000
     14 H5        -1.6723    6.9242    1.5371 H         1 RES1    0.0000
     15 C6        -1.5398    6.9125    3.5534 C.3       1 RES1    0.0000
     16 H6        -2.1262    6.7077    4.2977 H         1 RES1    0.0000
     17 H7        -1.2521    7.8348    3.6460 H         1 RES1    0.0000
     18 C7        -0.3288    6.0048    3.6095 C.3       1 RES1    0.0000
     19 H8         0.3645    6.3596    3.0309 H         1 RES1    0.0000
     20 H9         0.0178    5.9901    4.5153 H         1 RES1    0.0000
     21 C8        -3.4371    7.7538    2.1106 C.2       1 RES1    0.0000
     22 C9        -4.3749    7.9696    3.0224 C.2       1 RES1    0.0000
     23 H10       -5.0460    8.5965    2.8601 H         1 RES1    0.0000
     24 H11       -4.3634    7.5018    3.8245 H         1 RES1    0.0000
     25 C10       -3.4388    8.5015    0.8106 C.3       1 RES1    0.0000
     26 H12       -3.6164    7.8914    0.0909 H         1 RES1    0.0000
     27 H13       -2.5826    8.9139    0.6772 H         1 RES1    0.0000
     28 H14       -4.1198    9.1780    0.8318 H         1 RES1    0.0000
     29 C11        4.7988    4.5439    6.5324 C.2       2 RES2    0.0000
     30 H15        5.0082    5.4218    6.7576 H         2 RES2    0.0000
     31 C12        5.7186    3.4746    6.8893 C.2       2 RES2    0.0000
     32 C13        6.8687    3.7589    7.4620 C.2       2 RES2    0.0000
     33 H16        7.0437    4.6502    7.6617 H         2 RES2    0.0000
     34 C14        7.9149    2.7507    7.8155 C.3       2 RES2    0.0000
     35 H17        7.9158    2.6155    8.7756 H         2 RES2    0.0000
     36 H18        8.7863    3.0930    7.5614 H         2 RES2    0.0000
     37 C15        7.6802    1.4174    7.1230 C.3       2 RES2    0.0000
     38 H19        7.8665    1.5510    6.1705 H         2 RES2    0.0000
     39 C16        6.2034    1.0488    7.2453 C.3       2 RES2    0.0000
     40 H20        6.0536    0.1796    6.8426 H         2 RES2    0.0000
     41 H21        5.9622    0.9909    8.1834 H         2 RES2    0.0000
     42 C17        5.3263    2.0763    6.5630 C.3       2 RES2    0.0000
     43 H22        5.3778    1.9490    5.6029 H         2 RES2    0.0000
     44 H23        4.4049    1.9348    6.8324 H         2 RES2    0.0000
     45 C18        8.6285    0.3505    7.6166 C.2       2 RES2    0.0000
     46 C19        9.5840   -0.0971    6.8298 C.2       2 RES2    0.0000
     47 H24       10.1751   -0.7466    7.1383 H         2 RES2    0.0000
     48 H25        9.6681    0.2351    5.9657 H         2 RES2    0.0000
     49 C20        8.4545   -0.1501    9.0042 C.3       2 RES2    0.0000
     50 H26        9.0707   -0.8690    9.1648 H         2 RES2    0.0000
     51 H27        7.5560   -0.4684    9.1197 H         2 RES2    0.0000
     52 H28        8.6245    0.5618    9.6253 H         2 RES2    0.0000
     53 H29        2.6828    2.9885    4.8263 H         1 RES1    0.0000
     54 H30        2.3381    5.2362    5.1746 H         2 RES2    0.0000
     55 C21       -4.2419    8.1063    3.3452 Du        3 SUP3    0.0000
     56 C22       -3.4371    7.7538    2.1106 Du        3 SUP3    0.0000
     57 C23       -3.7425    8.2500    0.9126 Du        3 SUP3    0.0000
     58 H31       -4.8781    8.7902    3.1294 Du        3 SUP3    0.0000
     59 H32       -3.6518    8.4187    4.0335 Du        3 SUP3    0.0000
     60 H33       -4.7074    7.3233    3.6562 Du        3 SUP3    0.0000
     61 H34       -4.4657    8.8270    0.8191 Du        3 SUP3    0.0000
     62 H35       -3.2319    8.0194    0.1699 Du        3 SUP3    0.0000
@<TRIPOS>BOND
     1    1    3 1
     2    2    4 1
     3    3    5 2
     4    4   29 2
     5    5    6 1
     6    7    5 1
     7    8    7 2
     8    9    8 1
     9   10    8 1
    10   11   10 1
    11   12   10 1
    12   13   10 1
    13   14   13 1
    14   15   13 1
    15   16   15 1
    16   17   15 1
    17   18    7 1
    18   19   18 1
    19   20   18 1
    20   21   13 1
    21   22   21 2
    22   23   22 1
    23   24   22 1
    24   25   21 1
    25   26   25 1
    26   27   25 1
    27   28   25 1
    28   29   30 1
    29   31   29 1
    30   32   31 2
    31   33   32 1
    32   34   32 1
    33   35   34 1
    34   36   34 1
    35   37   34 1
    36   38   37 1
    37   39   37 1
    38   40   39 1
    39   41   39 1
    40   42   31 1
    41   43   42 1
    42   44   42 1
    43   45   37 1
    44   46   45 2
    45   47   46 1
    46   48   46 1
    47   49   45 1
    48   50   49 1
    49   51   49 1
    50   52   49 1
    51   53    1 1
    52   54    2 1
    53   15   18 1
    54   39   42 1
@<TRIPOS>SUBSTRUCTURE
     1 RES1 1
     2 RES2 2
     3 SUP3 55

@<TRIPOS>CRYSIN
   7.2679    8.1702    8.9426 105.1500  95.6580 104.6020   1 1

