# MOL2 file generated by ConQuest
# Please check atom types

@<TRIPOS>MOLECULE
DUDZIL01
    28    29     1
SMALL
NO_CHARGES
****
Generated from CSD

@<TRIPOS>ATOM
      1 O1        -3.1832    6.0960    0.7010 O.2       1 RES1    0.0000
      2 O2         2.6488    2.2185    0.1692 O.2       1 RES1    0.0000
      3 O3         2.1160    3.2250    2.0173 O.2       1 RES1    0.0000
      4 N1        -2.4485    5.2542   -1.7172 N.pl3     1 RES1    0.0000
      5 H1        -2.5792    5.0763   -2.5484 H         1 RES1    0.0000
      6 H2        -2.9992    5.7610   -1.2941 H         1 RES1    0.0000
      7 N2         1.9211    2.9608    0.8188 N.pl3     1 RES1    0.0000
      8 C1        -1.1268    5.0168    0.2850 C.ar      1 RES1    0.0000
      9 C2        -1.3888    4.7432   -1.0831 C.ar      1 RES1    0.0000
     10 C3        -0.4928    3.9122   -1.7930 C.ar      1 RES1    0.0000
     11 H3        -0.6312    3.7616   -2.6999 H         1 RES1    0.0000
     12 C4         0.5713    3.3269   -1.1724 C.ar      1 RES1    0.0000
     13 H4         1.1470    2.7733   -1.6492 H         1 RES1    0.0000
     14 C5         0.7836    3.5654    0.1684 C.ar      1 RES1    0.0000
     15 C6        -0.0290    4.3973    0.8771 C.ar      1 RES1    0.0000
     16 H5         0.1532    4.5551    1.7749 H         1 RES1    0.0000
     17 C7        -2.0306    5.8559    1.0779 C.2       1 RES1    0.0000
     18 C8        -1.5769    6.4573    2.3565 C.ar      1 RES1    0.0000
     19 C9        -0.3577    7.0920    2.4978 C.ar      1 RES1    0.0000
     20 H6         0.2581    7.0723    1.8008 H         1 RES1    0.0000
     21 C10       -0.0500    7.7550    3.6689 C.ar      1 RES1    0.0000
     22 H7         0.7660    8.1943    3.7505 H         1 RES1    0.0000
     23 C11       -0.9360    7.7726    4.7079 C.ar      1 RES1    0.0000
     24 H8        -0.7183    8.2178    5.4956 H         1 RES1    0.0000
     25 C12       -2.1591    7.1290    4.5952 C.ar      1 RES1    0.0000
     26 H9        -2.7607    7.1290    5.3039 H         1 RES1    0.0000
     27 C13       -2.4654    6.4914    3.4189 C.ar      1 RES1    0.0000
     28 H10       -3.2910    6.0726    3.3321 H         1 RES1    0.0000
@<TRIPOS>BOND
     1    1   17 2
     2    2    7 2
     3    3    7 2
     4    4    5 1
     5    6    4 1
     6    7   14 1
     7    8    9 ar
     8    9    4 1
     9   10    9 ar
    10   11   10 1
    11   12   10 ar
    12   13   12 1
    13   14   12 ar
    14   15    8 ar
    15   16   15 1
    16   17    8 1
    17   18   17 1
    18   19   18 ar
    19   20   19 1
    20   21   19 ar
    21   22   21 1
    22   23   21 ar
    23   24   23 1
    24   25   23 ar
    25   26   25 1
    26   27   18 ar
    27   28   27 1
    28   14   15 ar
    29   25   27 ar
@<TRIPOS>SUBSTRUCTURE
     1 RES1 1

@<TRIPOS>CRYSIN
   5.7358   14.6930   13.1120  90.0000  98.8700  90.0000  14 1

