# MOL2 file generated by ConQuest
# Please check atom types

@<TRIPOS>MOLECULE
DUDZIL
    28    29     1
SMALL
NO_CHARGES
****
Generated from CSD

@<TRIPOS>ATOM
      1 C1         1.0279    1.6931    0.7251 C.ar      1 RES1    0.0000
      2 C2         1.2229    0.3889    1.2311 C.ar      1 RES1    0.0000
      3 C3         0.5210   -0.0126    2.3632 C.ar      1 RES1    0.0000
      4 C4        -0.3397    0.8497    2.9960 C.ar      1 RES1    0.0000
      5 C5        -0.4978    2.1540    2.5478 C.ar      1 RES1    0.0000
      6 C6         0.1829    2.5719    1.4379 C.ar      1 RES1    0.0000
      7 N1         1.6333    2.1350   -0.3915 N.3       1 RES1    0.0000
      8 N2        -1.0838    0.3737    4.1359 N.pl3     1 RES1    0.0000
      9 O1        -1.8379    1.1565    4.7153 O.2       1 RES1    0.0000
     10 O2        -0.9711   -0.7879    4.4862 O.2       1 RES1    0.0000
     11 C7         2.1482   -0.5480    0.5716 C.2       1 RES1    0.0000
     12 O3         2.4651   -0.4242   -0.5872 O.2       1 RES1    0.0000
     13 C8         2.7417   -1.6565    1.3790 C.ar      1 RES1    0.0000
     14 C9         2.7968   -2.9279    0.8385 C.ar      1 RES1    0.0000
     15 C10        3.4431   -3.9342    1.5169 C.ar      1 RES1    0.0000
     16 C11        4.0574   -3.6729    2.7235 C.ar      1 RES1    0.0000
     17 C12        4.0093   -2.4090    3.2673 C.ar      1 RES1    0.0000
     18 C13        3.3253   -1.4027    2.6057 C.ar      1 RES1    0.0000
     19 H1         0.6698   -0.9091    2.6579 H         1 RES1    0.0000
     20 H2        -1.1247    2.7524    3.0360 H         1 RES1    0.0000
     21 H3         0.1740    3.5226    1.1010 H         1 RES1    0.0000
     22 H4         1.5646    3.0302   -0.5227 H         1 RES1    0.0000
     23 H5         2.3358    1.5656   -0.8230 H         1 RES1    0.0000
     24 H6         2.4406   -3.0428   -0.0445 H         1 RES1    0.0000
     25 H7         3.5054   -4.8610    1.1566 H         1 RES1    0.0000
     26 H8         4.6126   -4.3812    3.1695 H         1 RES1    0.0000
     27 H9         4.5104   -2.2095    4.0925 H         1 RES1    0.0000
     28 H10        3.2641   -0.5429    2.9915 H         1 RES1    0.0000
@<TRIPOS>BOND
     1    1    2 ar
     2    2    3 ar
     3    3    4 ar
     4    4    5 ar
     5    5    6 ar
     6    6    1 ar
     7    7    1 1
     8    8    4 1
     9    9    8 2
    10   10    8 2
    11   11    2 1
    12   12   11 2
    13   13   11 1
    14   14   13 ar
    15   15   14 ar
    16   16   15 ar
    17   17   16 ar
    18   18   13 ar
    19   19    3 1
    20   20    5 1
    21   21    6 1
    22   22    7 1
    23   23    7 1
    24   24   14 1
    25   25   15 1
    26   26   16 1
    27   27   17 1
    28   28   18 1
    29   17   18 ar
@<TRIPOS>SUBSTRUCTURE
     1 RES1 1

@<TRIPOS>CRYSIN
   7.8510   12.6860   11.1210  90.0000  90.0000  95.5800  14 3

