# MOL2 file generated by ConQuest
# Please check atom types

@<TRIPOS>MOLECULE
DUFKIY
    58    64     1
SMALL
NO_CHARGES
****
Generated from CSD

@<TRIPOS>ATOM
      1 O1        13.1292   25.2356    1.8153 O.3       1 RES1    0.0000
      2 O2        11.5745   23.6220    1.3540 O.3       1 RES1    0.0000
      3 O3         8.5996   24.6468    2.8339 O.2       1 RES1    0.0000
      4 O4         9.6344   30.6190    5.8738 O.2       1 RES1    0.0000
      5 O5        11.5566   31.1392    5.0406 O.2       1 RES1    0.0000
      6 O6         9.5200   21.7101    3.7001 O.3       1 RES1    0.0000
      7 O7         9.7392   20.3402    1.9087 O.3       1 RES1    0.0000
      8 O8         7.7699   20.3259    3.1017 O.3       1 RES1    0.0000
      9 O9        13.0408   19.7118    2.8053 O.2       1 RES1    0.0000
     10 N1        10.8181   25.3612    2.5910 N.am      1 RES1    0.0000
     11 N2        10.6141   30.3740    5.1867 N.pl3     1 RES1    0.0000
     12 C1        12.0722   24.5386    2.3061 C.3       1 RES1    0.0000
     13 C2        12.4663   23.8208    3.5808 C.ar      1 RES1    0.0000
     14 C3        13.4594   24.3175    4.4246 C.ar      1 RES1    0.0000
     15 C4        13.7224   23.6558    5.6172 C.ar      1 RES1    0.0000
     16 C5        12.9827   22.5511    5.9837 C.ar      1 RES1    0.0000
     17 C6        11.9935   22.0675    5.1506 C.ar      1 RES1    0.0000
     18 C7        11.7360   22.6772    3.9306 C.ar      1 RES1    0.0000
     19 C8        10.6818   22.1425    2.9772 C.3       1 RES1    0.0000
     20 C9        10.3197   23.2092    1.9101 C.3       1 RES1    0.0000
     21 C10        9.7465   24.4770    2.5049 C.2       1 RES1    0.0000
     22 C11       13.0086   25.7172    0.4592 C.3       1 RES1    0.0000
     23 C12       10.7885   26.5986    3.2799 C.ar      1 RES1    0.0000
     24 C13       11.8218   27.5206    3.1272 C.ar      1 RES1    0.0000
     25 C14       11.7581   28.7550    3.7611 C.ar      1 RES1    0.0000
     26 C15       10.6878   29.0571    4.5343 C.ar      1 RES1    0.0000
     27 C16        9.6688   28.1655    4.7245 C.ar      1 RES1    0.0000
     28 C17        9.7139   26.9426    4.0899 C.ar      1 RES1    0.0000
     29 C18       11.0509   20.8618    2.1694 C.3       1 RES1    0.0000
     30 C19       11.8455   19.8328    2.9612 C.2       1 RES1    0.0000
     31 C20       11.0345   19.0080    3.8889 C.ar      1 RES1    0.0000
     32 C21       11.6075   17.9519    4.6119 C.ar      1 RES1    0.0000
     33 C22       10.8257   17.2036    5.4613 C.ar      1 RES1    0.0000
     34 C23        9.4863   17.5110    5.6169 C.ar      1 RES1    0.0000
     35 C24        8.9097   18.5678    4.9202 C.ar      1 RES1    0.0000
     36 C25        9.6755   19.3016    4.0388 C.ar      1 RES1    0.0000
     37 C26        9.1194   20.4203    3.1926 C.3       1 RES1    0.0000
     38 C27        7.1181   21.4039    2.3948 C.3       1 RES1    0.0000
     39 H1        13.9939   25.1014    4.1177 H         1 RES1    0.0000
     40 H2        14.3817   24.0062    6.2413 H         1 RES1    0.0000
     41 H3        13.1698   22.1508    6.8694 H         1 RES1    0.0000
     42 H4        11.4058   21.2833    5.3886 H         1 RES1    0.0000
     43 H5         9.7266   22.8095    1.2043 H         1 RES1    0.0000
     44 H6        12.6110   27.3073    2.5974 H         1 RES1    0.0000
     45 H7        12.4487   29.3558    3.7164 H         1 RES1    0.0000
     46 H8         8.8587   28.4122    5.3009 H         1 RES1    0.0000
     47 H9         9.0110   26.3287    4.2008 H         1 RES1    0.0000
     48 H10       11.4997   21.1087    1.2506 H         1 RES1    0.0000
     49 H11       12.5849   17.7820    4.5002 H         1 RES1    0.0000
     50 H12       11.2630   16.4056    5.9673 H         1 RES1    0.0000
     51 H13        8.8921   16.9043    6.2322 H         1 RES1    0.0000
     52 H14        7.8994   18.7569    4.9935 H         1 RES1    0.0000
     53 H15       13.7792   26.4249    0.3368 H         1 RES1    0.0000
     54 H16       12.0869   26.2061    0.3731 H         1 RES1    0.0000
     55 H17       13.2037   24.9827   -0.0738 H         1 RES1    0.0000
     56 H18        6.2400   21.1052    2.2140 H         1 RES1    0.0000
     57 H19        7.5092   21.5440    1.5714 H         1 RES1    0.0000
     58 H20        7.1578   22.2509    3.0185 H         1 RES1    0.0000
@<TRIPOS>BOND
     1    1   12 1
     2    2   12 1
     3    3   21 2
     4    4   11 2
     5    5   11 2
     6    6   19 1
     7    7   29 1
     8    8   37 1
     9    9   30 2
    10   10   12 1
    11   11   26 1
    12   12   13 1
    13   13   14 ar
    14   14   15 ar
    15   15   16 ar
    16   16   17 ar
    17   17   18 ar
    18   18   13 ar
    19   19   18 1
    20   20    2 1
    21   21   10 1
    22   22    1 1
    23   23   10 1
    24   24   23 ar
    25   25   24 ar
    26   26   25 ar
    27   27   26 ar
    28   28   23 ar
    29   29   19 1
    30   30   29 1
    31   31   30 1
    32   32   31 ar
    33   33   32 ar
    34   34   33 ar
    35   35   34 ar
    36   36   31 ar
    37   37    6 1
    38   38    8 1
    39   39   14 1
    40   40   15 1
    41   41   16 1
    42   42   17 1
    43   43   20 1
    44   44   24 1
    45   45   25 1
    46   46   27 1
    47   47   28 1
    48   48   29 1
    49   49   32 1
    50   50   33 1
    51   51   34 1
    52   52   35 1
    53   53   22 1
    54   54   22 1
    55   55   22 1
    56   56   38 1
    57   57   38 1
    58   58   38 1
    59    7   37 1
    60   19   20 1
    61   20   21 1
    62   27   28 ar
    63   35   36 ar
    64   36   37 1
@<TRIPOS>SUBSTRUCTURE
     1 RES1 1

@<TRIPOS>CRYSIN
  11.5802   23.0090    8.6162  90.0000  90.0000  90.0000  19 1

