# MOL2 file generated by ConQuest
# Please check atom types

@<TRIPOS>MOLECULE
DUFPAX
    46    50     1
SMALL
NO_CHARGES
****
Generated from CSD

@<TRIPOS>ATOM
      1 N1        -4.2516   -5.6123   -2.8245 N.2       1 RES1    0.0000
      2 O1        -4.4172   -5.4643   -4.2006 O.3       1 RES1    0.0000
      3 C1        -4.2417   -6.1460   -0.0609 C.ar      1 RES1    0.0000
      4 H1        -3.7285   -5.4374   -0.3766 H         1 RES1    0.0000
      5 C2        -4.2252   -6.4420    1.2629 C.ar      1 RES1    0.0000
      6 H2        -3.6711   -5.9610    1.8334 H         1 RES1    0.0000
      7 C3        -5.0298   -7.4599    1.7811 C.ar      1 RES1    0.0000
      8 C4        -5.0662   -7.7380    3.1869 C.ar      1 RES1    0.0000
      9 H3        -4.5375   -7.2525    3.7773 H         1 RES1    0.0000
     10 C5        -5.8951   -8.7324    3.6456 C.ar      1 RES1    0.0000
     11 H4        -5.9404   -8.9084    4.5588 H         1 RES1    0.0000
     12 C6        -6.6578   -9.4690    2.7707 C.ar      1 RES1    0.0000
     13 H5        -7.1953  -10.1517    3.1020 H         1 RES1    0.0000
     14 C7        -6.6424   -9.2190    1.4045 C.ar      1 RES1    0.0000
     15 H6        -7.1854   -9.7134    0.8339 H         1 RES1    0.0000
     16 C8        -5.8123   -8.2245    0.8934 C.ar      1 RES1    0.0000
     17 C9        -5.7737   -7.9017   -0.4998 C.ar      1 RES1    0.0000
     18 H7        -6.2803   -8.4028   -1.0972 H         1 RES1    0.0000
     19 C10       -5.0232   -6.8904   -0.9641 C.ar      1 RES1    0.0000
     20 C11       -5.0342   -6.5384   -2.3799 C.2       1 RES1    0.0000
     21 C12       -5.9117   -7.1662   -3.4347 C.3       1 RES1    0.0000
     22 H8        -5.7406   -8.1304   -3.4588 H         1 RES1    0.0000
     23 C13       -5.3190   -6.5193   -4.7046 C.3       1 RES1    0.0000
     24 C14       -4.4404   -7.4532   -5.4989 C.3       1 RES1    0.0000
     25 H9        -3.8035   -7.8680   -4.9128 H         1 RES1    0.0000
     26 H10       -3.9757   -6.9565   -6.1756 H         1 RES1    0.0000
     27 H11       -4.9823   -8.1292   -5.9123 H         1 RES1    0.0000
     28 C15       -6.3686   -5.8287   -5.5329 C.3       1 RES1    0.0000
     29 H12       -6.0309   -5.3982   -6.3469 H         1 RES1    0.0000
     30 C16       -7.1766   -4.8993   -4.5956 C.3       1 RES1    0.0000
     31 H13       -6.6832   -4.5876   -3.8212 H         1 RES1    0.0000
     32 H14       -7.6269   -4.1694   -5.0473 H         1 RES1    0.0000
     33 C17       -7.4382   -6.9274   -3.2152 C.3       1 RES1    0.0000
     34 H15       -7.8874   -7.7851   -3.1529 H         1 RES1    0.0000
     35 H16       -7.5684   -6.4621   -2.3743 H         1 RES1    0.0000
     36 C18       -8.0651   -6.1213   -4.3266 C.3       1 RES1    0.0000
     37 H17       -9.0187   -5.9262   -4.2134 H         1 RES1    0.0000
     38 C19       -7.6622   -6.6494   -5.7268 C.3       1 RES1    0.0000
     39 C20       -7.6192   -8.1618   -5.9208 C.3       1 RES1    0.0000
     40 H18       -7.1821   -8.3647   -6.7519 H         1 RES1    0.0000
     41 H19       -8.5143   -8.5082   -5.9378 H         1 RES1    0.0000
     42 H20       -7.1335   -8.5642   -5.1973 H         1 RES1    0.0000
     43 C21       -8.5419   -6.0664   -6.8623 C.3       1 RES1    0.0000
     44 H21       -8.5033   -5.1078   -6.8368 H         1 RES1    0.0000
     45 H22       -9.4503   -6.3534   -6.7419 H         1 RES1    0.0000
     46 H23       -8.2174   -6.3769   -7.7103 H         1 RES1    0.0000
@<TRIPOS>BOND
     1    1    2 1
     2    2   23 1
     3    3    4 1
     4    5    3 ar
     5    6    5 1
     6    7    5 ar
     7    8    7 ar
     8    9    8 1
     9   10    8 ar
    10   11   10 1
    11   12   10 ar
    12   13   12 1
    13   14   12 ar
    14   15   14 1
    15   16    7 ar
    16   17   16 ar
    17   18   17 1
    18   19    3 ar
    19   20    1 2
    20   21   20 1
    21   22   21 1
    22   23   21 1
    23   24   23 1
    24   25   24 1
    25   26   24 1
    26   27   24 1
    27   28   23 1
    28   29   28 1
    29   30   28 1
    30   31   30 1
    31   32   30 1
    32   33   21 1
    33   34   33 1
    34   35   33 1
    35   36   30 1
    36   37   36 1
    37   38   28 1
    38   39   38 1
    39   40   39 1
    40   41   39 1
    41   42   39 1
    42   43   38 1
    43   44   43 1
    44   45   43 1
    45   46   43 1
    46   14   16 ar
    47   17   19 ar
    48   19   20 1
    49   33   36 1
    50   36   38 1
@<TRIPOS>SUBSTRUCTURE
     1 RES1 1

@<TRIPOS>CRYSIN
  11.0375   11.2112   14.1578  90.0000  90.0000  90.0000  19 1

