# MOL2 file generated by ConQuest
# Please check atom types

@<TRIPOS>MOLECULE
DUGMUN02
    17    17     1
SMALL
NO_CHARGES
****
Generated from CSD

@<TRIPOS>ATOM
      1 N1        -1.6201    3.1580    5.7665 N.1       1 RES1    0.0000
      2 N2        -2.0010    0.0858    7.2066 N.2       1 RES1    0.0000
      3 O1        -2.8737    0.1872    6.1485 O.3       1 RES1    0.0000
      4 H1        -3.3164   -0.5008    6.0925 H         1 RES1    0.0000
      5 C1        -0.3174    1.2555    8.4440 C.ar      1 RES1    0.0000
      6 C2         0.5933    2.2912    8.4747 C.ar      1 RES1    0.0000
      7 H2         0.5934    2.9284    7.7971 H         1 RES1    0.0000
      8 C3         1.5097    2.3861    9.5122 C.ar      1 RES1    0.0000
      9 H3         2.1153    3.0909    9.5319 H         1 RES1    0.0000
     10 C4         1.5256    1.4505   10.5038 C.ar      1 RES1    0.0000
     11 H4         2.1398    1.5167   11.1987 H         1 RES1    0.0000
     12 C5         0.6277    0.4063   10.4713 C.ar      1 RES1    0.0000
     13 H5         0.6453   -0.2366   11.1429 H         1 RES1    0.0000
     14 C6        -0.2920    0.3046    9.4572 C.ar      1 RES1    0.0000
     15 H6        -0.8985   -0.4002    9.4481 H         1 RES1    0.0000
     16 C7        -1.2933    1.1446    7.3481 C.2       1 RES1    0.0000
     17 C8        -1.4674    2.2624    6.4511 C.1       1 RES1    0.0000
@<TRIPOS>BOND
     1    1   17 3
     2    2    3 1
     3    3    4 1
     4    5    6 ar
     5    6    7 1
     6    8    6 ar
     7    9    8 1
     8   10    8 ar
     9   11   10 1
    10   12   10 ar
    11   13   12 1
    12   14    5 ar
    13   15   14 1
    14   16    2 2
    15   17   16 1
    16    5   16 1
    17   12   14 ar
@<TRIPOS>SUBSTRUCTURE
     1 RES1 1

@<TRIPOS>CRYSIN
   8.7912   11.0548    8.4454  90.0000 116.6860  90.0000  14 1

