# MOL2 file generated by ConQuest
# Please check atom types

@<TRIPOS>MOLECULE
DUGMUN
    17    17     1
SMALL
NO_CHARGES
****
Generated from CSD

@<TRIPOS>ATOM
      1 O1         7.8195   10.8412    1.3790 O.3       1 RES1    0.0000
      2 N1         6.9368   10.9437    0.3235 N.2       1 RES1    0.0000
      3 N2         6.5891    7.8653    1.7711 N.1       1 RES1    0.0000
      4 C1         6.2197    9.8867    0.1826 C.2       1 RES1    0.0000
      5 C2         6.4071    8.7592    1.0846 C.1       1 RES1    0.0000
      6 C3         5.2451    9.7732   -0.8952 C.ar      1 RES1    0.0000
      7 C4         5.2007   10.7299   -1.9150 C.ar      1 RES1    0.0000
      8 C5         4.2780   10.6208   -2.9153 C.ar      1 RES1    0.0000
      9 C6         3.3770    9.5737   -2.9421 C.ar      1 RES1    0.0000
     10 C7         3.4070    8.6269   -1.9373 C.ar      1 RES1    0.0000
     11 C8         4.3308    8.7305   -0.9198 C.ar      1 RES1    0.0000
     12 H1         8.2831   11.5290    1.4163 H         1 RES1    0.0000
     13 H2         5.9237   11.3747   -1.8859 H         1 RES1    0.0000
     14 H3         4.2109   11.2535   -3.7122 H         1 RES1    0.0000
     15 H4         2.6357    9.5120   -3.6451 H         1 RES1    0.0000
     16 H5         2.6909    7.9689   -1.9753 H         1 RES1    0.0000
     17 H6         4.3705    8.0571   -0.2236 H         1 RES1    0.0000
@<TRIPOS>BOND
     1    1    2 1
     2    2    4 2
     3    3    5 3
     4    4    5 1
     5    6    4 1
     6    7    6 ar
     7    8    7 ar
     8    9    8 ar
     9   10    9 ar
    10   11    6 ar
    11   12    1 1
    12   13    7 1
    13   14    8 1
    14   15    9 1
    15   16   10 1
    16   17   11 1
    17   10   11 ar
@<TRIPOS>SUBSTRUCTURE
     1 RES1 1

@<TRIPOS>CRYSIN
   8.7140   11.0220    8.2970  90.0000 116.0500  90.0000  14 1

