# MOL2 file generated by ConQuest
# Please check atom types

@<TRIPOS>MOLECULE
DUGXOS
    51    53     1
SMALL
NO_CHARGES
****
Generated from CSD

@<TRIPOS>ATOM
      1 O1         0.8259    3.0906    8.4664 O.3       1 RES1    0.0000
      2 O2         1.5223   -0.5172    8.1806 O.2       1 RES1    0.0000
      3 O3        -0.6305    2.7014    5.6980 O.3       1 RES1    0.0000
      4 N1         1.1789    1.4147    6.4374 N.3       1 RES1    0.0000
      5 H1         1.3641    1.2492    7.3025 H         1 RES1    0.0000
      6 O4        -1.5766    4.2905    3.5551 O.3       1 RES1    0.0000
      7 O5         0.4019    3.6502    2.7136 O.2       1 RES1    0.0000
      8 N2         1.5712   -1.3625    7.2853 N.pl3     1 RES1    0.0000
      9 O6         1.6733   -2.5664    7.5347 O.2       1 RES1    0.0000
     10 O7        -1.1218    4.1881    8.3084 O.3       1 RES1    0.0000
     11 C1         1.3033    0.3961    5.5314 C.ar      1 RES1    0.0000
     12 C2         1.4888   -0.9606    5.8979 C.ar      1 RES1    0.0000
     13 C3         1.5769   -1.9605    4.9318 C.ar      1 RES1    0.0000
     14 H2         1.7127   -2.8659    5.2198 H         1 RES1    0.0000
     15 C4         1.4777   -1.7074    3.5841 C.ar      1 RES1    0.0000
     16 C5         1.3137   -0.3448    3.1951 C.ar      1 RES1    0.0000
     17 C6         1.2207    0.6236    4.1386 C.ar      1 RES1    0.0000
     18 H3         1.0910    1.5261    3.8399 H         1 RES1    0.0000
     19 C7         0.7662    2.7359    6.0613 C.3       1 RES1    0.0000
     20 H4         1.2886    3.0403    5.3154 H         1 RES1    0.0000
     21 C8         0.8640    3.7329    7.2004 C.3       1 RES1    0.0000
     22 H5         1.6392    4.2935    7.1123 H         1 RES1    0.0000
     23 C9        -0.4315    4.5447    7.1220 C.3       1 RES1    0.0000
     24 H6        -0.2645    5.4885    7.0693 H         1 RES1    0.0000
     25 C10       -1.1464    4.0265    5.8990 C.3       1 RES1    0.0000
     26 H7        -2.0869    3.9723    6.0849 H         1 RES1    0.0000
     27 C11       -0.9329    4.8856    4.6921 C.3       1 RES1    0.0000
     28 H8        -1.2960    5.7605    4.8479 H         1 RES1    0.0000
     29 H9         0.0070    4.9772    4.5202 H         1 RES1    0.0000
     30 C12        1.5692   -2.8118    2.5685 C.3       1 RES1    0.0000
     31 H10        1.6771   -3.6531    3.0177 H         1 RES1    0.0000
     32 H11        0.7656   -2.8305    2.0441 H         1 RES1    0.0000
     33 H12        2.3226   -2.6561    1.9946 H         1 RES1    0.0000
     34 C13        1.2155   -0.0010    1.7464 C.3       1 RES1    0.0000
     35 H13        1.1072    0.9478    1.6475 H         1 RES1    0.0000
     36 H14        2.0169   -0.2808    1.2982 H         1 RES1    0.0000
     37 H15        0.4596   -0.4512    1.3606 H         1 RES1    0.0000
     38 C14       -0.8049    3.6679    2.6437 C.2       1 RES1    0.0000
     39 C15       -1.6095    2.9842    1.6110 C.3       1 RES1    0.0000
     40 H16       -1.0669    2.8256    0.8350 H         1 RES1    0.0000
     41 H17       -2.3585    3.5349    1.3713 H         1 RES1    0.0000
     42 H18       -1.9270    2.1458    1.9559 H         1 RES1    0.0000
     43 C16       -0.1885    3.7112    9.2585 C.3       1 RES1    0.0000
     44 C17       -0.8236    2.6640   10.1268 C.3       1 RES1    0.0000
     45 H19       -1.2504    2.0049    9.5744 H         1 RES1    0.0000
     46 H20       -1.4782    3.0748   10.6975 H         1 RES1    0.0000
     47 H21       -0.1504    2.2423   10.6652 H         1 RES1    0.0000
     48 C18        0.4276    4.8511   10.0441 C.3       1 RES1    0.0000
     49 H22        0.8192    5.4836    9.4379 H         1 RES1    0.0000
     50 H23        1.1054    4.5073   10.6298 H         1 RES1    0.0000
     51 H24       -0.2532    5.2856   10.5631 H         1 RES1    0.0000
@<TRIPOS>BOND
     1    1   21 1
     2    2    8 2
     3    3   19 1
     4    4    5 1
     5    6   27 1
     6    7   38 2
     7    8    9 2
     8   10   23 1
     9   11    4 1
    10   12    8 1
    11   13   12 ar
    12   14   13 1
    13   15   13 ar
    14   16   15 ar
    15   17   11 ar
    16   18   17 1
    17   19    4 1
    18   20   19 1
    19   21   19 1
    20   22   21 1
    21   23   21 1
    22   24   23 1
    23   25    3 1
    24   26   25 1
    25   27   25 1
    26   28   27 1
    27   29   27 1
    28   30   15 1
    29   31   30 1
    30   32   30 1
    31   33   30 1
    32   34   16 1
    33   35   34 1
    34   36   34 1
    35   37   34 1
    36   38    6 1
    37   39   38 1
    38   40   39 1
    39   41   39 1
    40   42   39 1
    41   43    1 1
    42   44   43 1
    43   45   44 1
    44   46   44 1
    45   47   44 1
    46   48   43 1
    47   49   48 1
    48   50   48 1
    49   51   48 1
    50   10   43 1
    51   11   12 ar
    52   16   17 ar
    53   23   25 1
@<TRIPOS>SUBSTRUCTURE
     1 RES1 1

@<TRIPOS>CRYSIN
   9.1330    9.8520   11.2470  90.0000 107.1500  90.0000   4 1

