# MOL2 file generated by ConQuest
# Please check atom types

@<TRIPOS>MOLECULE
DUHJAT
    44    46     1
SMALL
NO_CHARGES
****
Generated from CSD

@<TRIPOS>ATOM
      1 C1        20.0452    5.2704    4.9806 C.3       1 RES1    0.0000
      2 C2        19.5101    4.3234    3.9388 C.2       1 RES1    0.0000
      3 H1        19.5848    3.3781    3.9960 H         1 RES1    0.0000
      4 C3        18.9201    4.9607    2.9269 C.2       1 RES1    0.0000
      5 C4        18.9180    6.4499    3.1822 C.3       1 RES1    0.0000
      6 H2        19.6229    6.9039    2.6376 H         1 RES1    0.0000
      7 C5        19.2230    6.5806    4.6916 C.3       1 RES1    0.0000
      8 H3        18.3491    6.4762    5.1670 H         1 RES1    0.0000
      9 C6        19.8059    4.8164    6.3656 C.1       1 RES1    0.0000
     10 N1        19.6272    4.4855    7.4428 N.1       1 RES1    0.0000
     11 C7        21.5558    5.5046    4.6853 C.2       1 RES1    0.0000
     12 O1        21.8704    5.7781    3.5284 O.2       1 RES1    0.0000
     13 N2        22.4311    5.4062    5.6789 N.am      1 RES1    0.0000
     14 H4        22.2001    5.1847    6.4608 H         1 RES1    0.0000
     15 H5        23.2973    5.5581    5.4658 H         1 RES1    0.0000
     16 N3        17.5581    7.0677    2.9224 N.pl3     1 RES1    0.0000
     17 O2        17.5312    8.1648    2.3800 O.2       1 RES1    0.0000
     18 O3        16.5759    6.4453    3.2742 O.2       1 RES1    0.0000
     19 C8        18.4162    4.3582    1.6846 C.ar      1 RES1    0.0000
     20 C9        18.2624    2.9751    1.5832 C.ar      1 RES1    0.0000
     21 H6        18.4871    2.4286    2.3275 H         1 RES1    0.0000
     22 C10       17.7886    2.3768    0.4233 C.ar      1 RES1    0.0000
     23 H7        17.7013    1.4324    0.3731 H         1 RES1    0.0000
     24 C11       17.4416    3.1728   -0.6634 C.ar      1 RES1    0.0000
     25 C12       17.5807    4.5525   -0.5847 C.ar      1 RES1    0.0000
     26 H8        17.3382    5.0981   -1.3245 H         1 RES1    0.0000
     27 C13       18.0719    5.1304    0.5710 C.ar      1 RES1    0.0000
     28 H9        18.1784    6.0740    0.6089 H         1 RES1    0.0000
     29 O4        16.9433    2.6906   -1.8402 O.3       1 RES1    0.0000
     30 C14       16.7378    1.2847   -1.9292 C.3       1 RES1    0.0000
     31 H10       17.5959    0.8223   -1.8284 H         1 RES1    0.0000
     32 H11       16.3503    1.0658   -2.8024 H         1 RES1    0.0000
     33 H12       16.1277    0.9979   -1.2179 H         1 RES1    0.0000
     34 C15       19.8429    7.8551    5.2129 C.ar      1 RES1    0.0000
     35 C16       20.8560    8.5348    4.5498 C.ar      1 RES1    0.0000
     36 H13       21.1223    8.2548    3.6810 H         1 RES1    0.0000
     37 C17       21.4787    9.6133    5.1449 C.ar      1 RES1    0.0000
     38 H14       22.1810   10.0597    4.6889 H         1 RES1    0.0000
     39 C18       21.0935   10.0495    6.3857 C.ar      1 RES1    0.0000
     40 H15       21.5349   10.7843    6.7935 H         1 RES1    0.0000
     41 C19       20.0595    9.4114    7.0364 C.ar      1 RES1    0.0000
     42 H16       19.7708    9.7236    7.8854 H         1 RES1    0.0000
     43 C20       19.4438    8.3193    6.4559 C.ar      1 RES1    0.0000
     44 H17       18.7388    7.8814    6.9146 H         1 RES1    0.0000
@<TRIPOS>BOND
     1    1    2 1
     2    2    3 1
     3    4    2 2
     4    5    4 1
     5    6    5 1
     6    7    1 1
     7    8    7 1
     8    9    1 1
     9   10    9 3
    10   11    1 1
    11   12   11 2
    12   13   11 1
    13   14   13 1
    14   15   13 1
    15   16    5 1
    16   17   16 2
    17   18   16 2
    18   19    4 1
    19   20   19 ar
    20   21   20 1
    21   22   20 ar
    22   23   22 1
    23   24   22 ar
    24   25   24 ar
    25   26   25 1
    26   27   19 ar
    27   28   27 1
    28   29   24 1
    29   30   29 1
    30   31   30 1
    31   32   30 1
    32   33   30 1
    33   34    7 1
    34   35   34 ar
    35   36   35 1
    36   37   35 ar
    37   38   37 1
    38   39   37 ar
    39   40   39 1
    40   41   39 ar
    41   42   41 1
    42   43   34 ar
    43   44   43 1
    44    5    7 1
    45   25   27 ar
    46   41   43 ar
@<TRIPOS>SUBSTRUCTURE
     1 RES1 1

@<TRIPOS>CRYSIN
  25.9760    8.4856   18.9145  90.0000 121.3568  90.0000  15 1

