# MOL2 file generated by ConQuest
# Please check atom types

@<TRIPOS>MOLECULE
DUHPOM
    44    46     1
SMALL
NO_CHARGES
****
Generated from CSD

@<TRIPOS>ATOM
      1 C1         1.4775    0.8801    4.2024 C.2       1 RES1    0.0000
      2 C2         0.7022   -0.0094    5.1188 C.2       1 RES1    0.0000
      3 C3         0.0253   -1.0420    4.6125 C.2       1 RES1    0.0000
      4 C4        -0.1297   -1.3903    3.1736 C.3       1 RES1    0.0000
      5 C5         0.5081   -0.3496    2.2411 C.3       1 RES1    0.0000
      6 C6         1.7949    0.2308    2.8417 C.3       1 RES1    0.0000
      7 C7         0.7996    0.2443    6.5748 C.ar      1 RES1    0.0000
      8 C8         0.7207    1.5185    7.1323 C.ar      1 RES1    0.0000
      9 C9         0.8082    1.6805    8.5020 C.ar      1 RES1    0.0000
     10 C10        0.9560    0.6155    9.3322 C.ar      1 RES1    0.0000
     11 C11        1.0426   -0.6506    8.8048 C.ar      1 RES1    0.0000
     12 C12        0.9570   -0.8315    7.4371 C.ar      1 RES1    0.0000
     13 C13       -1.5904   -1.7156    2.8397 C.3       1 RES1    0.0000
     14 C14        2.8909   -0.8153    2.9620 C.ar      1 RES1    0.0000
     15 C15        3.3429   -1.4875    1.8340 C.ar      1 RES1    0.0000
     16 C16        4.3627   -2.4148    1.9252 C.ar      1 RES1    0.0000
     17 C17        4.9527   -2.6848    3.1405 C.ar      1 RES1    0.0000
     18 C18        4.5205   -2.0234    4.2635 C.ar      1 RES1    0.0000
     19 C19        3.5062   -1.0893    4.1883 C.ar      1 RES1    0.0000
     20 N1         0.6204   -2.7360    2.9038 N.pl3     1 RES1    0.0000
     21 N2        -0.5334    0.7397    2.0044 N.pl3     1 RES1    0.0000
     22 N3         2.3573    1.3511    1.9422 N.pl3     1 RES1    0.0000
     23 O1         1.9022    1.9586    4.5062 O.2       1 RES1    0.0000
     24 O2         0.7221   -3.0870    1.7407 O.2       1 RES1    0.0000
     25 O3         0.9944   -3.3664    3.8725 O.2       1 RES1    0.0000
     26 O4        -1.1795    0.6722    0.9736 O.2       1 RES1    0.0000
     27 O5        -0.6889    1.5752    2.8788 O.2       1 RES1    0.0000
     28 O6         1.6402    1.8020    1.0699 O.2       1 RES1    0.0000
     29 O7         3.4862    1.7291    2.1719 O.2       1 RES1    0.0000
     30 H1         2.9433   -1.3053    0.9807 H         1 RES1    0.0000
     31 H2         0.6044    2.2825    6.5627 H         1 RES1    0.0000
     32 H3         3.2210   -0.6263    4.9795 H         1 RES1    0.0000
     33 H4         4.6612   -2.8751    1.1381 H         1 RES1    0.0000
     34 H5         1.0038   -1.7196    7.0781 H         1 RES1    0.0000
     35 H6         5.6597   -3.3300    3.2017 H         1 RES1    0.0000
     36 H7         0.7641    2.5768    8.8740 H         1 RES1    0.0000
     37 H8        -2.1337   -0.9368    2.9811 H         1 RES1    0.0000
     38 H9        -1.8951   -2.4269    3.4092 H         1 RES1    0.0000
     39 H10       -1.6578   -1.9910    1.9222 H         1 RES1    0.0000
     40 H11        4.9304   -2.2096    5.1118 H         1 RES1    0.0000
     41 H12        1.1646   -1.4065    9.3834 H         1 RES1    0.0000
     42 H13        0.9999    0.7437   10.2828 H         1 RES1    0.0000
     43 H14       -0.4441   -1.6252    5.2271 H         1 RES1    0.0000
     44 H15       -0.0463   -0.6938    1.3898 H         1 RES1    0.0000
@<TRIPOS>BOND
     1    1    2 1
     2    2    3 2
     3    3    4 1
     4    4    5 1
     5    5    6 1
     6    6    1 1
     7    7    2 1
     8    8    7 ar
     9    9    8 ar
    10   10    9 ar
    11   11   10 ar
    12   12    7 ar
    13   13    4 1
    14   14    6 1
    15   15   14 ar
    16   16   15 ar
    17   17   16 ar
    18   18   17 ar
    19   19   14 ar
    20   20    4 1
    21   21    5 1
    22   22    6 1
    23   23    1 2
    24   24   20 2
    25   25   20 2
    26   26   21 2
    27   27   21 2
    28   28   22 2
    29   29   22 2
    30   30   15 1
    31   31    8 1
    32   32   19 1
    33   33   16 1
    34   34   12 1
    35   35   17 1
    36   36    9 1
    37   37   13 1
    38   38   13 1
    39   39   13 1
    40   40   18 1
    41   41   11 1
    42   42   10 1
    43   43    3 1
    44   44    5 1
    45   11   12 ar
    46   18   19 ar
@<TRIPOS>SUBSTRUCTURE
     1 RES1 1

@<TRIPOS>CRYSIN
  13.6210   13.4980   10.8850  90.0000 112.9000  90.0000  14 1

