# MOL2 file generated by ConQuest
# Please check atom types

@<TRIPOS>MOLECULE
DUHPOL
    44    46     1
SMALL
NO_CHARGES
****
Generated from CSD

@<TRIPOS>ATOM
      1 C1        -0.3460    7.9781    4.6813 C.2       1 RES1    0.0000
      2 C2        -0.6552    7.3768    3.3426 C.2       1 RES1    0.0000
      3 C3         0.0506    7.7128    2.2626 C.2       1 RES1    0.0000
      4 C4         1.2321    8.6250    2.2462 C.3       1 RES1    0.0000
      5 C5         1.2340    9.5769    3.4699 C.3       1 RES1    0.0000
      6 C6         0.9671    8.8033    4.7703 C.3       1 RES1    0.0000
      7 C7        -1.7861    6.4131    3.2345 C.ar      1 RES1    0.0000
      8 C8        -2.7413    6.6017    2.2530 C.ar      1 RES1    0.0000
      9 C9        -3.7397    5.6513    2.0559 C.ar      1 RES1    0.0000
     10 C10       -3.7664    4.5181    2.8170 C.ar      1 RES1    0.0000
     11 C11       -2.8471    4.3368    3.8299 C.ar      1 RES1    0.0000
     12 C12       -1.8570    5.2902    4.0407 C.ar      1 RES1    0.0000
     13 C13        2.5149    7.8381    2.0587 C.3       1 RES1    0.0000
     14 C14        2.1662    7.9501    5.1768 C.ar      1 RES1    0.0000
     15 C15        2.0014    6.6209    5.5765 C.ar      1 RES1    0.0000
     16 C16        3.1314    5.8826    5.9105 C.ar      1 RES1    0.0000
     17 C17        4.3737    6.4544    5.9201 C.ar      1 RES1    0.0000
     18 C18        4.5347    7.7585    5.5573 C.ar      1 RES1    0.0000
     19 C19        3.4406    8.5204    5.2097 C.ar      1 RES1    0.0000
     20 N1         1.1217    9.5416    1.0143 N.pl3     1 RES1    0.0000
     21 N2         0.1491   10.6232    3.2783 N.pl3     1 RES1    0.0000
     22 N3         0.8309    9.8407    5.9173 N.pl3     1 RES1    0.0000
     23 O1        -1.0453    7.7924    5.6408 O.2       1 RES1    0.0000
     24 O2         2.1514   10.0883    0.6296 O.2       1 RES1    0.0000
     25 O3         0.0386    9.7037    0.5065 O.2       1 RES1    0.0000
     26 O4         0.4629   11.6547    2.7089 O.2       1 RES1    0.0000
     27 O5        -0.9773   10.3697    3.6807 O.2       1 RES1    0.0000
     28 O6         0.5926    9.4384    7.0124 O.2       1 RES1    0.0000
     29 O7         1.0426   11.0137    5.6477 O.2       1 RES1    0.0000
     30 H1         1.1300    6.2186    5.5341 H         1 RES1    0.0000
     31 H2        -2.7174    7.3916    1.7069 H         1 RES1    0.0000
     32 H3         2.6373    7.2457    2.8033 H         1 RES1    0.0000
     33 H4         3.2584    8.4555    2.0080 H         1 RES1    0.0000
     34 H5         2.4625    7.3282    1.2483 H         1 RES1    0.0000
     35 H6        -1.2193    5.1679    4.7484 H         1 RES1    0.0000
     36 H7         3.5547    9.4472    4.9893 H         1 RES1    0.0000
     37 H8         5.4126    8.1475    5.5450 H         1 RES1    0.0000
     38 H9         5.1366    5.9327    6.1815 H         1 RES1    0.0000
     39 H10        3.0321    4.9616    6.1623 H         1 RES1    0.0000
     40 H11       -4.3995    5.7927    1.3825 H         1 RES1    0.0000
     41 H12       -4.2449    3.4025    2.6459 H         1 RES1    0.0000
     42 H13       -2.8913    3.5573    4.3870 H         1 RES1    0.0000
     43 H14        2.0447   10.0706    3.4617 H         1 RES1    0.0000
     44 H15       -0.1371    7.2634    1.4646 H         1 RES1    0.0000
@<TRIPOS>BOND
     1    1    2 1
     2    2    3 2
     3    3    4 1
     4    4    5 1
     5    5    6 1
     6    6    1 1
     7    7    2 1
     8    8    7 ar
     9    9    8 ar
    10   10    9 ar
    11   11   10 ar
    12   12    7 ar
    13   13    4 1
    14   14    6 1
    15   15   14 ar
    16   16   15 ar
    17   17   16 ar
    18   18   17 ar
    19   19   14 ar
    20   20    4 1
    21   21    5 1
    22   22    6 1
    23   23    1 2
    24   24   20 2
    25   25   20 2
    26   26   21 2
    27   27   21 2
    28   28   22 2
    29   29   22 2
    30   30   15 1
    31   31    8 1
    32   32   13 1
    33   33   13 1
    34   34   13 1
    35   35   12 1
    36   36   19 1
    37   37   18 1
    38   38   17 1
    39   39   16 1
    40   40    9 1
    41   41   10 1
    42   42   11 1
    43   43    5 1
    44   44    3 1
    45   11   12 ar
    46   18   19 ar
@<TRIPOS>SUBSTRUCTURE
     1 RES1 1

@<TRIPOS>CRYSIN
   9.2020   14.7360   13.6880  90.0000  90.0000  90.0000  33 1

