# MOL2 file generated by ConQuest
# Please check atom types

@<TRIPOS>MOLECULE
DUHPEB
    44    46     1
SMALL
NO_CHARGES
****
Generated from CSD

@<TRIPOS>ATOM
      1 C1         7.3018    0.5078   21.3281 C.2       1 RES1    0.0000
      2 C2         8.3095    0.1367   20.2433 C.2       1 RES1    0.0000
      3 C3         8.8245   -1.0742   20.1924 C.2       1 RES1    0.0000
      4 C4         8.5202   -2.2029   21.0876 C.3       1 RES1    0.0000
      5 C5         7.2558   -1.9308   22.0145 C.3       1 RES1    0.0000
      6 C6         7.2068   -0.4967   22.4955 C.3       1 RES1    0.0000
      7 C7         7.9756    2.0424   18.5458 C.ar      1 RES1    0.0000
      8 C8         8.4994    3.0581   17.7875 C.ar      1 RES1    0.0000
      9 C9         9.8678    3.4166   17.9244 C.ar      1 RES1    0.0000
     10 C10       10.5935    2.6744   18.8074 C.ar      1 RES1    0.0000
     11 C11       10.0993    1.6574   19.5183 C.ar      1 RES1    0.0000
     12 C12        8.7859    1.2640   19.4112 C.ar      1 RES1    0.0000
     13 C13        9.7209   -2.5935   21.9688 C.3       1 RES1    0.0000
     14 C14        9.3454    0.6487   23.3170 C.ar      1 RES1    0.0000
     15 C15       10.3635    0.7715   24.2614 C.ar      1 RES1    0.0000
     16 C16       10.3353   -0.0056   25.4199 C.ar      1 RES1    0.0000
     17 C17        9.2905   -0.9040   25.6324 C.ar      1 RES1    0.0000
     18 C18        8.2724   -1.0268   24.6862 C.ar      1 RES1    0.0000
     19 C19        8.2991   -0.2497   23.5294 C.ar      1 RES1    0.0000
     20 N1         6.0165   -2.2615   21.1701 N.pl3     1 RES1    0.0000
     21 N2         5.8726   -0.2260   23.2626 N.pl3     1 RES1    0.0000
     22 N3         6.5597    1.6853   18.3474 N.pl3     1 RES1    0.0000
     23 O1         6.7111    1.5695   21.2930 O.2       1 RES1    0.0000
     24 O2         8.2011   -3.3134   20.2380 O.3       1 RES1    0.0000
     25 O3         5.5045   -3.3371   21.2948 O.2       1 RES1    0.0000
     26 O4         5.6054   -1.3630   20.4223 O.2       1 RES1    0.0000
     27 O5         5.0727   -1.1356   23.3345 O.2       1 RES1    0.0000
     28 O6         5.7687    0.8719   23.7277 O.2       1 RES1    0.0000
     29 O7         6.2377    0.5273   18.4247 O.2       1 RES1    0.0000
     30 O8         5.8147    2.6116   18.0824 O.2       1 RES1    0.0000
     31 H1         7.9414    3.5254   17.1608 H         1 RES1    0.0000
     32 H2        10.2566    4.1393   17.4259 H         1 RES1    0.0000
     33 H3        11.5196    2.8948   18.9250 H         1 RES1    0.0000
     34 H4        10.6781    1.1886   20.1222 H         1 RES1    0.0000
     35 H5         9.9509   -1.8555   22.5393 H         1 RES1    0.0000
     36 H6        10.4703   -2.8111   21.4106 H         1 RES1    0.0000
     37 H7         9.4893   -3.3538   22.5077 H         1 RES1    0.0000
     38 H8         9.3647    1.1830   22.5183 H         1 RES1    0.0000
     39 H9        11.0818    1.3895   24.1157 H         1 RES1    0.0000
     40 H10       11.0358    0.0781   26.0712 H         1 RES1    0.0000
     41 H11        9.2712   -1.4397   26.4293 H         1 RES1    0.0000
     42 H12        7.5526   -1.6448   24.8336 H         1 RES1    0.0000
     43 H13        7.1074   -2.6688   22.6096 H         1 RES1    0.0000
     44 H14        8.3065   -4.1574   20.6839 H         1 RES1    0.0000
@<TRIPOS>BOND
     1    1    2 1
     2    2    3 2
     3    3    4 1
     4    4    5 1
     5    5    6 1
     6    6    1 1
     7    7    8 ar
     8    8    9 ar
     9    9   10 ar
    10   10   11 ar
    11   11   12 ar
    12   12    2 1
    13   13    4 1
    14   14   15 ar
    15   15   16 ar
    16   16   17 ar
    17   17   18 ar
    18   18   19 ar
    19   19    6 1
    20   20    5 1
    21   21    6 1
    22   22    7 1
    23   23    1 2
    24   24    4 1
    25   25   20 2
    26   26   20 2
    27   27   21 2
    28   28   21 2
    29   29   22 2
    30   30   22 2
    31   31    8 1
    32   32    9 1
    33   33   10 1
    34   34   11 1
    35   35   13 1
    36   36   13 1
    37   37   13 1
    38   38   14 1
    39   39   15 1
    40   40   16 1
    41   41   17 1
    42   42   18 1
    43   43    5 1
    44   44   24 1
    45    7   12 ar
    46   14   19 ar
@<TRIPOS>SUBSTRUCTURE
     1 RES1 1

@<TRIPOS>CRYSIN
  14.8410   13.9510   17.5540  90.0000  90.0000  90.0000  61 1

