# MOL2 file generated by ConQuest
# Please check atom types

@<TRIPOS>MOLECULE
DUHPUR
    86    90     2
SMALL
NO_CHARGES
****
Generated from CSD

@<TRIPOS>ATOM
      1 C1        -0.4762    2.2181    1.1632 C.2       1 RES1    0.0000
      2 C2        -1.9533    2.3356    1.2033 C.2       1 RES1    0.0000
      3 C3        -2.5274    2.8601    2.2914 C.2       1 RES1    0.0000
      4 C4        -1.8139    3.4856    3.4430 C.3       1 RES1    0.0000
      5 C5        -0.2862    3.5758    3.2694 C.3       1 RES1    0.0000
      6 C6         0.3147    2.4176    2.4717 C.3       1 RES1    0.0000
      7 C7        -2.7363    1.9504    0.0067 C.ar      1 RES1    0.0000
      8 C8        -3.7860    2.7672   -0.4022 C.ar      1 RES1    0.0000
      9 C9        -4.5305    2.4394   -1.5187 C.ar      1 RES1    0.0000
     10 C10       -4.2359    1.2976   -2.2397 C.ar      1 RES1    0.0000
     11 C11       -3.2098    0.4835   -1.8508 C.ar      1 RES1    0.0000
     12 C12       -2.4485    0.8031   -0.7327 C.ar      1 RES1    0.0000
     13 C13       -2.4527    4.8187    3.8269 C.3       1 RES1    0.0000
     14 C14        0.3616    1.1500    3.3228 C.ar      1 RES1    0.0000
     15 C15        1.0690    1.2019    4.5245 C.ar      1 RES1    0.0000
     16 C16        1.1700    0.0492    5.3072 C.ar      1 RES1    0.0000
     17 C17        0.5953   -1.1145    4.8883 C.ar      1 RES1    0.0000
     18 C18       -0.0571   -1.1910    3.6850 C.ar      1 RES1    0.0000
     19 C19       -0.1896   -0.0410    2.9123 C.ar      1 RES1    0.0000
     20 N1        -2.0330    2.5678    4.6914 N.pl3     1 RES1    0.0000
     21 N2         0.0458    4.8624    2.5518 N.pl3     1 RES1    0.0000
     22 O1         0.1498    1.9586    0.1535 O.2       1 RES1    0.0000
     23 O2        -2.7803    1.6144    4.5695 O.2       1 RES1    0.0000
     24 O3        -1.4823    2.8956    5.7345 O.2       1 RES1    0.0000
     25 O4        -0.3627    5.0345    1.4186 O.2       1 RES1    0.0000
     26 O5         0.7393    5.6574    3.1593 O.2       1 RES1    0.0000
     27 O6         1.6460    2.8137    2.1246 O.3       1 RES1    0.0000
     28 H1        -3.9944    3.5621    0.0951 H         1 RES1    0.0000
     29 H2        -5.2536    3.0076   -1.7958 H         1 RES1    0.0000
     30 H3        -4.8688    1.0763   -2.1813 H         1 RES1    0.0000
     31 H4        -3.0142   -0.3114   -2.3499 H         1 RES1    0.0000
     32 H5        -1.7220    0.2349   -0.4690 H         1 RES1    0.0000
     33 H6        -2.3540    5.4415    3.1042 H         1 RES1    0.0000
     34 H7        -2.0205    5.1656    4.6113 H         1 RES1    0.0000
     35 H8        -3.3862    4.6849    4.0105 H         1 RES1    0.0000
     36 H9         1.4827    2.0187    4.8099 H         1 RES1    0.0000
     37 H10        1.6427    0.0765    6.1567 H         1 RES1    0.0000
     38 H11        0.6482   -1.8931    5.4457 H         1 RES1    0.0000
     39 H12       -0.4171   -2.0242    3.3796 H         1 RES1    0.0000
     40 H13       -0.6701   -0.0820    2.0745 H         1 RES1    0.0000
     41 H14       -3.4840    2.9338    2.2931 H         1 RES1    0.0000
     42 H15        0.1463    3.7124    4.1306 H         1 RES1    0.0000
     43 H16        1.7718    2.5651    1.0498 H         1 RES1    0.0000
     44 C20        2.3349    5.4033   10.9349 C.2       2 RES2    0.0000
     45 C21        3.7496    4.9553   11.0183 C.2       2 RES2    0.0000
     46 C22        4.3804    4.6084    9.8934 C.2       2 RES2    0.0000
     47 C23        3.8591    4.7723    8.4999 C.3       2 RES2    0.0000
     48 C24        2.4583    5.3896    8.4398 C.3       2 RES2    0.0000
     49 C25        1.5681    5.0728    9.6531 C.3       2 RES2    0.0000
     50 C26        4.4389    4.9608   12.3351 C.ar      2 RES2    0.0000
     51 C27        5.7860    5.2968   12.3985 C.ar      2 RES2    0.0000
     52 C28        6.4505    5.3405   13.6035 C.ar      2 RES2    0.0000
     53 C29        5.7761    5.0536   14.7868 C.ar      2 RES2    0.0000
     54 C30        4.4527    4.7067   14.7250 C.ar      2 RES2    0.0000
     55 C31        3.7737    4.6685   13.5251 C.ar      2 RES2    0.0000
     56 C32        4.8797    5.5098    7.6387 C.3       2 RES2    0.0000
     57 C33        1.1496    3.5949    9.6348 C.ar      2 RES2    0.0000
     58 C34        0.4438    3.1360    8.5399 C.ar      2 RES2    0.0000
     59 C35        0.0411    1.7893    8.4799 C.ar      2 RES2    0.0000
     60 C36        0.3568    0.9315    9.4946 C.ar      2 RES2    0.0000
     61 C37        1.0388    1.3932   10.5827 C.ar      2 RES2    0.0000
     62 C38        1.4293    2.7180   10.6595 C.ar      2 RES2    0.0000
     63 N3         3.7312    3.3600    7.8523 N.pl3     2 RES2    0.0000
     64 N4         2.5806    6.8921    8.3246 N.pl3     2 RES2    0.0000
     65 O7         1.7815    6.0125   11.8261 O.2       2 RES2    0.0000
     66 O8         3.2360    3.3108    6.7425 O.2       2 RES2    0.0000
     67 O9         4.1849    2.4203    8.4565 O.2       2 RES2    0.0000
     68 O10        2.3064    7.4002    7.2599 O.2       2 RES2    0.0000
     69 O11        2.9581    7.5204    9.3060 O.2       2 RES2    0.0000
     70 O12        0.4052    5.8677    9.5480 O.3       2 RES2    0.0000
     71 H17        6.2609    5.5016   11.5908 H         2 RES2    0.0000
     72 H18        7.3828    5.5672   13.6269 H         2 RES2    0.0000
     73 H19        6.2310    5.0974   15.6312 H         2 RES2    0.0000
     74 H20        3.9877    4.4882   15.5344 H         2 RES2    0.0000
     75 H21        2.8402    4.4417   13.5100 H         2 RES2    0.0000
     76 H22        4.3692    6.4004    7.9775 H         2 RES2    0.0000
     77 H23        4.5612    5.5563    6.7342 H         2 RES2    0.0000
     78 H24        5.7164    5.0400    7.6604 H         2 RES2    0.0000
     79 H25        0.2291    3.7342    7.8206 H         2 RES2    0.0000
     80 H26       -0.4581    1.4751    7.7222 H         2 RES2    0.0000
     81 H27        0.0995    0.0082    9.4445 H         2 RES2    0.0000
     82 H28        1.2497    0.7949   11.3020 H         2 RES2    0.0000
     83 H29        1.9002    3.0295   11.4372 H         2 RES2    0.0000
     84 H30        5.3451    4.3543    9.8834 H         2 RES2    0.0000
     85 H31        2.0853    5.1219    7.6521 H         2 RES2    0.0000
     86 H32        0.4374    6.3649   10.2740 H         2 RES2    0.0000
@<TRIPOS>BOND
     1    1    2 1
     2    2    3 2
     3    3    4 1
     4    4    5 1
     5    5    6 1
     6    6    1 1
     7    7    2 1
     8    8    7 ar
     9    9    8 ar
    10   10    9 ar
    11   11   10 ar
    12   12    7 ar
    13   13    4 1
    14   14    6 1
    15   15   14 ar
    16   16   15 ar
    17   17   16 ar
    18   18   17 ar
    19   19   14 ar
    20   20    4 1
    21   21    5 1
    22   22    1 2
    23   23   20 2
    24   24   20 2
    25   25   21 2
    26   26   21 2
    27   27    6 1
    28   28    8 1
    29   29    9 1
    30   30   10 1
    31   31   11 1
    32   32   12 1
    33   33   13 1
    34   34   13 1
    35   35   13 1
    36   36   15 1
    37   37   16 1
    38   38   17 1
    39   39   18 1
    40   40   19 1
    41   41    3 1
    42   42    5 1
    43   43   27 1
    44   44   45 1
    45   45   46 2
    46   46   47 1
    47   47   48 1
    48   48   49 1
    49   49   44 1
    50   50   45 1
    51   51   50 ar
    52   52   51 ar
    53   53   52 ar
    54   54   53 ar
    55   55   50 ar
    56   56   47 1
    57   57   49 1
    58   58   57 ar
    59   59   58 ar
    60   60   59 ar
    61   61   60 ar
    62   62   57 ar
    63   63   47 1
    64   64   48 1
    65   65   44 2
    66   66   63 2
    67   67   63 2
    68   68   64 2
    69   69   64 2
    70   70   49 1
    71   71   51 1
    72   72   52 1
    73   73   53 1
    74   74   54 1
    75   75   55 1
    76   76   56 1
    77   77   56 1
    78   78   56 1
    79   79   58 1
    80   80   59 1
    81   81   60 1
    82   82   61 1
    83   83   62 1
    84   84   46 1
    85   85   48 1
    86   86   70 1
    87   11   12 ar
    88   18   19 ar
    89   54   55 ar
    90   61   62 ar
@<TRIPOS>SUBSTRUCTURE
     1 RES1 1
     2 RES2 44

@<TRIPOS>CRYSIN
   7.7250   27.3170   16.8440  90.0000  97.7700  90.0000  14 1

