# MOL2 file generated by ConQuest
# Please check atom types

@<TRIPOS>MOLECULE
DUHRAZ
    82    86     2
SMALL
NO_CHARGES
****
Generated from CSD

@<TRIPOS>ATOM
      1 C1         4.4104    9.3304    3.1143 C.2       1 RES1    0.0000
      2 C2         5.6920    8.5827    2.7774 C.3       1 RES1    0.0000
      3 C3         5.6933    7.2615    3.4587 C.2       1 RES1    0.0000
      4 C4         4.7334    6.7830    4.1363 C.2       1 RES1    0.0000
      5 C5         3.3978    7.4373    4.3727 C.3       1 RES1    0.0000
      6 C6         3.1156    8.5087    3.3023 C.3       1 RES1    0.0000
      7 C7         5.7869    8.4418    1.2844 C.ar      1 RES1    0.0000
      8 C8         5.8700    9.6011    0.5138 C.ar      1 RES1    0.0000
      9 C9         5.9346    9.5118   -0.8768 C.ar      1 RES1    0.0000
     10 C10        5.9161    8.2632   -1.4966 C.ar      1 RES1    0.0000
     11 C11        5.8330    7.1025   -0.7260 C.ar      1 RES1    0.0000
     12 C12        5.7684    7.1917    0.6646 C.ar      1 RES1    0.0000
     13 C13        2.6792    7.8949    1.9806 C.ar      1 RES1    0.0000
     14 C14        2.4867    8.7891    0.9289 C.ar      1 RES1    0.0000
     15 C15        2.0463    8.3232   -0.3109 C.ar      1 RES1    0.0000
     16 C16        1.7998    6.9643   -0.4970 C.ar      1 RES1    0.0000
     17 C17        1.9923    6.0687    0.5547 C.ar      1 RES1    0.0000
     18 C18        2.4313    6.5346    1.7945 C.ar      1 RES1    0.0000
     19 O1         4.3761   10.5358    3.2390 O.2       1 RES1    0.0000
     20 O2         6.7969    9.3011    3.2744 O.3       1 RES1    0.0000
     21 O3         5.9174    4.8494    4.5960 O.2       1 RES1    0.0000
     22 O4         4.0096    5.1033    5.5435 O.2       1 RES1    0.0000
     23 O5         2.6172    8.0525    6.4836 O.2       1 RES1    0.0000
     24 O6         4.4697    8.9161    5.8470 O.2       1 RES1    0.0000
     25 O7         2.0991    9.3235    3.8124 O.3       1 RES1    0.0000
     26 N1         4.9022    5.4786    4.8027 N.pl3     1 RES1    0.0000
     27 N2         3.5019    8.2116    5.7036 N.pl3     1 RES1    0.0000
     28 H1         6.8325   10.1256    2.8555 H         1 RES1    0.0000
     29 H2         1.8907   10.0112    3.1757 H         1 RES1    0.0000
     30 H3         6.4870    6.7258    3.3805 H         1 RES1    0.0000
     31 H4         2.7148    6.7620    4.3634 H         1 RES1    0.0000
     32 H5         5.8818   10.4619    0.9401 H         1 RES1    0.0000
     33 H6         5.9913   10.3098   -1.4073 H         1 RES1    0.0000
     34 H7         5.9609    8.2004   -2.4535 H         1 RES1    0.0000
     35 H8         5.8199    6.2431   -1.1523 H         1 RES1    0.0000
     36 H9         5.7104    6.3937    1.1951 H         1 RES1    0.0000
     37 H10        2.6568    9.7252    1.0573 H         1 RES1    0.0000
     38 H11        1.9145    8.9398   -1.0350 H         1 RES1    0.0000
     39 H12        1.4965    6.6435   -1.3496 H         1 RES1    0.0000
     40 H13        1.8222    5.1326    0.4263 H         1 RES1    0.0000
     41 H14        2.5632    5.9194    2.5186 H         1 RES1    0.0000
     42 C19       -1.1194    7.0899    4.1623 C.2       2 RES2    0.0000
     43 C20       -2.1439    5.9445    4.3298 C.3       2 RES2    0.0000
     44 C21       -3.4110    6.4733    4.8939 C.2       2 RES2    0.0000
     45 C22       -3.6760    7.7498    5.0763 C.2       2 RES2    0.0000
     46 C23       -2.7636    8.8687    4.7412 C.3       2 RES2    0.0000
     47 C24       -1.6587    8.4627    3.7453 C.3       2 RES2    0.0000
     48 C25       -2.3061    5.2205    3.0119 C.ar      2 RES2    0.0000
     49 C26       -1.2117    4.5187    2.5056 C.ar      2 RES2    0.0000
     50 C27       -1.2961    3.8979    1.2602 C.ar      2 RES2    0.0000
     51 C28       -2.4748    3.9788    0.5194 C.ar      2 RES2    0.0000
     52 C29       -3.5692    4.6806    1.0238 C.ar      2 RES2    0.0000
     53 C30       -3.4848    5.3028    2.2692 C.ar      2 RES2    0.0000
     54 C31       -2.1676    8.3776    2.3083 C.ar      2 RES2    0.0000
     55 C32       -1.2763    7.8670    1.3626 C.ar      2 RES2    0.0000
     56 C33       -1.6679    7.7428    0.0298 C.ar      2 RES2    0.0000
     57 C34       -2.9508    8.1306   -0.3593 C.ar      2 RES2    0.0000
     58 C35       -3.8421    8.6412    0.5845 C.ar      2 RES2    0.0000
     59 C36       -3.4505    8.7640    1.9192 C.ar      2 RES2    0.0000
     60 O8         0.0593    6.8988    4.3280 O.2       2 RES2    0.0000
     61 O9        -1.6349    5.0614    5.3071 O.3       2 RES2    0.0000
     62 O10       -5.7553    7.2601    6.0238 O.2       2 RES2    0.0000
     63 O11       -4.9576    9.2844    6.1895 O.2       2 RES2    0.0000
     64 O12       -2.0766   10.5274    6.2491 O.2       2 RES2    0.0000
     65 O13       -1.5400    8.4920    6.6902 O.2       2 RES2    0.0000
     66 O14       -0.6408    9.4406    3.8552 O.3       2 RES2    0.0000
     67 N3        -4.9088    8.1097    5.8190 N.pl3     2 RES2    0.0000
     68 N4        -2.0898    9.3472    6.0108 N.pl3     2 RES2    0.0000
     69 H15       -0.8082    4.6834    4.9981 H         2 RES2    0.0000
     70 H16        0.0752    9.2258    3.2520 H         2 RES2    0.0000
     71 H17       -4.0873    5.8385    5.1433 H         2 RES2    0.0000
     72 H18       -3.2962    9.5550    4.3317 H         2 RES2    0.0000
     73 H19       -0.4008    4.4629    3.0175 H         2 RES2    0.0000
     74 H20       -0.5432    3.4138    0.9121 H         2 RES2    0.0000
     75 H21       -2.5328    3.5519   -0.3388 H         2 RES2    0.0000
     76 H22       -4.3814    4.7378    0.5138 H         2 RES2    0.0000
     77 H23       -4.2390    5.7855    2.6173 H         2 RES2    0.0000
     78 H24       -0.3942    7.6005    1.6307 H         2 RES2    0.0000
     79 H25       -1.0548    7.3926   -0.6199 H         2 RES2    0.0000
     80 H26       -3.2198    8.0455   -1.2770 H         2 RES2    0.0000
     81 H27       -4.7242    8.9077    0.3183 H         2 RES2    0.0000
     82 H28       -4.0636    9.1156    2.5689 H         2 RES2    0.0000
@<TRIPOS>BOND
     1    1    2 1
     2    2    3 1
     3    3    4 2
     4    4    5 1
     5    5    6 1
     6    6    1 1
     7    7    2 1
     8    8    7 ar
     9    9    8 ar
    10   10    9 ar
    11   11   10 ar
    12   12    7 ar
    13   13    6 1
    14   14   13 ar
    15   15   14 ar
    16   16   15 ar
    17   17   16 ar
    18   18   13 ar
    19   19    1 2
    20   20    2 1
    21   21   26 2
    22   22   26 2
    23   23   27 2
    24   24   27 2
    25   25    6 1
    26   26    4 1
    27   27    5 1
    28   28   20 1
    29   29   25 1
    30   30    3 1
    31   31    5 1
    32   32    8 1
    33   33    9 1
    34   34   10 1
    35   35   11 1
    36   36   12 1
    37   37   14 1
    38   38   15 1
    39   39   16 1
    40   40   17 1
    41   41   18 1
    42   42   43 1
    43   43   44 1
    44   44   45 2
    45   45   46 1
    46   46   47 1
    47   47   42 1
    48   48   43 1
    49   49   48 ar
    50   50   49 ar
    51   51   50 ar
    52   52   51 ar
    53   53   48 ar
    54   54   47 1
    55   55   54 ar
    56   56   55 ar
    57   57   56 ar
    58   58   57 ar
    59   59   54 ar
    60   60   42 2
    61   61   43 1
    62   62   67 2
    63   63   67 2
    64   64   68 2
    65   65   68 2
    66   66   47 1
    67   67   45 1
    68   68   46 1
    69   69   61 1
    70   70   66 1
    71   71   44 1
    72   72   46 1
    73   73   49 1
    74   74   50 1
    75   75   51 1
    76   76   52 1
    77   77   53 1
    78   78   55 1
    79   79   56 1
    80   80   57 1
    81   81   58 1
    82   82   59 1
    83   11   12 ar
    84   17   18 ar
    85   52   53 ar
    86   58   59 ar
@<TRIPOS>SUBSTRUCTURE
     1 RES1 1
     2 RES2 42

@<TRIPOS>CRYSIN
  13.1850   13.9510   18.6150  90.0000  90.0000  90.0000  19 1

