# MOL2 file generated by ConQuest
# Please check atom types

@<TRIPOS>MOLECULE
DUHTUW
    20    19     1
SMALL
USER_CHARGES
****
Generated from CSD

@<TRIPOS>ATOM
      1 O1         2.7755    0.4727    1.9727 O.2       1 RES1   -1.0000
      2 N1         4.9617    2.3238    1.7870 N.pl3     1 RES1    1.0000
      3 N2         4.0939   -0.6931    0.5398 N.2       1 RES1    0.0000
      4 N3         3.7086    0.3647    1.1366 N.pl3     1 RES1    1.0000
      5 O2         3.2746   -1.7085    0.9363 O.3       1 RES1    0.0000
      6 O3         5.0892    3.5672    1.6428 O.2       1 RES1   -1.0000
      7 N4         5.3527    1.6299    2.7854 N.2       1 RES1    0.0000
      8 O4         5.8972    2.4795    3.6966 O.3       1 RES1    0.0000
      9 C1         4.3768    1.5647    0.7203 C.2       1 RES1    0.0000
     10 C2         4.3697    1.9928   -0.5070 C.2       1 RES1    0.0000
     11 C3         6.2828    1.7275    4.8419 C.3       1 RES1    0.0000
     12 C4         3.6047   -2.8881    0.1796 C.3       1 RES1    0.0000
     13 H1         4.7867    2.8299   -0.6892 H         1 RES1    0.0000
     14 H2         6.9259    1.0522    4.6571 H         1 RES1    0.0000
     15 H3         5.5810    1.2339    5.2599 H         1 RES1    0.0000
     16 H4         6.6752    2.3295    5.4664 H         1 RES1    0.0000
     17 H5         4.4259   -3.2932    0.4638 H         1 RES1    0.0000
     18 H6         4.0030    1.4881   -1.1669 H         1 RES1    0.0000
     19 H7         2.9416   -3.5297    0.3602 H         1 RES1    0.0000
     20 H8         3.6492   -2.6593   -0.8266 H         1 RES1    0.0000
@<TRIPOS>BOND
     1    1    4 1
     2    2    6 1
     3    3    4 2
     4    4    9 1
     5    5    3 1
     6    7    2 2
     7    8    7 1
     8    9    2 1
     9   10    9 2
    10   11    8 1
    11   12    5 1
    12   13   10 1
    13   14   11 1
    14   15   11 1
    15   16   11 1
    16   17   12 1
    17   18   10 1
    18   19   12 1
    19   20   12 1
@<TRIPOS>SUBSTRUCTURE
     1 RES1 1

@<TRIPOS>CRYSIN
  11.7150   16.0880    8.6370  90.0000  90.0000  90.0000  61 1

