# MOL2 file generated by ConQuest
# Please check atom types

@<TRIPOS>MOLECULE
DUHXIO
   102   102     2
SMALL
NO_CHARGES
****
Generated from CSD

@<TRIPOS>ATOM
      1 C1         7.2229    4.5923   20.0227 C.ar      1 RES1    0.0000
      2 C2         6.0706    3.9601   19.6220 C.ar      1 RES1    0.0000
      3 H1         5.7328    3.2472   20.1142 H         1 RES1    0.0000
      4 C3         5.4244    4.3853   18.4976 C.ar      1 RES1    0.0000
      5 H2         4.6558    3.9463   18.2121 H         1 RES1    0.0000
      6 C4         5.9091    5.4685   17.7806 C.ar      1 RES1    0.0000
      7 C5         7.0790    6.0855   18.1681 C.ar      1 RES1    0.0000
      8 H3         7.4207    6.7941   17.6725 H         1 RES1    0.0000
      9 C6         7.7387    5.6474   19.2919 C.ar      1 RES1    0.0000
     10 H4         8.5283    6.0603   19.5603 H         1 RES1    0.0000
     11 C7         5.5050    7.0144   15.9877 C.3       1 RES1    0.0000
     12 H5         6.3633    6.8994   15.5505 H         1 RES1    0.0000
     13 H6         5.5665    7.7712   16.5911 H         1 RES1    0.0000
     14 C8         4.4359    7.2495   14.9727 C.3       1 RES1    0.0000
     15 H7         4.5749    8.1245   14.5770 H         1 RES1    0.0000
     16 H8         3.5789    7.2684   15.4262 H         1 RES1    0.0000
     17 C9         4.3686    6.2223   13.8612 C.3       1 RES1    0.0000
     18 H9         4.2310    5.3455   14.2512 H         1 RES1    0.0000
     19 H10        5.2193    6.2091   13.3959 H         1 RES1    0.0000
     20 C10        3.2628    6.4929   12.8585 C.3       1 RES1    0.0000
     21 H11        2.4125    6.4889   13.3246 H         1 RES1    0.0000
     22 H12        3.3898    7.3805   12.4876 H         1 RES1    0.0000
     23 C11        3.2003    5.4961   11.7233 C.3       1 RES1    0.0000
     24 H13        4.0473    5.5103   11.2494 H         1 RES1    0.0000
     25 H14        3.0857    4.6087   12.0946 H         1 RES1    0.0000
     26 C12        2.0925    5.7553   10.7393 C.3       1 RES1    0.0000
     27 H15        2.2103    6.6448   10.3697 H         1 RES1    0.0000
     28 H16        1.2481    5.7470   11.2169 H         1 RES1    0.0000
     29 C13        2.0064    4.7748    9.6005 C.3       1 RES1    0.0000
     30 H17        2.8495    4.7857    9.1213 H         1 RES1    0.0000
     31 H18        1.8937    3.8854    9.9705 H         1 RES1    0.0000
     32 C14        0.8981    5.0249    8.6181 C.3       1 RES1    0.0000
     33 H19        1.0126    5.9114    8.2436 H         1 RES1    0.0000
     34 H20        0.0541    5.0154    9.0969 H         1 RES1    0.0000
     35 C15        0.8177    4.0352    7.4901 C.3       1 RES1    0.0000
     36 H21        0.7264    3.1463    7.8669 H         1 RES1    0.0000
     37 H22        1.6558    4.0589    7.0014 H         1 RES1    0.0000
     38 C16       -0.3093    4.2546    6.5106 C.3       1 RES1    0.0000
     39 H23       -1.1456    4.2385    7.0034 H         1 RES1    0.0000
     40 H24       -0.2136    5.1428    6.1318 H         1 RES1    0.0000
     41 C17       -0.4071    3.2820    5.3966 C.3       1 RES1    0.0000
     42 H25       -0.4358    2.3884    5.7734 H         1 RES1    0.0000
     43 H26        0.4021    3.3460    4.8651 H         1 RES1    0.0000
     44 C18       -1.5777    3.4426    4.4863 C.3       1 RES1    0.0000
     45 H27       -2.3828    3.2120    4.9568 H         1 RES1    0.0000
     46 H28       -1.4747    2.8643    3.7267 H         1 RES1    0.0000
     47 H29       -1.6300    4.3542    4.1910 H         1 RES1    0.0000
     48 C19        8.6215   -0.2362   18.8958 C.ar      2 RES2    0.0000
     49 C20        9.0441   -1.5410   18.9548 C.ar      2 RES2    0.0000
     50 H30        9.8307   -1.7608   19.3994 H         2 RES2    0.0000
     51 C21        8.2905   -2.5251   18.3484 C.ar      2 RES2    0.0000
     52 H31        8.5703   -3.4117   18.3730 H         2 RES2    0.0000
     53 C22        7.1192   -2.1851   17.7038 C.ar      2 RES2    0.0000
     54 C23        6.7085   -0.8598   17.6397 C.ar      2 RES2    0.0000
     55 H32        5.9292   -0.6341   17.1837 H         2 RES2    0.0000
     56 C24        7.4570    0.1147   18.2508 C.ar      2 RES2    0.0000
     57 H33        7.1808    1.0021   18.2284 H         2 RES2    0.0000
     58 C25        6.5893   -4.4739   17.1866 C.3       2 RES2    0.0000
     59 H34        6.5875   -4.7417   18.1184 H         2 RES2    0.0000
     60 H35        7.4637   -4.6668   16.8131 H         2 RES2    0.0000
     61 C26        5.5331   -5.2140   16.4359 C.3       2 RES2    0.0000
     62 H36        4.6663   -4.9580   16.7886 H         2 RES2    0.0000
     63 H37        5.6464   -6.1634   16.5972 H         2 RES2    0.0000
     64 C27        5.5364   -4.9762   14.9458 C.3       2 RES2    0.0000
     65 H38        6.4036   -5.2265   14.5913 H         2 RES2    0.0000
     66 H39        5.4134   -4.0281   14.7807 H         2 RES2    0.0000
     67 C28        4.4658   -5.7440   14.2076 C.3       2 RES2    0.0000
     68 H40        4.5755   -6.6870   14.4039 H         2 RES2    0.0000
     69 H41        3.6006   -5.4724   14.5546 H         2 RES2    0.0000
     70 C29        4.4555   -5.5659   12.7090 C.3       2 RES2    0.0000
     71 H42        5.3180   -5.8375   12.3573 H         2 RES2    0.0000
     72 H43        4.3403   -4.6228   12.5080 H         2 RES2    0.0000
     73 C30        3.3704   -6.3522   12.0025 C.3       2 RES2    0.0000
     74 H44        3.4761   -7.2914   12.2208 H         2 RES2    0.0000
     75 H45        2.5088   -6.0661   12.3451 H         2 RES2    0.0000
     76 C31        3.3613   -6.2062   10.5076 C.3       2 RES2    0.0000
     77 H46        4.2219   -6.4916   10.1620 H         2 RES2    0.0000
     78 H47        3.2512   -5.2695   10.2862 H         2 RES2    0.0000
     79 C32        2.2691   -7.0037    9.8154 C.3       2 RES2    0.0000
     80 H48        2.3743   -7.9393   10.0500 H         2 RES2    0.0000
     81 H49        1.4103   -6.7114   10.1579 H         2 RES2    0.0000
     82 C33        2.2488   -6.8870    8.3129 C.3       2 RES2    0.0000
     83 H50        3.1019   -7.1932    7.9667 H         2 RES2    0.0000
     84 H51        2.1556   -5.9504    8.0766 H         2 RES2    0.0000
     85 C34        1.1440   -7.6692    7.6341 C.3       2 RES2    0.0000
     86 H52        1.2353   -8.6037    7.8771 H         2 RES2    0.0000
     87 H53        0.2914   -7.3603    7.9789 H         2 RES2    0.0000
     88 C35        1.1177   -7.5677    6.1436 C.3       2 RES2    0.0000
     89 H54        1.9700   -7.8753    5.7978 H         2 RES2    0.0000
     90 H55        1.0210   -6.6357    5.8976 H         2 RES2    0.0000
     91 C36        0.0150   -8.3568    5.4781 C.3       2 RES2    0.0000
     92 H56       -0.8374   -8.0193    5.7632 H         2 RES2    0.0000
     93 H57        0.0909   -9.2829    5.7225 H         2 RES2    0.0000
     94 H58        0.0906   -8.2715    4.5250 H         2 RES2    0.0000
     95 N1         7.8908    4.1852   21.2489 N.pl3     1 RES1    0.0000
     96 N2         9.3972    0.7966   19.5560 N.pl3     2 RES2    0.0000
     97 O1         7.3343    3.3427   21.9403 O.2       1 RES1    0.0000
     98 O2         8.9492    4.7064   21.5601 O.2       1 RES1    0.0000
     99 O3         5.1552    5.8309   16.7119 O.3       1 RES1    0.0000
    100 O4         8.9955    1.9519   19.4898 O.2       2 RES2    0.0000
    101 O5        10.3993    0.4898   20.1686 O.2       2 RES2    0.0000
    102 O6         6.2971   -3.0687   17.0713 O.3       2 RES2    0.0000
@<TRIPOS>BOND
     1    1    2 ar
     2    2    3 1
     3    4    2 ar
     4    5    4 1
     5    6    4 ar
     6    7    6 ar
     7    8    7 1
     8    9    1 ar
     9   10    9 1
    10   11   12 1
    11   13   11 1
    12   14   11 1
    13   15   14 1
    14   16   14 1
    15   17   14 1
    16   18   17 1
    17   19   17 1
    18   20   17 1
    19   21   20 1
    20   22   20 1
    21   23   20 1
    22   24   23 1
    23   25   23 1
    24   26   23 1
    25   27   26 1
    26   28   26 1
    27   29   26 1
    28   30   29 1
    29   31   29 1
    30   32   29 1
    31   33   32 1
    32   34   32 1
    33   35   32 1
    34   36   35 1
    35   37   35 1
    36   38   35 1
    37   39   38 1
    38   40   38 1
    39   41   38 1
    40   42   41 1
    41   43   41 1
    42   44   41 1
    43   45   44 1
    44   46   44 1
    45   47   44 1
    46   48   49 ar
    47   49   50 1
    48   51   49 ar
    49   52   51 1
    50   53   51 ar
    51   54   53 ar
    52   55   54 1
    53   56   48 ar
    54   57   56 1
    55   58   59 1
    56   60   58 1
    57   61   58 1
    58   62   61 1
    59   63   61 1
    60   64   61 1
    61   65   64 1
    62   66   64 1
    63   67   64 1
    64   68   67 1
    65   69   67 1
    66   70   67 1
    67   71   70 1
    68   72   70 1
    69   73   70 1
    70   74   73 1
    71   75   73 1
    72   76   73 1
    73   77   76 1
    74   78   76 1
    75   79   76 1
    76   80   79 1
    77   81   79 1
    78   82   79 1
    79   83   82 1
    80   84   82 1
    81   85   82 1
    82   86   85 1
    83   87   85 1
    84   88   85 1
    85   89   88 1
    86   90   88 1
    87   91   88 1
    88   92   91 1
    89   93   91 1
    90   94   91 1
    91   95    1 1
    92   96   48 1
    93   97   95 2
    94   98   95 2
    95   99    6 1
    96  100   96 2
    97  101   96 2
    98  102   53 1
    99    7    9 ar
   100   11   99 1
   101   54   56 ar
   102   58  102 1
@<TRIPOS>SUBSTRUCTURE
     1 RES1 1
     2 RES2 48

@<TRIPOS>CRYSIN
   5.6150   16.0640   21.3900  72.1900  87.2900  80.2400   2 1

