# MOL2 file generated by ConQuest
# Please check atom types

@<TRIPOS>MOLECULE
DUHYAH
    60    62     2
SMALL
NO_CHARGES
****
Generated from CSD

@<TRIPOS>ATOM
      1 O1         1.8362    8.7809    1.9631 O.3       1 RES1    0.0000
      2 O2        -0.1437    9.0070    0.9089 O.2       1 RES1    0.0000
      3 O3         2.3664    2.5788    2.2524 O.2       1 RES1    0.0000
      4 O4         0.4847    2.7972    3.2569 O.2       1 RES1    0.0000
      5 N1         1.4480    3.2668    2.6760 N.pl3     1 RES1    0.0000
      6 C1         0.8353    9.5188    1.3738 C.2       1 RES1    0.0000
      7 C2         1.6604    7.4050    2.1130 C.ar      1 RES1    0.0000
      8 C3         0.5485    6.8770    2.7408 C.ar      1 RES1    0.0000
      9 H1        -0.1538    7.4446    3.0371 H         1 RES1    0.0000
     10 C4         0.4749    5.5022    2.9322 C.ar      1 RES1    0.0000
     11 H2        -0.2777    5.1110    3.3611 H         1 RES1    0.0000
     12 C5         1.5250    4.7152    2.4831 C.ar      1 RES1    0.0000
     13 C6         2.6532    5.2405    1.8656 C.ar      1 RES1    0.0000
     14 H3         3.3610    4.6773    1.5762 H         1 RES1    0.0000
     15 C7         2.7118    6.6088    1.6852 C.ar      1 RES1    0.0000
     16 H4         3.4700    7.0023    1.2697 H         1 RES1    0.0000
     17 C8         1.1638   10.9718    1.4073 C.ar      1 RES1    0.0000
     18 C9         0.2823   11.9157    0.8437 C.ar      1 RES1    0.0000
     19 C10        0.6414   13.2615    0.9343 C.ar      1 RES1    0.0000
     20 H5         0.0620   13.9185    0.5677 H         1 RES1    0.0000
     21 C11        1.8142   13.6659    1.5404 C.ar      1 RES1    0.0000
     22 H6         2.0276   14.5906    1.5879 H         1 RES1    0.0000
     23 C12        2.6782   12.7367    2.0772 C.ar      1 RES1    0.0000
     24 H7         3.4918   13.0138    2.4825 H         1 RES1    0.0000
     25 C13        2.3466   11.3929    2.0202 C.ar      1 RES1    0.0000
     26 H8         2.9307   10.7491    2.4022 H         1 RES1    0.0000
     27 C14       -1.0121   11.5574    0.1637 C.3       1 RES1    0.0000
     28 H9        -1.6501   11.2230    0.8290 H         1 RES1    0.0000
     29 H10       -0.8468   10.8625   -0.5079 H         1 RES1    0.0000
     30 H11       -1.3827   12.3532   -0.2729 H         1 RES1    0.0000
     31 O5         2.0556    2.1817   12.6895 O.3       2 RES2    0.0000
     32 O6         0.2296    2.6754   13.9142 O.2       2 RES2    0.0000
     33 O7        -0.0220   -3.5809   11.3655 O.2       2 RES2    0.0000
     34 O8         1.9350   -4.0364   12.1536 O.2       2 RES2    0.0000
     35 N2         1.0493   -3.2408   11.8558 N.pl3     2 RES2    0.0000
     36 C15        1.2117    3.0485   13.3423 C.2       2 RES2    0.0000
     37 C16        1.7221    0.8374   12.5542 C.ar      2 RES2    0.0000
     38 C17        0.5026    0.4420   12.0127 C.ar      2 RES2    0.0000
     39 H12       -0.1641    1.0842   11.8010 H         2 RES2    0.0000
     40 C18        0.2811   -0.9077   11.7892 C.ar      2 RES2    0.0000
     41 H13       -0.5451   -1.2092   11.4289 H         2 RES2    0.0000
     42 C19        1.2840   -1.8093   12.1007 C.ar      2 RES2    0.0000
     43 C20        2.5004   -1.4206   12.6261 C.ar      2 RES2    0.0000
     44 H14        3.1716   -2.0622   12.8256 H         2 RES2    0.0000
     45 C21        2.7162   -0.0694   12.8552 C.ar      2 RES2    0.0000
     46 H15        3.5423    0.2283   13.2167 H         2 RES2    0.0000
     47 C22        1.7189    4.4419   13.2082 C.ar      2 RES2    0.0000
     48 C23        0.8709    5.5437   13.3835 C.ar      2 RES2    0.0000
     49 C24        1.3999    6.8288   13.1592 C.ar      2 RES2    0.0000
     50 H16        0.8342    7.5868   13.2459 H         2 RES2    0.0000
     51 C25        2.7241    7.0071   12.8152 C.ar      2 RES2    0.0000
     52 H17        3.0569    7.8841   12.6679 H         2 RES2    0.0000
     53 C26        3.5733    5.9257   12.6828 C.ar      2 RES2    0.0000
     54 H18        4.4901    6.0574   12.4709 H         2 RES2    0.0000
     55 C27        3.0730    4.6482   12.8625 C.ar      2 RES2    0.0000
     56 H19        3.6478    3.9004   12.7526 H         2 RES2    0.0000
     57 C28       -0.5657    5.4212   13.7611 C.3       2 RES2    0.0000
     58 H20       -1.0224    4.8338   13.1233 H         2 RES2    0.0000
     59 H21       -0.9845    6.3073   13.7450 H         2 RES2    0.0000
     60 H22       -0.6369    5.0435   14.6615 H         2 RES2    0.0000
@<TRIPOS>BOND
     1    1    6 1
     2    2    6 2
     3    3    5 2
     4    4    5 2
     5    5   12 1
     6    6   17 1
     7    7    1 1
     8    8    7 ar
     9    9    8 1
    10   10    8 ar
    11   11   10 1
    12   12   10 ar
    13   13   12 ar
    14   14   13 1
    15   15    7 ar
    16   16   15 1
    17   17   18 ar
    18   18   19 ar
    19   19   20 1
    20   21   19 ar
    21   22   21 1
    22   23   21 ar
    23   24   23 1
    24   25   17 ar
    25   26   25 1
    26   27   18 1
    27   28   27 1
    28   29   27 1
    29   30   27 1
    30   31   36 1
    31   32   36 2
    32   33   35 2
    33   34   35 2
    34   35   42 1
    35   36   47 1
    36   37   31 1
    37   38   37 ar
    38   39   38 1
    39   40   38 ar
    40   41   40 1
    41   42   40 ar
    42   43   42 ar
    43   44   43 1
    44   45   37 ar
    45   46   45 1
    46   47   48 ar
    47   48   49 ar
    48   49   50 1
    49   51   49 ar
    50   52   51 1
    51   53   51 ar
    52   54   53 1
    53   55   47 ar
    54   56   55 1
    55   57   48 1
    56   58   57 1
    57   59   57 1
    58   60   57 1
    59   13   15 ar
    60   23   25 ar
    61   43   45 ar
    62   53   55 ar
@<TRIPOS>SUBSTRUCTURE
     1 RES1 1
     2 RES2 31

@<TRIPOS>CRYSIN
  11.4748   14.3608   14.5944  90.0000  90.0000  90.0000  19 1

