# MOL2 file generated by ConQuest
# Please check atom types

@<TRIPOS>MOLECULE
DUJBAM
    18    18     1
SMALL
USER_CHARGES
****
Generated from CSD

@<TRIPOS>ATOM
      1 O1        -0.5374    1.0114    2.4588 O.2       1 RES1   -1.0000
      2 N1         0.2427    0.5298    3.3796 N.pl3     1 RES1    1.0000
      3 C1         0.5412    2.8120    4.2169 C.3       1 RES1    0.0000
      4 H1        -0.4196    2.9767    4.3162 H         1 RES1    0.0000
      5 H2         0.8398    3.1408    3.3427 H         1 RES1    0.0000
      6 H3         1.0282    3.2817    4.9260 H         1 RES1    0.0000
      7 C2         0.8074    1.3530    4.3152 C.ar      1 RES1    0.0000
      8 C3         1.6067    0.8051    5.2896 C.ar      1 RES1    0.0000
      9 H4         1.9892    1.3760    5.9457 H         1 RES1    0.0000
     10 O1B        2.6477   -1.0114    6.2644 O.2       1 RES1   -1.0000
     11 N1B        1.8676   -0.5298    5.3436 N.pl3     1 RES1    1.0000
     12 C1B        1.5690   -2.8120    4.5063 C.3       1 RES1    0.0000
     13 H1B        2.5299   -2.9767    4.4069 H         1 RES1    0.0000
     14 H2B        1.2704   -3.1408    5.3805 H         1 RES1    0.0000
     15 H3B        1.0821   -3.2817    3.7972 H         1 RES1    0.0000
     16 C2B        1.3029   -1.3530    4.4080 C.ar      1 RES1    0.0000
     17 C3B        0.5036   -0.8051    3.4336 C.ar      1 RES1    0.0000
     18 H4B        0.1211   -1.3760    2.7775 H         1 RES1    0.0000
@<TRIPOS>BOND
     1    1    2 1
     2    2    7 ar
     3    3    4 1
     4    5    3 1
     5    6    3 1
     6    7    3 1
     7    8    7 ar
     8    9    8 1
     9   10   11 1
    10   11    8 ar
    11   12   13 1
    12   14   12 1
    13   15   12 1
    14   16   11 ar
    15   17    2 ar
    16   18   17 1
    17   12   16 1
    18   16   17 ar
@<TRIPOS>SUBSTRUCTURE
     1 RES1 1

@<TRIPOS>CRYSIN
   3.9971    8.9176    8.9249  90.0000 102.2050  90.0000  14 1

