# MOL2 file generated by ConQuest
# Please check atom types

@<TRIPOS>MOLECULE
DUJBUG01
    17    17     1
SMALL
NO_CHARGES
****
Generated from CSD

@<TRIPOS>ATOM
      1 N1         0.6402    5.5551    3.8314 N.pl3     1 RES1    0.0000
      2 O1         0.6601    6.7716    4.0226 O.2       1 RES1    0.0000
      3 O2         0.2748    5.0485    2.7704 O.2       1 RES1    0.0000
      4 O3         1.4915    0.2018    6.5101 O.2       1 RES1    0.0000
      5 O4         2.2893    2.2215    7.9944 O.3       1 RES1    0.0000
      6 H1         2.1668    1.4058    7.7176 H         1 RES1    0.0000
      7 C1         1.0645    4.6749    4.9221 C.ar      1 RES1    0.0000
      8 C2         0.9481    3.3047    4.7519 C.ar      1 RES1    0.0000
      9 H2         0.6097    2.9461    3.9398 H         1 RES1    0.0000
     10 C3         1.3365    2.4594    5.7938 C.ar      1 RES1    0.0000
     11 C4         1.8619    3.0096    6.9872 C.ar      1 RES1    0.0000
     12 C5         1.9524    4.4037    7.1416 C.ar      1 RES1    0.0000
     13 H3         2.2889    4.7725    7.9498 H         1 RES1    0.0000
     14 C6         1.5493    5.2390    6.1118 C.ar      1 RES1    0.0000
     15 H4         1.6007    6.1825    6.2103 H         1 RES1    0.0000
     16 C7         1.1763    1.0080    5.6422 C.2       1 RES1    0.0000
     17 H5         0.8099    0.6769    4.8306 H         1 RES1    0.0000
@<TRIPOS>BOND
     1    1    2 2
     2    3    1 2
     3    4   16 2
     4    5    6 1
     5    7    1 1
     6    8    7 ar
     7    9    8 1
     8   10    8 ar
     9   11    5 1
    10   12   11 ar
    11   13   12 1
    12   14    7 ar
    13   15   14 1
    14   16   10 1
    15   17   16 1
    16   10   11 ar
    17   12   14 ar
@<TRIPOS>SUBSTRUCTURE
     1 RES1 1

@<TRIPOS>CRYSIN
   7.1672    8.4179   11.5835  90.0000  94.0200  90.0000 231 1

