# MOL2 file generated by ConQuest
# Please check atom types

@<TRIPOS>MOLECULE
DUJBUG
    17    17     1
SMALL
NO_CHARGES
****
Generated from CSD

@<TRIPOS>ATOM
      1 O1         2.8804   -0.8446    2.9824 O.2       1 RES1    0.0000
      2 O2         2.4969   -2.5373    1.7488 O.2       1 RES1    0.0000
      3 O3         0.9420    1.9697   -2.2391 O.3       1 RES1    0.0000
      4 H1         1.1142    2.8211   -1.8883 H         1 RES1    0.0000
      5 O4         1.7014    3.9763   -0.7478 O.2       1 RES1    0.0000
      6 N1         2.5175   -1.3358    1.9308 N.pl3     1 RES1    0.0000
      7 C1         2.1153   -0.4576    0.8390 C.ar      1 RES1    0.0000
      8 C2         1.6517   -1.0151   -0.3510 C.ar      1 RES1    0.0000
      9 H2         1.6039   -1.9386   -0.4488 H         1 RES1    0.0000
     10 C3         1.2667   -0.1914   -1.3753 C.ar      1 RES1    0.0000
     11 H3         0.9489   -0.5533   -2.1716 H         1 RES1    0.0000
     12 C4         1.3521    1.1897   -1.2197 C.ar      1 RES1    0.0000
     13 C5         1.8546    1.7405   -0.0344 C.ar      1 RES1    0.0000
     14 C6         2.2248    0.8959    1.0007 C.ar      1 RES1    0.0000
     15 H4         2.5446    1.2468    1.7998 H         1 RES1    0.0000
     16 C7         2.0002    3.1770    0.1212 C.2       1 RES1    0.0000
     17 H5         2.3393    3.5028    0.9232 H         1 RES1    0.0000
@<TRIPOS>BOND
     1    1    6 2
     2    2    6 2
     3    3    4 1
     4    5   16 2
     5    6    7 1
     6    7    8 ar
     7    8    9 1
     8   10    8 ar
     9   11   10 1
    10   12    3 1
    11   13   12 ar
    12   14    7 ar
    13   15   14 1
    14   16   13 1
    15   17   16 1
    16   10   12 ar
    17   13   14 ar
@<TRIPOS>SUBSTRUCTURE
     1 RES1 1

@<TRIPOS>CRYSIN
   7.2580    8.3960   11.7040  90.0000  95.1650  90.0000 231 1

