# MOL2 file generated by ConQuest
# Please check atom types

@<TRIPOS>MOLECULE
DUJGIZ
    14    14     1
SMALL
NO_CHARGES
****
Generated from CSD

@<TRIPOS>ATOM
      1 C1         4.0804    1.6175    6.9293 C.2       1 RES1    0.0000
      2 C2         5.4579    1.6175    6.4149 C.2       1 RES1    0.0000
      3 C3         5.9135    1.6175    5.1399 C.2       1 RES1    0.0000
      4 C4         6.6265    1.6175    7.2006 C.2       1 RES1    0.0000
      5 H1         6.6229    1.6175    8.1309 H         1 RES1    0.0000
      6 C5         5.2824    1.6175    3.7997 C.3       1 RES1    0.0000
      7 H2         5.5856    0.8993    3.3014 H         1 RES1    0.0000
      8 H3         4.3597    1.6175    3.8537 H         1 RES1    0.0000
      9 N1         7.7081    1.6175    6.4862 N.2       1 RES1    0.0000
     10 O1         3.1664    1.6175    5.9734 O.3       1 RES1    0.0000
     11 H4         2.3945    1.6175    6.3292 H         1 RES1    0.0000
     12 O2         3.8214    1.6175    8.0992 O.2       1 RES1    0.0000
     13 O3         7.2584    1.6175    5.1493 O.3       1 RES1    0.0000
     14 H2G        5.5856    2.3357    3.3014 H         1 RES1    0.0000
@<TRIPOS>BOND
     1    1    2 1
     2    2    3 2
     3    3    6 1
     4    4    2 1
     5    5    4 1
     6    6    7 1
     7    8    6 1
     8    9    4 2
     9   10    1 1
    10   11   10 1
    11   12    1 2
    12   13    3 1
    13   14    6 1
    14    9   13 1
@<TRIPOS>SUBSTRUCTURE
     1 RES1 1

@<TRIPOS>CRYSIN
   7.2540    6.4700   12.2730  90.0000  90.0000  90.0000  62 1

