# MOL2 file generated by ConQuest
# Please check atom types

@<TRIPOS>MOLECULE
DUJMAW
    80    84     2
SMALL
NO_CHARGES
****
Generated from CSD

@<TRIPOS>ATOM
      1 O1         2.6589    3.5249   -1.5937 O.2       1 RES1    0.0000
      2 O2         4.2520    4.8611   -1.0379 O.2       1 RES1    0.0000
      3 O3         3.6261   -1.2795    5.0698 O.3       1 RES1    0.0000
      4 O4         5.1383    1.2138    4.7892 O.3       1 RES1    0.0000
      5 O5         8.5014    1.1119   -1.1605 O.2       2 RES2    0.0000
      6 O6         7.1511    2.6291   -1.7803 O.2       2 RES2    0.0000
      7 O7         8.2456    7.0334    5.1638 O.3       2 RES2    0.0000
      8 O8         9.5757    4.4588    4.7619 O.3       2 RES2    0.0000
      9 N1         3.6060    3.8514   -0.8786 N.pl3     1 RES1    0.0000
     10 N2         2.3972    0.6437    4.5849 N.3       1 RES1    0.0000
     11 N3         5.6543   -0.4957    3.2691 N.3       1 RES1    0.0000
     12 N4         7.9896    2.1869   -1.0257 N.pl3     2 RES2    0.0000
     13 N5         6.8921    5.2344    4.5535 N.3       2 RES2    0.0000
     14 N6        10.2283    6.2126    3.3876 N.3       2 RES2    0.0000
     15 C1         4.6440    0.4557    3.6695 C.3       1 RES1    0.0000
     16 C2         3.3586   -0.2795    4.0741 C.3       1 RES1    0.0000
     17 C3         4.5791   -2.2392    4.5617 C.3       1 RES1    0.0000
     18 C4         5.8479   -1.5732    4.2920 C.3       1 RES1    0.0000
     19 C5         4.1461    2.0241    5.4185 C.3       1 RES1    0.0000
     20 C6         2.8873    1.3011    5.7767 C.3       1 RES1    0.0000
     21 C7         6.9095    0.0956    2.8727 C.3       1 RES1    0.0000
     22 C8         1.0979    0.0065    4.7783 C.3       1 RES1    0.0000
     23 C9         4.3697    1.3795    2.4763 C.ar      1 RES1    0.0000
     24 C10        3.6643    0.8919    1.3716 C.ar      1 RES1    0.0000
     25 C11        3.4102    1.6951    0.2820 C.ar      1 RES1    0.0000
     26 C12        3.8903    2.9693    0.2765 C.ar      1 RES1    0.0000
     27 C13        4.6528    3.4883    1.3063 C.ar      1 RES1    0.0000
     28 C14        4.8629    2.6701    2.4096 C.ar      1 RES1    0.0000
     29 C15        9.1769    5.3106    3.6804 C.3       2 RES2    0.0000
     30 C16        7.9241    6.0957    4.1204 C.3       2 RES2    0.0000
     31 C17        7.3067    4.4508    5.7072 C.3       2 RES2    0.0000
     32 C18        8.5205    3.6555    5.3013 C.3       2 RES2    0.0000
     33 C19        9.2455    7.9535    4.7647 C.3       2 RES2    0.0000
     34 C20       10.4943    7.1804    4.4732 C.3       2 RES2    0.0000
     35 C21        5.6380    5.9406    4.8123 C.3       2 RES2    0.0000
     36 C22       11.4711    5.5727    2.9204 C.3       2 RES2    0.0000
     37 C23        8.8715    4.4767    2.4246 C.ar      2 RES2    0.0000
     38 C24        9.3218    3.1830    2.2883 C.ar      2 RES2    0.0000
     39 C25        9.0591    2.4334    1.1891 C.ar      2 RES2    0.0000
     40 C26        8.3534    2.9944    0.1594 C.ar      2 RES2    0.0000
     41 C27        7.9072    4.2662    0.2425 C.ar      2 RES2    0.0000
     42 C28        8.1970    5.0289    1.3512 C.ar      2 RES2    0.0000
     43 H1         2.9780   -0.7657    3.2963 H         1 RES1    0.0000
     44 H2         4.1751   -2.6869    3.7186 H         1 RES1    0.0000
     45 H3         4.6272   -2.9489    5.2850 H         1 RES1    0.0000
     46 H4         6.3810   -2.2562    3.8411 H         1 RES1    0.0000
     47 H5         6.3091   -1.2611    5.0943 H         1 RES1    0.0000
     48 H6         7.4820   -0.6137    2.5880 H         1 RES1    0.0000
     49 H7         6.9108    0.7376    2.0704 H         1 RES1    0.0000
     50 H8         7.3831    0.7472    3.6232 H         1 RES1    0.0000
     51 H9         3.3681    0.0034    1.4030 H         1 RES1    0.0000
     52 H10        2.9707    1.2816   -0.5040 H         1 RES1    0.0000
     53 H11        5.0221    4.3850    1.1850 H         1 RES1    0.0000
     54 H12        5.4198    2.9793    3.1192 H         1 RES1    0.0000
     55 H13        4.0044    2.8153    4.8082 H         1 RES1    0.0000
     56 H14        4.5876    2.2909    6.1704 H         1 RES1    0.0000
     57 H15        2.2060    2.0524    5.9660 H         1 RES1    0.0000
     58 H16        3.0295    0.6724    6.4428 H         1 RES1    0.0000
     59 H17        0.5553    0.6842    5.0670 H         1 RES1    0.0000
     60 H18        0.7779   -0.3588    3.9093 H         1 RES1    0.0000
     61 H19        1.2028   -0.7601    5.5029 H         1 RES1    0.0000
     62 H20        7.7117    6.5275    3.3780 H         2 RES2    0.0000
     63 H21        6.6510    3.7326    6.0069 H         2 RES2    0.0000
     64 H22        7.5957    5.0745    6.1976 H         2 RES2    0.0000
     65 H23        8.3063    2.9266    4.5494 H         2 RES2    0.0000
     66 H24        8.9454    3.2791    6.0886 H         2 RES2    0.0000
     67 H25        5.6987    5.2819    5.1624 H         2 RES2    0.0000
     68 H26        5.6824    6.5347    5.5983 H         2 RES2    0.0000
     69 H27        5.2453    6.3762    3.8956 H         2 RES2    0.0000
     70 H28        9.3324    8.5463    5.5302 H         2 RES2    0.0000
     71 H29        8.9976    8.5083    3.8411 H         2 RES2    0.0000
     72 H30       10.7121    6.6562    5.3258 H         2 RES2    0.0000
     73 H31       11.1555    7.6551    4.1544 H         2 RES2    0.0000
     74 H32       12.1719    6.2411    2.7787 H         2 RES2    0.0000
     75 H33       11.8955    4.8905    3.5960 H         2 RES2    0.0000
     76 H34       11.3353    5.0386    2.0704 H         2 RES2    0.0000
     77 H35        9.6909    2.7998    3.0103 H         2 RES2    0.0000
     78 H36        9.3848    1.5694    1.0897 H         2 RES2    0.0000
     79 H37        7.4791    4.5912   -0.4495 H         2 RES2    0.0000
     80 H38        8.0083    5.9170    1.3757 H         2 RES2    0.0000
@<TRIPOS>BOND
     1    1    9 2
     2    2    9 2
     3    3   16 1
     4    4   15 1
     5    5   12 2
     6    6   12 2
     7    7   30 1
     8    8   29 1
     9    9   26 1
    10   10   16 1
    11   11   15 1
    12   12   40 1
    13   13   30 1
    14   14   29 1
    15   15   16 1
    16   16   43 1
    17   17    3 1
    18   18   11 1
    19   19    4 1
    20   20   10 1
    21   21   11 1
    22   22   10 1
    23   23   15 1
    24   24   23 ar
    25   25   24 ar
    26   26   25 ar
    27   27   26 ar
    28   28   23 ar
    29   29   30 1
    30   30   62 1
    31   31   13 1
    32   32    8 1
    33   33    7 1
    34   34   14 1
    35   35   13 1
    36   36   14 1
    37   37   29 1
    38   38   37 ar
    39   39   38 ar
    40   40   39 ar
    41   41   40 ar
    42   42   37 ar
    43   44   17 1
    44   45   17 1
    45   46   18 1
    46   47   18 1
    47   48   21 1
    48   49   21 1
    49   50   21 1
    50   51   24 1
    51   52   25 1
    52   53   27 1
    53   54   28 1
    54   55   19 1
    55   56   19 1
    56   57   20 1
    57   58   20 1
    58   59   22 1
    59   60   22 1
    60   61   22 1
    61   63   31 1
    62   64   31 1
    63   65   32 1
    64   66   32 1
    65   67   35 1
    66   68   35 1
    67   69   35 1
    68   70   33 1
    69   71   33 1
    70   72   34 1
    71   73   34 1
    72   74   36 1
    73   75   36 1
    74   76   36 1
    75   77   38 1
    76   78   39 1
    77   79   41 1
    78   80   42 1
    79   17   18 1
    80   19   20 1
    81   27   28 ar
    82   31   32 1
    83   33   34 1
    84   41   42 ar
@<TRIPOS>SUBSTRUCTURE
     1 RES1 1
     2 RES2 5

@<TRIPOS>CRYSIN
   9.1050   11.8820   13.7440  83.0800  86.6400  89.4000   2 1

