# MOL2 file generated by ConQuest
# Please check atom types

@<TRIPOS>MOLECULE
DUJSIL
    35    36     1
SMALL
NO_CHARGES
****
Generated from CSD

@<TRIPOS>ATOM
      1 N1        -0.4870    8.4865    1.2311 N.2       1 RES1    0.0000
      2 N2        -0.4562    8.6303    2.5903 N.am      1 RES1    0.0000
      3 N3        -1.0600    9.1013   -5.1155 N.pl3     1 RES1    0.0000
      4 O1        -0.9627    9.9510    4.8242 O.3       1 RES1    0.0000
      5 O2         0.0530    6.4634    2.8647 O.2       1 RES1    0.0000
      6 O3        -0.6177    8.0979   -5.6461 O.2       1 RES1    0.0000
      7 O4        -1.5881   10.0009   -5.7340 O.2       1 RES1    0.0000
      8 C1        -0.8594    9.4044   -0.9150 C.ar      1 RES1    0.0000
      9 C2        -0.5097    8.2258   -1.5644 C.ar      1 RES1    0.0000
     10 H1        -0.2405    7.4906   -1.0628 H         1 RES1    0.0000
     11 C3        -0.5544    8.1292   -2.9349 C.ar      1 RES1    0.0000
     12 H2        -0.3175    7.3394   -3.3636 H         1 RES1    0.0000
     13 C4        -0.9578    9.2270   -3.6571 C.ar      1 RES1    0.0000
     14 C5        -1.3060   10.4133   -3.0604 C.ar      1 RES1    0.0000
     15 H3        -1.5769   11.1421   -3.5711 H         1 RES1    0.0000
     16 C6        -1.2446   10.4991   -1.6835 C.ar      1 RES1    0.0000
     17 H4        -1.4637   11.2990   -1.2636 H         1 RES1    0.0000
     18 C7        -0.8380    9.4922    0.5427 C.2       1 RES1    0.0000
     19 H5        -1.0814   10.2847    0.9651 H         1 RES1    0.0000
     20 C8        -0.1536    7.5551    3.3574 C.2       1 RES1    0.0000
     21 C9        -0.0589    7.7714    4.8371 C.ar      1 RES1    0.0000
     22 C10       -0.4671    8.9039    5.5403 C.ar      1 RES1    0.0000
     23 C11       -0.3470    8.9257    6.9311 C.ar      1 RES1    0.0000
     24 H6        -0.6461    9.6660    7.4084 H         1 RES1    0.0000
     25 C12        0.2079    7.8659    7.6004 C.ar      1 RES1    0.0000
     26 H7         0.2870    7.8966    8.5266 H         1 RES1    0.0000
     27 C13        0.6438    6.7651    6.9223 C.ar      1 RES1    0.0000
     28 H8         1.0342    6.0566    7.3806 H         1 RES1    0.0000
     29 C14        0.5002    6.7145    5.5516 C.ar      1 RES1    0.0000
     30 H9         0.7834    5.9565    5.0931 H         1 RES1    0.0000
     31 C15       -1.4643   11.0892    5.5273 C.3       1 RES1    0.0000
     32 H10       -2.1540   10.8112    6.1348 H         1 RES1    0.0000
     33 H11       -1.8260   11.7198    4.9001 H         1 RES1    0.0000
     34 H12       -0.7504   11.5014    6.0194 H         1 RES1    0.0000
     35 H13       -0.7048    9.4124    2.9775 H         1 RES1    0.0000
@<TRIPOS>BOND
     1    1    2 1
     2    2   20 1
     3    3    6 2
     4    4   22 1
     5    5   20 2
     6    7    3 2
     7    8    9 ar
     8    9   10 1
     9   11    9 ar
    10   12   11 1
    11   13    3 1
    12   14   13 ar
    13   15   14 1
    14   16    8 ar
    15   17   16 1
    16   18    1 2
    17   19   18 1
    18   20   21 1
    19   21   22 ar
    20   22   23 ar
    21   23   24 1
    22   25   23 ar
    23   26   25 1
    24   27   25 ar
    25   28   27 1
    26   29   21 ar
    27   30   29 1
    28   31    4 1
    29   32   31 1
    30   33   31 1
    31   34   31 1
    32   35    2 1
    33    8   18 1
    34   11   13 ar
    35   14   16 ar
    36   27   29 ar
@<TRIPOS>SUBSTRUCTURE
     1 RES1 1

@<TRIPOS>CRYSIN
  11.1843   11.3718   13.0519  90.0000 121.7920  90.0000  14 1

