# MOL2 file generated by ConQuest
# Please check atom types

@<TRIPOS>MOLECULE
DUMSAG
    25    25     1
SMALL
NO_CHARGES
****
Generated from CSD

@<TRIPOS>ATOM
      1 O1         5.1090    5.8325    1.4416 O.3       1 RES1    0.0000
      2 O2         6.4245    4.0532    1.3578 O.2       1 RES1    0.0000
      3 O3         3.3532   -0.3893    2.5613 O.2       1 RES1    0.0000
      4 O4         1.5485    0.1655    1.5244 O.2       1 RES1    0.0000
      5 O5         0.1821    4.0815    4.5462 O.2       1 RES1    0.0000
      6 O6         1.2856    5.8626    4.1500 O.2       1 RES1    0.0000
      7 N1         2.5582    0.4327    2.1425 N.pl3     1 RES1    0.0000
      8 N2         1.1109    4.6672    4.0527 N.pl3     1 RES1    0.0000
      9 C1         4.1598    3.8028    2.0792 C.ar      1 RES1    0.0000
     10 C2         4.0076    2.4225    1.8655 C.ar      1 RES1    0.0000
     11 C3         2.8368    1.8687    2.3832 C.ar      1 RES1    0.0000
     12 C4         1.8747    2.5552    3.0866 C.ar      1 RES1    0.0000
     13 C5         2.0996    3.8904    3.2827 C.ar      1 RES1    0.0000
     14 C6         3.2031    4.5248    2.7797 C.ar      1 RES1    0.0000
     15 C7         5.3611    4.5389    1.5863 C.2       1 RES1    0.0000
     16 C8         6.2179    6.6571    0.9892 C.3       1 RES1    0.0000
     17 C9         4.9772    1.6103    1.0713 C.3       1 RES1    0.0000
     18 H1         1.1116    2.1347    3.4116 H         1 RES1    0.0000
     19 H2         3.3124    5.4394    2.9073 H         1 RES1    0.0000
     20 H3         6.9596    6.5527    1.5900 H         1 RES1    0.0000
     21 H4         5.9464    7.5776    0.9730 H         1 RES1    0.0000
     22 H5         6.4799    6.3847    0.1069 H         1 RES1    0.0000
     23 H6         5.6624    1.2725    1.6519 H         1 RES1    0.0000
     24 H7         5.3750    2.1609    0.3927 H         1 RES1    0.0000
     25 H8         4.5166    0.8763    0.6582 H         1 RES1    0.0000
@<TRIPOS>BOND
     1    1   15 1
     2    2   15 2
     3    3    7 2
     4    4    7 2
     5    5    8 2
     6    6    8 2
     7    7   11 1
     8    8   13 1
     9    9   10 ar
    10   10   11 ar
    11   11   12 ar
    12   12   13 ar
    13   13   14 ar
    14   14    9 ar
    15   15    9 1
    16   16    1 1
    17   17   10 1
    18   18   12 1
    19   19   14 1
    20   20   16 1
    21   21   16 1
    22   22   16 1
    23   23   17 1
    24   24   17 1
    25   25   17 1
@<TRIPOS>SUBSTRUCTURE
     1 RES1 1

@<TRIPOS>CRYSIN
   6.7948    8.8478   17.3539  90.0000  90.0000  90.0000  19 1

