# MOL2 file generated by ConQuest
# Please check atom types

@<TRIPOS>MOLECULE
DUNCEW
    47    52     1
SMALL
NO_CHARGES
****
Generated from CSD

@<TRIPOS>ATOM
      1 O1        11.0387    7.8477    6.0970 O.3       1 RES1    0.0000
      2 O2         8.8119    9.7273    7.3457 O.2       1 RES1    0.0000
      3 O3         8.2780    7.5876    6.8727 O.3       1 RES1    0.0000
      4 O4        10.3688    5.5740   10.2276 O.3       1 RES1    0.0000
      5 O5         7.2932    5.6432    8.9868 O.2       1 RES1    0.0000
      6 N1        12.0493    9.8926    7.6204 N.2       1 RES1    0.0000
      7 N2        11.2188    6.5867   10.8171 N.3       1 RES1    0.0000
      8 C1        11.4547    8.9122    8.2096 C.2       1 RES1    0.0000
      9 C2        12.2282    7.0409    9.7762 C.3       1 RES1    0.0000
     10 C3        10.2792    7.7161   11.0484 C.3       1 RES1    0.0000
     11 C4        11.1113    8.9559   10.7912 C.3       1 RES1    0.0000
     12 C5        12.0194    8.5712    9.5923 C.3       1 RES1    0.0000
     13 C6        13.2150    9.4921    9.5952 C.ar      1 RES1    0.0000
     14 C7        14.2213    9.6883   10.5248 C.ar      1 RES1    0.0000
     15 C8        15.1285   10.7240   10.2922 C.ar      1 RES1    0.0000
     16 C9        15.0036   11.5600    9.1875 C.ar      1 RES1    0.0000
     17 C10       13.9929   11.3631    8.2540 C.ar      1 RES1    0.0000
     18 C11       13.1109   10.3134    8.4738 C.ar      1 RES1    0.0000
     19 C12       11.9849    6.2872    8.4784 C.3       1 RES1    0.0000
     20 C13       10.5458    6.5740    8.0211 C.3       1 RES1    0.0000
     21 C14       10.5205    7.9992    7.4218 C.3       1 RES1    0.0000
     22 C15        8.8700    3.9490    8.4513 C.3       1 RES1    0.0000
     23 H1         8.0880    3.3588    8.4361 H         1 RES1    0.0000
     24 H2         9.5308    3.5986    9.0845 H         1 RES1    0.0000
     25 H3         9.2654    3.9905    7.5551 H         1 RES1    0.0000
     26 C16        8.4516    5.3205    8.8757 C.2       1 RES1    0.0000
     27 C17        9.5850    6.2994    9.2326 C.3       1 RES1    0.0000
     28 C18        9.1207    7.5035   10.0547 C.3       1 RES1    0.0000
     29 C19        9.1113    8.5666    7.2368 C.2       1 RES1    0.0000
     30 C20        6.8998    7.9744    6.6524 C.3       1 RES1    0.0000
     31 H4        11.1763    8.6469    5.7268 H         1 RES1    0.0000
     32 H5        13.1255    6.8684   10.1380 H         1 RES1    0.0000
     33 H6         9.9600    7.6767   11.9733 H         1 RES1    0.0000
     34 H7        11.6861    9.1638   11.5765 H         1 RES1    0.0000
     35 H8        10.5377    9.7388   10.6151 H         1 RES1    0.0000
     36 H9        14.2847    9.1481   11.3273 H         1 RES1    0.0000
     37 H10       15.8646   10.8712   10.9281 H         1 RES1    0.0000
     38 H11       15.6364   12.2909    9.0821 H         1 RES1    0.0000
     39 H12       13.9128   11.9237    7.4511 H         1 RES1    0.0000
     40 H13       12.1248    5.3579    8.6133 H         1 RES1    0.0000
     41 H14       12.6330    6.5889    7.7806 H         1 RES1    0.0000
     42 H15       10.3249    5.9663    7.2740 H         1 RES1    0.0000
     43 H16        8.2819    7.2502   10.5242 H         1 RES1    0.0000
     44 H17        8.9418    8.3095    9.5321 H         1 RES1    0.0000
     45 H18        6.4597    7.1664    6.4142 H         1 RES1    0.0000
     46 H19        6.8344    8.6082    5.9241 H         1 RES1    0.0000
     47 H20        6.5397    8.3406    7.4488 H         1 RES1    0.0000
@<TRIPOS>BOND
     1    1   21 1
     2    2   29 2
     3    3   29 1
     4    4    7 1
     5    5   26 2
     6    6    8 2
     7    7    9 1
     8    8   12 1
     9    9   12 1
    10   10    7 1
    11   11   10 1
    12   12   11 1
    13   13   12 1
    14   14   13 ar
    15   15   14 ar
    16   16   15 ar
    17   17   16 ar
    18   18    6 1
    19   19    9 1
    20   20   19 1
    21   21    8 1
    22   22   23 1
    23   24   22 1
    24   25   22 1
    25   26   22 1
    26   27    4 1
    27   28   10 1
    28   29   21 1
    29   30    3 1
    30   31    1 1
    31   32    9 1
    32   33   10 1
    33   34   11 1
    34   35   11 1
    35   36   14 1
    36   37   15 1
    37   38   16 1
    38   39   17 1
    39   40   19 1
    40   41   19 1
    41   42   20 1
    42   43   28 1
    43   44   28 1
    44   45   30 1
    45   46   30 1
    46   47   30 1
    47   13   18 ar
    48   17   18 ar
    49   20   21 1
    50   20   27 1
    51   26   27 1
    52   27   28 1
@<TRIPOS>SUBSTRUCTURE
     1 RES1 1

@<TRIPOS>CRYSIN
   8.3551    8.8733   12.5301  76.5162  74.1344  80.8092   2 1

