# MOL2 file generated by ConQuest
# Please check atom types

@<TRIPOS>MOLECULE
DUPHOL
    21    20     1
SMALL
NO_CHARGES
****
Generated from CSD

@<TRIPOS>ATOM
      1 C1        -1.8563   -3.4152    3.2638 C.2       1 RES1    0.0000
      2 C2        -1.3972   -2.2188    2.4770 C.3       1 RES1    0.0000
      3 C3        -0.7349   -1.1865    3.3777 C.3       1 RES1    0.0000
      4 C4        -0.4152    0.1324    2.6922 C.3       1 RES1    0.0000
      5 C5        -1.5353    0.8269    1.9654 C.3       1 RES1    0.0000
      6 O1        -1.8278   -3.4823    4.4778 O.2       1 RES1    0.0000
      7 O2        -2.3063   -4.3813    2.4922 O.3       1 RES1    0.0000
      8 O3         1.4183   -1.0442    1.7644 O.2       1 RES1    0.0000
      9 O4         0.9999    0.9187    0.9852 O.2       1 RES1    0.0000
     10 O5        -0.7269    1.5411    4.5335 O.2       1 RES1    0.0000
     11 O6         1.3160    1.2062    3.9206 O.2       1 RES1    0.0000
     12 N1         0.7807   -0.0168    1.7366 N.pl3     1 RES1    0.0000
     13 N2         0.1181    1.0531    3.8041 N.pl3     1 RES1    0.0000
     14 H1        -2.5975   -5.0976    3.1067 H         1 RES1    0.0000
     15 H2        -0.8057   -2.5191    1.7560 H         1 RES1    0.0000
     16 H3        -2.1926   -1.8869    2.0430 H         1 RES1    0.0000
     17 H4        -1.3790   -0.9484    4.1283 H         1 RES1    0.0000
     18 H5         0.0952   -1.5411    3.8243 H         1 RES1    0.0000
     19 H6        -1.8273    0.2964    1.1397 H         1 RES1    0.0000
     20 H7        -2.2979    0.8792    2.5496 H         1 RES1    0.0000
     21 H8        -1.2421    1.7288    1.7138 H         1 RES1    0.0000
@<TRIPOS>BOND
     1    1    2 1
     2    2    3 1
     3    3    4 1
     4    4    5 1
     5    5   19 1
     6    6    1 2
     7    7    1 1
     8    8   12 2
     9    9   12 2
    10   10   13 2
    11   11   13 2
    12   12    4 1
    13   13    4 1
    14   14    7 1
    15   15    2 1
    16   16    2 1
    17   17    3 1
    18   18    3 1
    19   20    5 1
    20   21    5 1
@<TRIPOS>SUBSTRUCTURE
     1 RES1 1

@<TRIPOS>CRYSIN
   9.6250    9.8790    9.8750  90.0000 121.2500  90.0000 231 1

