# MOL2 file generated by ConQuest
# Please check atom types

@<TRIPOS>MOLECULE
DUPJUU
    33    33     1
SMALL
NO_CHARGES
****
Generated from CSD

@<TRIPOS>ATOM
      1 O1         0.3246   -2.5709    4.2411 O.2       1 RES1    0.0000
      2 O2         2.3978   -1.9158    4.3831 O.2       1 RES1    0.0000
      3 O3        -3.0219   -0.4641    6.8371 O.2       1 RES1    0.0000
      4 O4        -2.5669    1.1915    8.1662 O.2       1 RES1    0.0000
      5 N1        -0.0913    1.7258    8.8221 N.pl3     1 RES1    0.0000
      6 H1        -0.9158    1.8017    9.0864 H         1 RES1    0.0000
      7 N2         0.9634    2.3705    9.4702 N.2       1 RES1    0.0000
      8 N3         1.2061   -1.8704    4.7143 N.pl3     1 RES1    0.0000
      9 N4        -2.2153    0.2970    7.3830 N.pl3     1 RES1    0.0000
     10 C1         0.1819    0.8999    7.7963 C.ar      1 RES1    0.0000
     11 C2        -0.8008    0.1586    7.0892 C.ar      1 RES1    0.0000
     12 C3        -0.4722   -0.7643    6.1014 C.ar      1 RES1    0.0000
     13 H2        -1.1452   -1.2886    5.6839 H         1 RES1    0.0000
     14 C4         0.8519   -0.8999    5.7433 C.ar      1 RES1    0.0000
     15 C5         1.8509   -0.1456    6.3587 C.ar      1 RES1    0.0000
     16 H3         2.7558   -0.2372    6.0834 H         1 RES1    0.0000
     17 C6         1.5249    0.7247    7.3591 C.ar      1 RES1    0.0000
     18 H4         2.2159    1.2279    7.7747 H         1 RES1    0.0000
     19 C7         0.6327    2.9784   10.5348 C.2       1 RES1    0.0000
     20 H5        -0.2758    2.9654   10.8677 H         1 RES1    0.0000
     21 C8         1.6355    3.7085   11.3481 C.3       1 RES1    0.0000
     22 H6         1.7368    3.2381   12.2135 H         1 RES1    0.0000
     23 H7         1.2831    4.6125   11.5424 H         1 RES1    0.0000
     24 C9         3.0111    3.8554   10.7183 C.3       1 RES1    0.0000
     25 H8         3.3353    2.9622   10.4394 H         1 RES1    0.0000
     26 H9         2.9355    4.4166    9.9050 H         1 RES1    0.0000
     27 C10        4.0288    4.4777   11.6522 C.3       1 RES1    0.0000
     28 H10        3.6759    5.3449   11.9742 H         1 RES1    0.0000
     29 H11        4.1392    3.8882   12.4402 H         1 RES1    0.0000
     30 C11        5.3845    4.7082   11.0224 C.3       1 RES1    0.0000
     31 H12        5.7195    3.8649   10.6535 H         1 RES1    0.0000
     32 H13        6.0082    5.0393   11.7007 H         1 RES1    0.0000
     33 H14        5.3034    5.3696   10.3045 H         1 RES1    0.0000
@<TRIPOS>BOND
     1    1    8 2
     2    2    8 2
     3    3    9 2
     4    4    9 2
     5    5    6 1
     6    7    5 1
     7    8   14 1
     8    9   11 1
     9   10    5 1
    10   11   10 ar
    11   12   11 ar
    12   13   12 1
    13   14   12 ar
    14   15   14 ar
    15   16   15 1
    16   17   10 ar
    17   18   17 1
    18   19    7 2
    19   20   19 1
    20   21   19 1
    21   22   21 1
    22   23   21 1
    23   24   21 1
    24   25   24 1
    25   26   24 1
    26   27   24 1
    27   28   27 1
    28   29   27 1
    29   30   27 1
    30   31   30 1
    31   32   30 1
    32   33   30 1
    33   15   17 ar
@<TRIPOS>SUBSTRUCTURE
     1 RES1 1

@<TRIPOS>CRYSIN
  31.1620    4.4930   18.7329  90.0000 106.1590  90.0000  15 1

