# MOL2 file generated by ConQuest
# Please check atom types

@<TRIPOS>MOLECULE
DUPJUV
    22    23     1
SMALL
NO_CHARGES
****
Generated from CSD

@<TRIPOS>ATOM
      1 N1        -3.2967    4.0703    8.0730 N.2       1 RES1    0.0000
      2 N2        -2.5256    3.6773    6.9652 N.2       1 RES1    0.0000
      3 N3         0.0176    5.3131    5.4943 N.pl3     1 RES1    0.0000
      4 O1        -1.2602    4.8598    8.3161 O.3       1 RES1    0.0000
      5 O2         1.1267    5.5062    5.0408 O.2       1 RES1    0.0000
      6 O3        -0.9362    6.0351    5.3302 O.2       1 RES1    0.0000
      7 C1        -1.3601    4.1584    7.1542 C.2       1 RES1    0.0000
      8 C2        -2.5161    4.7573    8.8328 C.2       1 RES1    0.0000
      9 C3        -2.8044    5.3918   10.1118 C.ar      1 RES1    0.0000
     10 C4        -1.8425    6.1411   10.7645 C.ar      1 RES1    0.0000
     11 H1        -1.0020    6.2542   10.3831 H         1 RES1    0.0000
     12 C5        -2.1312    6.7205   11.9823 C.ar      1 RES1    0.0000
     13 H2        -1.4794    7.2160   12.4229 H         1 RES1    0.0000
     14 C6        -3.3774    6.5713   12.5514 C.ar      1 RES1    0.0000
     15 H3        -3.5698    6.9724   13.3681 H         1 RES1    0.0000
     16 C7        -4.3338    5.8275   11.9038 C.ar      1 RES1    0.0000
     17 H4        -5.1738    5.7213   12.2873 H         1 RES1    0.0000
     18 C8        -4.0574    5.2372   10.6914 C.ar      1 RES1    0.0000
     19 H5        -4.7105    4.7352   10.2594 H         1 RES1    0.0000
     20 C9        -0.1741    4.0565    6.2885 C.3       1 RES1    0.0000
     21 H6        -0.2788    3.3050    5.6839 H         1 RES1    0.0000
     22 H7         0.6118    3.8960    6.8340 H         1 RES1    0.0000
@<TRIPOS>BOND
     1    1    2 1
     2    2    7 2
     3    3    5 2
     4    4    7 1
     5    6    3 2
     6    7   20 1
     7    8    1 2
     8    9    8 1
     9   10    9 ar
    10   11   10 1
    11   12   10 ar
    12   13   12 1
    13   14   12 ar
    14   15   14 1
    15   16   14 ar
    16   17   16 1
    17   18    9 ar
    18   19   18 1
    19   20    3 1
    20   21   20 1
    21   22   20 1
    22    4    8 1
    23   16   18 ar
@<TRIPOS>SUBSTRUCTURE
     1 RES1 1

@<TRIPOS>CRYSIN
   6.0311    8.0981    9.9218  90.9140  93.4100 109.2610   2 1

