# MOL2 file generated by ConQuest
# Please check atom types

@<TRIPOS>MOLECULE
DUPJAZ
    62    64     2
SMALL
NO_CHARGES
****
Generated from CSD

@<TRIPOS>ATOM
      1 O1        -0.3943    3.7425    0.9887 O.3       1 RES1    0.0000
      2 C1         0.2704    2.9808   -0.0510 C.3       1 RES1    0.0000
      3 C2        -0.7649    2.0288   -0.5912 C.3       1 RES1    0.0000
      4 C3         0.2197    4.8380    1.5029 C.ar      1 RES1    0.0000
      5 C4         1.3419    5.4345    0.9638 C.ar      1 RES1    0.0000
      6 C5         1.8670    6.5438    1.5799 C.ar      1 RES1    0.0000
      7 C6         1.2949    7.0433    2.7170 C.ar      1 RES1    0.0000
      8 C7         0.1760    6.4637    3.2550 C.ar      1 RES1    0.0000
      9 C8        -0.3713    5.3632    2.6491 C.ar      1 RES1    0.0000
     10 N1         1.8726    8.2119    3.3637 N.pl3     1 RES1    0.0000
     11 O2         2.8984    8.6905    2.9016 O.2       1 RES1    0.0000
     12 O3         1.3074    8.6561    4.3547 O.2       1 RES1    0.0000
     13 C9         1.4656    2.2400    0.5006 C.ar      1 RES1    0.0000
     14 C10        1.3703    1.5298    1.6762 C.ar      1 RES1    0.0000
     15 C11        2.4249    0.7725    2.1349 C.ar      1 RES1    0.0000
     16 C12        3.5909    0.7231    1.4157 C.ar      1 RES1    0.0000
     17 C13        3.7137    1.4395    0.2594 C.ar      1 RES1    0.0000
     18 C14        2.6556    2.2015   -0.2027 C.ar      1 RES1    0.0000
     19 O4         1.6135    4.0026    6.7036 O.3       2 RES2    0.0000
     20 C15        1.1065    4.8569    7.7184 C.3       2 RES2    0.0000
     21 C16        0.8232    4.0034    8.9404 C.3       2 RES2    0.0000
     22 C17        2.4475    4.4920    5.7296 C.ar      2 RES2    0.0000
     23 C18        3.1458    5.6703    5.8202 C.ar      2 RES2    0.0000
     24 C19        4.0405    6.0014    4.8247 C.ar      2 RES2    0.0000
     25 C20        4.1854    5.1688    3.7533 C.ar      2 RES2    0.0000
     26 C21        3.4512    4.0146    3.6344 C.ar      2 RES2    0.0000
     27 C22        2.5966    3.6760    4.6322 C.ar      2 RES2    0.0000
     28 N2         5.1086    5.5290    2.6864 N.pl3     2 RES2    0.0000
     29 O5         5.9174    6.4144    2.9005 O.2       2 RES2    0.0000
     30 O6         5.0324    4.9348    1.6309 O.2       2 RES2    0.0000
     31 C23       -0.1260    5.5859    7.2337 C.ar      2 RES2    0.0000
     32 C24       -1.1046    4.9317    6.5269 C.ar      2 RES2    0.0000
     33 C25       -2.2623    5.6094    6.1532 C.ar      2 RES2    0.0000
     34 C26       -2.4270    6.9087    6.5009 C.ar      2 RES2    0.0000
     35 C27       -1.4627    7.5533    7.1861 C.ar      2 RES2    0.0000
     36 C28       -0.3109    6.8970    7.5508 C.ar      2 RES2    0.0000
     37 H1         0.8605    3.5529   -0.7418 H         1 RES1    0.0000
     38 H2        -0.3956    1.5780   -1.3545 H         1 RES1    0.0000
     39 H3        -1.5501    2.5138   -0.8562 H         1 RES1    0.0000
     40 H4        -0.9989    1.3843    0.0793 H         1 RES1    0.0000
     41 H5         1.7465    5.0819    0.1676 H         1 RES1    0.0000
     42 H6         2.6430    6.9717    1.2096 H         1 RES1    0.0000
     43 H7        -0.2219    6.8251    4.0512 H         1 RES1    0.0000
     44 H8        -1.1616    4.9562    3.0115 H         1 RES1    0.0000
     45 H9         0.5578    1.5655    2.1870 H         1 RES1    0.0000
     46 H10        2.3453    0.2786    2.9537 H         1 RES1    0.0000
     47 H11        4.3235    0.1837    1.7238 H         1 RES1    0.0000
     48 H12        4.5361    1.4135   -0.2356 H         1 RES1    0.0000
     49 H13        2.7452    2.7084   -1.0136 H         1 RES1    0.0000
     50 H14        1.7457    5.5367    7.9426 H         2 RES2    0.0000
     51 H15        0.4860    4.5554    9.6505 H         2 RES2    0.0000
     52 H16        1.6087    3.5402    9.2417 H         2 RES2    0.0000
     53 H17        0.1534    3.3650    8.6856 H         2 RES2    0.0000
     54 H18        3.0126    6.2564    6.5688 H         2 RES2    0.0000
     55 H19        4.5574    6.8070    4.8859 H         2 RES2    0.0000
     56 H20        3.5423    3.4564    2.8586 H         2 RES2    0.0000
     57 H21        2.0935    2.8607    4.5733 H         2 RES2    0.0000
     58 H22       -0.9861    4.0089    6.2902 H         2 RES2    0.0000
     59 H23       -2.9412    5.1551    5.6492 H         2 RES2    0.0000
     60 H24       -3.2339    7.3693    6.2574 H         2 RES2    0.0000
     61 H25       -1.5850    8.4760    7.4205 H         2 RES2    0.0000
     62 H26        0.3711    7.3727    8.0298 H         2 RES2    0.0000
@<TRIPOS>BOND
     1    1    2 1
     2    2    3 1
     3    3   38 1
     4    4    1 1
     5    5    4 ar
     6    6    5 ar
     7    7    6 ar
     8    8    7 ar
     9    9    4 ar
    10   10    7 1
    11   11   10 2
    12   12   10 2
    13   13    2 1
    14   14   13 ar
    15   15   14 ar
    16   16   15 ar
    17   17   16 ar
    18   18   13 ar
    19   19   20 1
    20   20   21 1
    21   21   51 1
    22   22   19 1
    23   23   22 ar
    24   24   23 ar
    25   25   24 ar
    26   26   25 ar
    27   27   22 ar
    28   28   25 1
    29   29   28 2
    30   30   28 2
    31   31   20 1
    32   32   31 ar
    33   33   32 ar
    34   34   33 ar
    35   35   34 ar
    36   36   31 ar
    37   37    2 1
    38   39    3 1
    39   40    3 1
    40   41    5 1
    41   42    6 1
    42   43    8 1
    43   44    9 1
    44   45   14 1
    45   46   15 1
    46   47   16 1
    47   48   17 1
    48   49   18 1
    49   50   20 1
    50   52   21 1
    51   53   21 1
    52   54   23 1
    53   55   24 1
    54   56   26 1
    55   57   27 1
    56   58   32 1
    57   59   33 1
    58   60   34 1
    59   61   35 1
    60   62   36 1
    61    8    9 ar
    62   17   18 ar
    63   26   27 ar
    64   35   36 ar
@<TRIPOS>SUBSTRUCTURE
     1 RES1 1
     2 RES2 19

@<TRIPOS>CRYSIN
  10.2680   11.1150   12.3030 112.1500  91.9400 100.1800   2 1

