# MOL2 file generated by ConQuest
# Please check atom types

@<TRIPOS>MOLECULE
DUPJII
    30    30     1
SMALL
NO_CHARGES
****
Generated from CSD

@<TRIPOS>ATOM
      1 O1         4.6080    6.0463   11.1808 O.2       1 RES1    0.0000
      2 O2         5.7216    7.9013   11.0864 O.2       1 RES1    0.0000
      3 O3         7.7971    8.1535    9.5372 O.3       1 RES1    0.0000
      4 H1         7.2363    8.4519   10.1335 H         1 RES1    0.0000
      5 O4         6.8985    2.8740    8.1679 O.3       1 RES1    0.0000
      6 O5         5.2765    3.3160    6.6683 O.2       1 RES1    0.0000
      7 N1         5.5199    6.7267   10.7230 N.pl3     1 RES1    0.0000
      8 C1         6.1725    4.8299    9.3522 C.ar      1 RES1    0.0000
      9 H2         5.4342    4.3484    9.7069 H         1 RES1    0.0000
     10 C2         6.4090    6.1520    9.7309 C.ar      1 RES1    0.0000
     11 C3         7.4821    6.8842    9.2125 C.ar      1 RES1    0.0000
     12 C4         8.3144    6.2453    8.2879 C.ar      1 RES1    0.0000
     13 H3         9.0455    6.7216    7.9115 H         1 RES1    0.0000
     14 C5         8.0926    4.9393    7.9146 C.ar      1 RES1    0.0000
     15 H4         8.6685    4.5183    7.2872 H         1 RES1    0.0000
     16 C6         7.0245    4.2409    8.4594 C.ar      1 RES1    0.0000
     17 C7         5.9703    2.5117    7.2308 C.2       1 RES1    0.0000
     18 C8         5.9954    1.0346    7.0028 C.3       1 RES1    0.0000
     19 H5         6.2480    0.5856    7.8487 H         1 RES1    0.0000
     20 H6         6.6944    0.8279    6.3325 H         1 RES1    0.0000
     21 C9         4.6733    0.4659    6.5229 C.3       1 RES1    0.0000
     22 H7         4.3782    0.9584    5.7166 H         1 RES1    0.0000
     23 H8         3.9882    0.5915    7.2266 H         1 RES1    0.0000
     24 C10        4.7925   -1.0190    6.1924 C.3       1 RES1    0.0000
     25 H9         5.2871   -1.1201    5.3412 H         1 RES1    0.0000
     26 H10        5.3192   -1.4649    6.9024 H         1 RES1    0.0000
     27 C11        3.4481   -1.7106    6.0670 C.3       1 RES1    0.0000
     28 H11        2.9692   -1.6502    6.9202 H         1 RES1    0.0000
     29 H12        3.5863   -2.6529    5.8358 H         1 RES1    0.0000
     30 H13        2.9211   -1.2759    5.3642 H         1 RES1    0.0000
@<TRIPOS>BOND
     1    1    7 2
     2    2    7 2
     3    3    4 1
     4    5   16 1
     5    6   17 2
     6    7   10 1
     7    8    9 1
     8   10    8 ar
     9   11    3 1
    10   12   11 ar
    11   13   12 1
    12   14   12 ar
    13   15   14 1
    14   16    8 ar
    15   17    5 1
    16   18   17 1
    17   19   18 1
    18   20   18 1
    19   21   18 1
    20   22   21 1
    21   23   21 1
    22   24   21 1
    23   25   24 1
    24   26   24 1
    25   27   24 1
    26   28   27 1
    27   29   27 1
    28   30   27 1
    29   10   11 ar
    30   14   16 ar
@<TRIPOS>SUBSTRUCTURE
     1 RES1 1

@<TRIPOS>CRYSIN
   5.3006   10.4350   11.3650  67.3400  81.0740  77.1140   2 1

