# MOL2 file generated by ConQuest
# Please check atom types

@<TRIPOS>MOLECULE
DUPLIK
    40    40     1
SMALL
NO_CHARGES
****
Generated from CSD

@<TRIPOS>ATOM
      1 N1         1.2533    3.5592    1.6742 N.pl3     1 RES1    0.0000
      2 O1         1.4220    2.7001    0.8310 O.2       1 RES1    0.0000
      3 O2         0.9526    3.3176    2.8369 O.2       1 RES1    0.0000
      4 C1         1.4318    4.9628    1.2618 C.ar      1 RES1    0.0000
      5 C2         1.2577    5.9665    2.1821 C.ar      1 RES1    0.0000
      6 H1         1.0157    5.7637    3.0572 H         1 RES1    0.0000
      7 C3         1.4438    7.2630    1.8015 C.ar      1 RES1    0.0000
      8 H2         1.3372    7.9478    2.4232 H         1 RES1    0.0000
      9 C4         1.7946    7.5706    0.4785 C.ar      1 RES1    0.0000
     10 C5         1.9503    6.5373   -0.4259 C.ar      1 RES1    0.0000
     11 H3         2.1712    6.7344   -1.3071 H         1 RES1    0.0000
     12 C6         1.7841    5.2248   -0.0514 C.ar      1 RES1    0.0000
     13 H4         1.9055    4.5333   -0.6609 H         1 RES1    0.0000
     14 C7         2.0214    8.9765   -0.0061 C.2       1 RES1    0.0000
     15 O3         1.8459    9.2090   -1.1884 O.2       1 RES1    0.0000
     16 C8         2.4355   10.1045    0.9289 C.3       1 RES1    0.0000
     17 C9         3.1043   11.2324    0.1187 C.3       1 RES1    0.0000
     18 H5         3.3554   11.9456    0.7098 H         1 RES1    0.0000
     19 H6         2.4868   11.5639   -0.5385 H         1 RES1    0.0000
     20 H7         3.8860   10.8906   -0.3206 H         1 RES1    0.0000
     21 C10        1.1857   10.6638    1.6387 C.3       1 RES1    0.0000
     22 H8         1.4310   11.4272    2.1650 H         1 RES1    0.0000
     23 H9         0.8126    9.9871    2.2103 H         1 RES1    0.0000
     24 H10        0.5340   10.9225    0.9827 H         1 RES1    0.0000
     25 C11        3.4693    9.6362    1.9471 C.2       1 RES1    0.0000
     26 O4         3.5176    9.9905    3.0878 O.2       1 RES1    0.0000
     27 O5         4.3426    8.8330    1.3555 O.3       1 RES1    0.0000
     28 C12        5.4453    8.1619    2.0867 C.3       1 RES1    0.0000
     29 C13        6.0447    7.2744    1.0378 C.3       1 RES1    0.0000
     30 H11        5.3894    6.6387    0.7429 H         1 RES1    0.0000
     31 H12        6.7996    6.8085    1.4050 H         1 RES1    0.0000
     32 H13        6.3313    7.8088    0.2925 H         1 RES1    0.0000
     33 C14        4.8903    7.3542    3.2297 C.3       1 RES1    0.0000
     34 H14        4.2994    6.6786    2.8871 H         1 RES1    0.0000
     35 H15        4.4050    7.9307    3.8233 H         1 RES1    0.0000
     36 H16        5.6109    6.9361    3.7058 H         1 RES1    0.0000
     37 C15        6.4079    9.1998    2.6080 C.3       1 RES1    0.0000
     38 H17        6.6845    9.7706    1.8872 H         1 RES1    0.0000
     39 H18        7.1769    8.7635    2.9837 H         1 RES1    0.0000
     40 H19        5.9757    9.7251    3.2848 H         1 RES1    0.0000
@<TRIPOS>BOND
     1    1    2 2
     2    3    1 2
     3    4    1 1
     4    5    4 ar
     5    6    5 1
     6    7    5 ar
     7    8    7 1
     8    9    7 ar
     9   10    9 ar
    10   11   10 1
    11   12    4 ar
    12   13   12 1
    13   14    9 1
    14   15   14 2
    15   16   14 1
    16   17   16 1
    17   18   17 1
    18   19   17 1
    19   20   17 1
    20   21   16 1
    21   22   21 1
    22   23   21 1
    23   24   21 1
    24   25   16 1
    25   26   25 2
    26   27   25 1
    27   28   27 1
    28   29   28 1
    29   30   29 1
    30   31   29 1
    31   32   29 1
    32   33   28 1
    33   34   33 1
    34   35   33 1
    35   36   33 1
    36   37   28 1
    37   38   37 1
    38   39   37 1
    39   40   37 1
    40   10   12 ar
@<TRIPOS>SUBSTRUCTURE
     1 RES1 1

@<TRIPOS>CRYSIN
  11.3790   11.3930   12.2830  90.0000  94.8800  90.0000  14 1

