# MOL2 file generated by ConQuest
# Please check atom types

@<TRIPOS>MOLECULE
DUQRIS
    92    94     2
SMALL
NO_CHARGES
****
Generated from CSD

@<TRIPOS>ATOM
      1 C1         8.5391    3.4036   -1.6866 C.ar      1 RES1    0.0000
      2 H1         8.6391    3.8961   -2.4704 H         1 RES1    0.0000
      3 C2         8.7913    2.0611   -1.6700 C.ar      1 RES1    0.0000
      4 C3         3.8600    6.6553   10.5604 C.3       1 RES1    0.0000
      5 H2         4.7047    7.1295   10.5241 H         1 RES1    0.0000
      6 H3         3.2211    7.1490   10.0239 H         1 RES1    0.0000
      7 C4         8.3004    1.9461    0.6438 C.ar      1 RES1    0.0000
      8 H4         8.2519    1.4546    1.4322 H         1 RES1    0.0000
      9 C5         8.6893    1.3199   -0.5215 C.ar      1 RES1    0.0000
     10 H5         8.8796    0.4100   -0.5277 H         1 RES1    0.0000
     11 C6         3.3752    6.6297   11.9975 C.3       1 RES1    0.0000
     12 H6         3.2190    7.5281   12.2990 H         1 RES1    0.0000
     13 H7         4.0407    6.2174   12.5525 H         1 RES1    0.0000
     14 H8         2.5582    6.1276   12.0506 H         1 RES1    0.0000
     15 C7         5.1182    0.3066    6.6182 C.3       1 RES1    0.0000
     16 H9         4.7511   -0.2923    7.2725 H         1 RES1    0.0000
     17 H10        6.0423    0.0931    6.4707 H         1 RES1    0.0000
     18 H11        4.6328    0.2151    5.7940 H         1 RES1    0.0000
     19 C8         8.1326    4.0171   -0.5160 C.ar      1 RES1    0.0000
     20 H12        7.9567    4.9305   -0.5174 H         1 RES1    0.0000
     21 C9         5.4215    2.6583    6.2492 C.ar      1 RES1    0.0000
     22 C10        7.7087    5.3520    2.0178 C.1       1 RES1    0.0000
     23 C11        4.0468    5.2716    9.9516 C.3       1 RES1    0.0000
     24 H13        4.6156    4.7374   10.5275 H         1 RES1    0.0000
     25 H14        3.1868    4.8285    9.8834 H         1 RES1    0.0000
     26 C12        7.9805    3.2956    0.6615 C.ar      1 RES1    0.0000
     27 C13        5.7435    5.0239    6.0003 C.ar      1 RES1    0.0000
     28 H15        5.6743    5.8884    6.3371 H         1 RES1    0.0000
     29 C14        6.2624    4.8267    4.7303 C.ar      1 RES1    0.0000
     30 H16        6.5514    5.5581    4.2333 H         1 RES1    0.0000
     31 C15        7.4939    3.9333    1.9136 C.2       1 RES1    0.0000
     32 C16        5.9090    2.4739    4.9813 C.ar      1 RES1    0.0000
     33 H17        5.9465    1.6125    4.6325 H         1 RES1    0.0000
     34 C17        5.3275    3.9586    6.7746 C.ar      1 RES1    0.0000
     35 C18        6.3552    3.5547    4.1918 C.ar      1 RES1    0.0000
     36 C19        6.8788    3.2195    2.8847 C.2       1 RES1    0.0000
     37 H18        6.7698    2.3225    2.6657 H         1 RES1    0.0000
     38 C20        4.6702    5.3770    8.5851 C.3       1 RES1    0.0000
     39 H19        4.1083    5.9176    8.0074 H         1 RES1    0.0000
     40 H20        5.5380    5.8045    8.6516 H         1 RES1    0.0000
     41 N1         9.1601    1.3642   -2.9152 N.pl3     1 RES1    0.0000
     42 N2         7.9024    6.4752    2.0473 N.1       1 RES1    0.0000
     43 O1         9.1334    0.1675   -2.9321 O.2       1 RES1    0.0000
     44 O2         9.5572    2.0059   -3.8410 O.2       1 RES1    0.0000
     45 O3         5.0092    1.6574    7.0905 O.3       1 RES1    0.0000
     46 O4         4.8161    4.0574    8.0294 O.3       1 RES1    0.0000
     47 C21        3.1633   -3.6615   15.4314 C.1       2 RES2    0.0000
     48 C22        6.1628   -4.9213    5.0899 C.3       2 RES2    0.0000
     49 H21        6.4039   -5.8105    4.8192 H         2 RES2    0.0000
     50 H22        6.9119   -4.3343    4.9631 H         2 RES2    0.0000
     51 H23        5.4231   -4.6148    4.5605 H         2 RES2    0.0000
     52 C23        4.2328   -3.2778   11.2049 C.ar      2 RES2    0.0000
     53 H24        4.4132   -4.1402   10.9062 H         2 RES2    0.0000
     54 C24        5.7696   -4.9285    6.5492 C.3       2 RES2    0.0000
     55 H25        6.5113   -5.2683    7.0738 H         2 RES2    0.0000
     56 H26        5.0205   -5.5332    6.6694 H         2 RES2    0.0000
     57 C25        3.9986    1.4081   10.3005 C.3       2 RES2    0.0000
     58 H27        4.0962    2.0076    9.5579 H         2 RES2    0.0000
     59 H28        4.6796    1.5926   10.9524 H         2 RES2    0.0000
     60 H29        3.1338    1.5300   10.6989 H         2 RES2    0.0000
     61 C26        3.6995   -0.7375   12.1023 C.ar      2 RES2    0.0000
     62 H30        3.5152    0.1235   12.4018 H         2 RES2    0.0000
     63 C27        3.6245   -1.8107   13.0106 C.ar      2 RES2    0.0000
     64 C28        2.9300   -0.3067   17.0781 C.ar      2 RES2    0.0000
     65 H31        3.3178    0.2361   16.4312 H         2 RES2    0.0000
     66 C29        3.8967   -3.0777   12.5224 C.ar      2 RES2    0.0000
     67 H32        3.8506   -3.8073   13.0973 H         2 RES2    0.0000
     68 C30        3.2761   -1.4789   14.3807 C.2       2 RES2    0.0000
     69 H33        3.1632   -0.5677   14.5261 H         2 RES2    0.0000
     70 C31        3.0840   -2.2308   15.4841 C.2       2 RES2    0.0000
     71 C32        2.5533    0.2430   18.2795 C.ar      2 RES2    0.0000
     72 H34        2.6796    1.1500   18.4442 H         2 RES2    0.0000
     73 C33        4.9423   -3.6473    8.5053 C.3       2 RES2    0.0000
     74 H35        4.1501   -4.2032    8.5694 H         2 RES2    0.0000
     75 H36        5.6422   -4.0550    9.0388 H         2 RES2    0.0000
     76 C34        2.2194   -2.4585   17.8266 C.ar      2 RES2    0.0000
     77 H37        2.1318   -3.3739   17.6887 H         2 RES2    0.0000
     78 C35        1.8292   -1.9102   19.0328 C.ar      2 RES2    0.0000
     79 H38        1.4644   -2.4480   19.6982 H         2 RES2    0.0000
     80 C36        4.3093   -2.2232   10.3163 C.ar      2 RES2    0.0000
     81 C37        5.3830   -3.5545    7.0746 C.3       2 RES2    0.0000
     82 H39        6.1431   -2.9550    7.0069 H         2 RES2    0.0000
     83 H40        4.6633   -3.1906    6.5358 H         2 RES2    0.0000
     84 C38        1.9860   -0.5701   19.2382 C.ar      2 RES2    0.0000
     85 C39        2.7442   -1.6566   16.8091 C.ar      2 RES2    0.0000
     86 C40        4.0383   -0.9301   10.7849 C.ar      2 RES2    0.0000
     87 N3         3.2015   -4.8003   15.4348 N.1       2 RES2    0.0000
     88 N4         1.5319    0.0400   20.4971 N.pl3     2 RES2    0.0000
     89 O5         0.9494   -0.6697   21.3030 O.2       2 RES2    0.0000
     90 O6         1.7541    1.2280   20.6763 O.2       2 RES2    0.0000
     91 O7         4.1269    0.0635    9.8467 O.3       2 RES2    0.0000
     92 O8         4.6537   -2.3290    9.0052 O.3       2 RES2    0.0000
@<TRIPOS>BOND
     1    1    2 1
     2    3    1 ar
     3    4    5 1
     4    6    4 1
     5    7    8 1
     6    9    3 ar
     7   10    9 1
     8   11    4 1
     9   12   11 1
    10   13   11 1
    11   14   11 1
    12   15   16 1
    13   17   15 1
    14   18   15 1
    15   19    1 ar
    16   20   19 1
    17   21   32 ar
    18   22   31 1
    19   23    4 1
    20   24   23 1
    21   25   23 1
    22   26    7 ar
    23   27   28 1
    24   29   27 ar
    25   30   29 1
    26   31   26 1
    27   32   33 1
    28   34   21 ar
    29   35   29 ar
    30   36   31 2
    31   37   36 1
    32   38   23 1
    33   39   38 1
    34   40   38 1
    35   41    3 1
    36   42   22 3
    37   43   41 2
    38   44   41 2
    39   45   15 1
    40   46   34 1
    41   47   70 1
    42   48   49 1
    43   50   48 1
    44   51   48 1
    45   52   53 1
    46   54   48 1
    47   55   54 1
    48   56   54 1
    49   57   58 1
    50   59   57 1
    51   60   57 1
    52   61   62 1
    53   63   61 ar
    54   64   65 1
    55   66   52 ar
    56   67   66 1
    57   68   63 1
    58   69   68 1
    59   70   68 2
    60   71   64 ar
    61   72   71 1
    62   73   74 1
    63   75   73 1
    64   76   77 1
    65   78   76 ar
    66   79   78 1
    67   80   52 ar
    68   81   54 1
    69   82   81 1
    70   83   81 1
    71   84   71 ar
    72   85   64 ar
    73   86   61 ar
    74   87   47 3
    75   88   84 1
    76   89   88 2
    77   90   88 2
    78   91   57 1
    79   92   73 1
    80    7    9 ar
    81   19   26 ar
    82   21   45 1
    83   27   34 ar
    84   32   35 ar
    85   35   36 1
    86   38   46 1
    87   63   66 ar
    88   70   85 1
    89   73   81 1
    90   76   85 ar
    91   78   84 ar
    92   80   86 ar
    93   80   92 1
    94   86   91 1
@<TRIPOS>SUBSTRUCTURE
     1 RES1 1
     2 RES2 47

@<TRIPOS>CRYSIN
   7.6575   13.7460   18.0512 107.2070  95.4920  92.4410   2 1

