# MOL2 file generated by ConQuest
# Please check atom types

@<TRIPOS>MOLECULE
DURDID
    20    20     1
SMALL
USER_CHARGES
****
Generated from CSD

@<TRIPOS>ATOM
      1 C1         4.0550   -1.5655    8.8660 C.2       1 RES1    0.0000
      2 C2         4.1320   -2.3410    9.9174 C.2       1 RES1    0.0000
      3 C3         4.2197   -1.5453   11.1744 C.3       1 RES1    0.0000
      4 C4         3.9778   -1.7896    7.4104 C.3       1 RES1    0.0000
      5 C5         5.5600   -1.6980   11.8814 C.3       1 RES1    0.0000
      6 C6         3.0406   -1.7458   12.1171 C.3       1 RES1    0.0000
      7 N1         4.1536   -0.1625   10.6235 N.pl3     1 RES1    1.0000
      8 N2         4.0576   -0.1943    9.3162 N.pl3     1 RES1    1.0000
      9 O1         4.1804    0.9150   11.2856 O.2       1 RES1   -1.0000
     10 O2         4.0011    0.8419    8.6048 O.2       1 RES1   -1.0000
     11 H1         4.1048   -3.2876    9.9306 H         1 RES1    0.0000
     12 H2         4.0083   -2.7535    7.2736 H         1 RES1    0.0000
     13 H3         3.2112   -1.5530    7.0794 H         1 RES1    0.0000
     14 H4         4.8631   -1.4773    6.9647 H         1 RES1    0.0000
     15 H5         5.5870   -1.0602   12.6582 H         1 RES1    0.0000
     16 H6         6.2955   -1.3903   11.2547 H         1 RES1    0.0000
     17 H7         5.6786   -2.7101   12.1639 H         1 RES1    0.0000
     18 H8         3.0823   -1.0979   12.8259 H         1 RES1    0.0000
     19 H9         2.9605   -2.7729   12.4817 H         1 RES1    0.0000
     20 H10        2.2916   -1.6174   11.6784 H         1 RES1    0.0000
@<TRIPOS>BOND
     1    1    2 2
     2    2    3 1
     3    3    5 1
     4    4    1 1
     5    5   15 1
     6    6    3 1
     7    7    3 1
     8    8    1 1
     9    9    7 1
    10   10    8 1
    11   11    2 1
    12   12    4 1
    13   13    4 1
    14   14    4 1
    15   16    5 1
    16   17    5 1
    17   18    6 1
    18   19    6 1
    19   20    6 1
    20    7    8 2
@<TRIPOS>SUBSTRUCTURE
     1 RES1 1

@<TRIPOS>CRYSIN
   6.6180    6.3200    8.8720  89.8600  95.7600  90.7600   2 1

