# MOL2 file generated by ConQuest
# Please check atom types

@<TRIPOS>MOLECULE
DUSCEA
    66    70     2
SMALL
NO_CHARGES
****
Generated from CSD

@<TRIPOS>ATOM
      1 O1         3.6226    5.1221   -1.5857 O.2       1 RES1    0.0000
      2 O2         9.1417    7.0345   -3.7526 O.2       1 RES1    0.0000
      3 O3         9.1829    7.9050   -1.7725 O.2       1 RES1    0.0000
      4 O4         0.6471    8.3082   14.9316 O.2       2 RES2    0.0000
      5 O5         1.1082    9.1421   12.9800 O.2       2 RES2    0.0000
      6 O6         2.9317    3.2221   12.2042 O.2       2 RES2    0.0000
      7 N1         8.6195    7.2446   -2.6520 N.pl3     1 RES1    0.0000
      8 N2         3.7945    6.2384    0.8501 N.3       1 RES1    0.0000
      9 N3         1.3501    5.2520    1.4074 N.ar      1 RES1    0.0000
     10 N4         1.0640    8.1908   13.7695 N.pl3     2 RES2    0.0000
     11 N5         3.4713    4.2307    9.8788 N.3       2 RES2    0.0000
     12 N6         4.2552    1.7334    9.3799 N.ar      2 RES2    0.0000
     13 C1         4.7397    5.6335   -1.8540 C.2       1 RES1    0.0000
     14 C2         5.3799    5.4929   -3.1430 C.2       1 RES1    0.0000
     15 C3         6.6112    6.0061   -3.4032 C.2       1 RES1    0.0000
     16 C4         7.3125    6.7123   -2.3854 C.2       1 RES1    0.0000
     17 C5         6.7524    6.9235   -1.1564 C.2       1 RES1    0.0000
     18 C6         5.4742    6.4127   -0.8668 C.2       1 RES1    0.0000
     19 C7         4.9525    6.6683    0.4165 C.2       1 RES1    0.0000
     20 C8         3.2713    6.4833    2.1404 C.ar      1 RES1    0.0000
     21 C9         3.9417    7.2035    3.1030 C.ar      1 RES1    0.0000
     22 C10        3.3470    7.4261    4.3563 C.ar      1 RES1    0.0000
     23 C11        2.1034    6.9273    4.6480 C.ar      1 RES1    0.0000
     24 C12        1.3962    6.1786    3.6816 C.ar      1 RES1    0.0000
     25 C13        1.9734    5.9512    2.4050 C.ar      1 RES1    0.0000
     26 C14        0.1065    5.6354    3.9071 C.ar      1 RES1    0.0000
     27 C15       -0.5114    4.9299    2.9184 C.ar      1 RES1    0.0000
     28 C16        0.1528    4.7651    1.6799 C.ar      1 RES1    0.0000
     29 C17        2.4789    4.3510   12.5508 C.2       2 RES2    0.0000
     30 C18        1.9099    4.5800   13.8554 C.2       2 RES2    0.0000
     31 C19        1.4578    5.8032   14.2382 C.2       2 RES2    0.0000
     32 C20        1.5189    6.8935   13.3328 C.2       2 RES2    0.0000
     33 C21        2.0112    6.7422   12.0627 C.2       2 RES2    0.0000
     34 C22        2.4979    5.4926   11.6471 C.2       2 RES2    0.0000
     35 C23        3.0026    5.3621   10.3370 C.2       2 RES2    0.0000
     36 C24        3.9566    3.9705    8.5824 C.ar      2 RES2    0.0000
     37 C25        4.0248    4.9130    7.5828 C.ar      2 RES2    0.0000
     38 C26        4.5109    4.5480    6.3141 C.ar      2 RES2    0.0000
     39 C27        4.9200    3.2672    6.0510 C.ar      2 RES2    0.0000
     40 C28        4.8457    2.2739    7.0604 C.ar      2 RES2    0.0000
     41 C29        4.3593    2.6222    8.3430 C.ar      2 RES2    0.0000
     42 C30        5.2334    0.9199    6.8624 C.ar      2 RES2    0.0000
     43 C31        5.1302    0.0410    7.8989 C.ar      2 RES2    0.0000
     44 C32        4.6379    0.4895    9.1485 C.ar      2 RES2    0.0000
     45 H1         4.9236    5.0255   -3.8328 H         1 RES1    0.0000
     46 H2         3.3048    5.7611    0.2967 H         1 RES1    0.0000
     47 H3         7.0025    5.8939   -4.2614 H         1 RES1    0.0000
     48 H4         7.2268    7.4164   -0.4967 H         1 RES1    0.0000
     49 H5         3.4852    3.5565   10.4436 H         2 RES2    0.0000
     50 H6         5.4794    7.1905    1.0110 H         1 RES1    0.0000
     51 H7         4.8068    7.5504    2.9208 H         1 RES1    0.0000
     52 H8         3.8140    7.9304    5.0130 H         1 RES1    0.0000
     53 H9         1.7170    7.0856    5.5009 H         1 RES1    0.0000
     54 H10       -0.3251    5.7626    4.7427 H         1 RES1    0.0000
     55 H11       -1.3734    4.5554    3.0592 H         1 RES1    0.0000
     56 H12       -0.2917    4.2723    1.0000 H         1 RES1    0.0000
     57 H13        1.8494    3.8544   14.4655 H         2 RES2    0.0000
     58 H14        1.1014    5.9275   15.1094 H         2 RES2    0.0000
     59 H15        2.0229    7.4809   11.4656 H         2 RES2    0.0000
     60 H16        3.0017    6.1223    9.7689 H         2 RES2    0.0000
     61 H17        3.7448    5.8053    7.7492 H         2 RES2    0.0000
     62 H18        4.5565    5.2023    5.6262 H         2 RES2    0.0000
     63 H19        5.2539    3.0439    5.1910 H         2 RES2    0.0000
     64 H20        5.5601    0.6314    6.0174 H         2 RES2    0.0000
     65 H21        5.3870   -0.8667    7.7844 H         2 RES2    0.0000
     66 H22        4.5795   -0.1378    9.8590 H         2 RES2    0.0000
@<TRIPOS>BOND
     1    1   13 2
     2    2    7 2
     3    3    7 2
     4    4   10 2
     5    5   10 2
     6    6   29 2
     7    7   16 1
     8    8   19 1
     9    9   25 ar
    10   10   32 1
    11   11   35 1
    12   12   41 ar
    13   13   14 1
    14   14   15 2
    15   15   16 1
    16   16   17 2
    17   17   18 1
    18   18   13 1
    19   19   18 2
    20   20    8 1
    21   21   20 ar
    22   22   21 ar
    23   23   22 ar
    24   24   23 ar
    25   25   20 ar
    26   26   24 ar
    27   27   26 ar
    28   28    9 ar
    29   29   30 1
    30   30   31 2
    31   31   32 1
    32   32   33 2
    33   33   34 1
    34   34   29 1
    35   35   34 2
    36   36   11 1
    37   37   36 ar
    38   38   37 ar
    39   39   38 ar
    40   40   39 ar
    41   41   36 ar
    42   42   40 ar
    43   43   42 ar
    44   44   12 ar
    45   45   14 1
    46   46    8 1
    47   47   15 1
    48   48   17 1
    49   49   11 1
    50   50   19 1
    51   51   21 1
    52   52   22 1
    53   53   23 1
    54   54   26 1
    55   55   27 1
    56   56   28 1
    57   57   30 1
    58   58   31 1
    59   59   33 1
    60   60   35 1
    61   61   37 1
    62   62   38 1
    63   63   39 1
    64   64   42 1
    65   65   43 1
    66   66   44 1
    67   24   25 ar
    68   27   28 ar
    69   40   41 ar
    70   43   44 ar
@<TRIPOS>SUBSTRUCTURE
     1 RES1 1
     2 RES2 4

@<TRIPOS>CRYSIN
   7.1583    8.2978   22.0400  87.4320  86.2580  83.5180   2 1

