# MOL2 file generated by ConQuest
# Please check atom types

@<TRIPOS>MOLECULE
DUSNUB01
    58    60     2
SMALL
NO_CHARGES
****
Generated from CSD

@<TRIPOS>ATOM
      1 C1        12.5732    0.1137   15.6374 C.ar      1 RES1    0.0000
      2 C2        12.6748   -1.2538   15.4037 C.ar      1 RES1    0.0000
      3 H1        12.2946   -1.6301   14.6187 H         1 RES1    0.0000
      4 C3        13.3280   -2.0687   16.3122 C.ar      1 RES1    0.0000
      5 H2        13.3898   -3.0027   16.1471 H         1 RES1    0.0000
      6 C4        13.8914   -1.5330   17.4593 C.ar      1 RES1    0.0000
      7 H3        14.3383   -2.0932   18.0823 H         1 RES1    0.0000
      8 C5        13.7955   -0.1734   17.6844 C.ar      1 RES1    0.0000
      9 H4        14.1878    0.1985   18.4654 H         1 RES1    0.0000
     10 C6        13.1397    0.6577   16.7932 C.ar      1 RES1    0.0000
     11 H5        13.0755    1.5892   16.9649 H         1 RES1    0.0000
     12 C7        11.1346    2.9143   14.0395 C.2       1 RES1    0.0000
     13 H6        10.7518    2.4987   13.2769 H         1 RES1    0.0000
     14 C8        11.0011    4.3515   14.2608 C.ar      1 RES1    0.0000
     15 C9        11.7857    4.9669   15.2511 C.ar      1 RES1    0.0000
     16 H7        12.3841    4.4331   15.7600 H         1 RES1    0.0000
     17 C10       11.7169    6.3177   15.5074 C.ar      1 RES1    0.0000
     18 H8        12.2622    6.6948   16.1888 H         1 RES1    0.0000
     19 C11       10.8625    7.1326   14.7841 C.ar      1 RES1    0.0000
     20 H9        10.8089    8.0626   14.9720 H         1 RES1    0.0000
     21 C12       10.0932    6.5795   13.7908 C.ar      1 RES1    0.0000
     22 H10        9.5100    7.1290   13.2789 H         1 RES1    0.0000
     23 C13       10.1667    5.2160   13.5348 C.ar      1 RES1    0.0000
     24 O1         8.9252    3.5601   12.4578 O.2       1 RES1    0.0000
     25 O2         9.0132    5.5164   11.5584 O.2       1 RES1    0.0000
     26 N1        11.9201    0.9054   14.6979 N.pl3     1 RES1    0.0000
     27 N2        11.7889    2.2264   14.9127 N.2       1 RES1    0.0000
     28 N3         9.3130    4.7273   12.4480 N.pl3     1 RES1    0.0000
     29 H11       11.4927    0.5233   14.0133 H         1 RES1    0.0000
     30 C14       12.5117    8.5256   10.8784 C.ar      2 RES2    0.0000
     31 C15       12.4159    7.1405   10.7833 C.ar      2 RES2    0.0000
     32 H12       11.9194    6.7453   10.0753 H         2 RES2    0.0000
     33 C16       13.0444    6.3388   11.7202 C.ar      2 RES2    0.0000
     34 H13       12.9784    5.3943   11.6493 H         2 RES2    0.0000
     35 C17       13.7671    6.8969   12.7575 C.ar      2 RES2    0.0000
     36 H14       14.2050    6.3423   13.3921 H         2 RES2    0.0000
     37 C18       13.8427    8.2750   12.8577 C.ar      2 RES2    0.0000
     38 H15       14.3288    8.6653   13.5747 H         2 RES2    0.0000
     39 C19       13.2210    9.0943   11.9312 C.ar      2 RES2    0.0000
     40 H16       13.2793   10.0391   12.0145 H         2 RES2    0.0000
     41 C20       11.1969   11.2888    9.1208 C.2       2 RES2    0.0000
     42 H17       10.7404   10.8379    8.4199 H         2 RES2    0.0000
     43 C21       11.1474   12.7431    9.2367 C.ar      2 RES2    0.0000
     44 C22       12.0395   13.3798   10.1196 C.ar      2 RES2    0.0000
     45 H18       12.6641   12.8493   10.6013 H         2 RES2    0.0000
     46 C23       12.0401   14.7375   10.3101 C.ar      2 RES2    0.0000
     47 H19       12.6603   15.1266   10.9149 H         2 RES2    0.0000
     48 C24       11.1455   15.5485    9.6275 C.ar      2 RES2    0.0000
     49 H20       11.1423   16.4873    9.7716 H         2 RES2    0.0000
     50 C25       10.2657   14.9784    8.7411 C.ar      2 RES2    0.0000
     51 H21        9.6509   15.5236    8.2631 H         2 RES2    0.0000
     52 C26       10.2760   13.6010    8.5436 C.ar      2 RES2    0.0000
     53 O3         8.9679   11.9229    7.5859 O.2       2 RES2    0.0000
     54 O4         8.7984   13.9155    6.7923 O.2       2 RES2    0.0000
     55 N4        11.8942    9.2954    9.8933 N.pl3     2 RES2    0.0000
     56 N5        11.8771   10.6346    9.9965 N.2       2 RES2    0.0000
     57 N6         9.2866   13.1099    7.5781 N.pl3     2 RES2    0.0000
     58 H22       11.4394    8.8902    9.2476 H         2 RES2    0.0000
@<TRIPOS>BOND
     1    1    2 ar
     2    2    3 1
     3    4    2 ar
     4    5    4 1
     5    6    4 ar
     6    7    6 1
     7    8    6 ar
     8    9    8 1
     9   10    1 ar
    10   11   10 1
    11   12   13 1
    12   14   12 1
    13   15   14 ar
    14   16   15 1
    15   17   15 ar
    16   18   17 1
    17   19   17 ar
    18   20   19 1
    19   21   19 ar
    20   22   21 1
    21   23   14 ar
    22   24   28 2
    23   25   28 2
    24   26    1 1
    25   27   12 2
    26   28   23 1
    27   29   26 1
    28   30   31 ar
    29   31   32 1
    30   33   31 ar
    31   34   33 1
    32   35   33 ar
    33   36   35 1
    34   37   35 ar
    35   38   37 1
    36   39   30 ar
    37   40   39 1
    38   41   42 1
    39   43   41 1
    40   44   43 ar
    41   45   44 1
    42   46   44 ar
    43   47   46 1
    44   48   46 ar
    45   49   48 1
    46   50   48 ar
    47   51   50 1
    48   52   43 ar
    49   53   57 2
    50   54   57 2
    51   55   30 1
    52   56   41 2
    53   57   52 1
    54   58   55 1
    55    8   10 ar
    56   21   23 ar
    57   26   27 1
    58   37   39 ar
    59   50   52 ar
    60   55   56 1
@<TRIPOS>SUBSTRUCTURE
     1 RES1 1
     2 RES2 30

@<TRIPOS>CRYSIN
  19.0466   12.0301   19.8489  90.0000  90.0000  90.0000  61 1

