# MOL2 file generated by ConQuest
# Please check atom types

@<TRIPOS>MOLECULE
DUSNUB
    58    60     2
SMALL
NO_CHARGES
****
Generated from CSD

@<TRIPOS>ATOM
      1 O1        -0.5369    5.9081   -2.3537 O.2       1 RES1    0.0000
      2 O2        -0.7419    7.8679   -3.1718 O.2       1 RES1    0.0000
      3 N1         2.4196    3.3382   -0.0483 N.3       1 RES1    0.0000
      4 N2         2.3931    4.6841    0.0441 N.2       1 RES1    0.0000
      5 N3        -0.2346    7.0938   -2.3848 N.pl3     1 RES1    0.0000
      6 C1         3.0593    2.5800    0.9278 C.ar      1 RES1    0.0000
      7 C2         2.9666    1.2060    0.8516 C.ar      1 RES1    0.0000
      8 C3         3.6094    0.4116    1.7787 C.ar      1 RES1    0.0000
      9 C4         4.3418    0.9685    2.7879 C.ar      1 RES1    0.0000
     10 C5         4.4212    2.3353    2.8687 C.ar      1 RES1    0.0000
     11 C6         3.7840    3.1500    1.9534 C.ar      1 RES1    0.0000
     12 C7         1.7043    5.3289   -0.8275 C.2       1 RES1    0.0000
     13 C8         1.6337    6.7821   -0.7346 C.ar      1 RES1    0.0000
     14 C9         0.7584    7.6124   -1.4380 C.ar      1 RES1    0.0000
     15 C10        0.7452    8.9885   -1.2717 C.ar      1 RES1    0.0000
     16 C11        1.6280    9.5829   -0.4091 C.ar      1 RES1    0.0000
     17 C12        2.5190    8.7966    0.2828 C.ar      1 RES1    0.0000
     18 C13        2.5250    7.4415    0.1286 C.ar      1 RES1    0.0000
     19 H1         2.0397    2.9472   -0.7134 H         1 RES1    0.0000
     20 H2         2.4685    0.8131    0.1717 H         1 RES1    0.0000
     21 H3         3.5430   -0.5138    1.7157 H         1 RES1    0.0000
     22 H4         4.7787    0.4310    3.4084 H         1 RES1    0.0000
     23 H5         4.9149    2.7226    3.5552 H         1 RES1    0.0000
     24 H6         3.8430    4.0752    2.0280 H         1 RES1    0.0000
     25 H7         1.2580    4.8763   -1.5064 H         1 RES1    0.0000
     26 H8         0.1372    9.5083   -1.7460 H         1 RES1    0.0000
     27 H9         1.6247   10.5057   -0.2930 H         1 RES1    0.0000
     28 H10        3.1261    9.1951    0.8642 H         1 RES1    0.0000
     29 H11        3.1395    6.9370    0.6111 H         1 RES1    0.0000
     30 O3        10.3043    3.4913    2.6192 O.2       2 RES2    0.0000
     31 O4        10.2573    5.4093    1.6722 O.2       2 RES2    0.0000
     32 N4         7.2577    0.9019    4.8189 N.3       2 RES2    0.0000
     33 N5         7.3862    2.2278    5.0203 N.2       2 RES2    0.0000
     34 N6         9.9228    4.6500    2.5709 N.pl3     2 RES2    0.0000
     35 C14        6.5851    0.1178    5.7577 C.ar      2 RES2    0.0000
     36 C15        6.0069    0.6644    6.8912 C.ar      2 RES2    0.0000
     37 C16        5.3433   -0.1586    7.7805 C.ar      2 RES2    0.0000
     38 C17        5.2510   -1.5121    7.5635 C.ar      2 RES2    0.0000
     39 C18        5.8224   -2.0504    6.4370 C.ar      2 RES2    0.0000
     40 C19        6.4865   -1.2436    5.5339 C.ar      2 RES2    0.0000
     41 C20        8.0540    2.9000    4.1559 C.2       2 RES2    0.0000
     42 C21        8.1945    4.3375    4.3446 C.ar      2 RES2    0.0000
     43 C22        9.0486    5.1735    3.6222 C.ar      2 RES2    0.0000
     44 C23        9.1306    6.5350    3.8474 C.ar      2 RES2    0.0000
     45 C24        8.3503    7.1174    4.8073 C.ar      2 RES2    0.0000
     46 C25        7.4814    6.3293    5.5313 C.ar      2 RES2    0.0000
     47 C26        7.4052    4.9816    5.3037 C.ar      2 RES2    0.0000
     48 H12        7.5895    0.5393    4.1132 H         2 RES2    0.0000
     49 H13        6.0651    1.5784    7.0527 H         2 RES2    0.0000
     50 H14        4.9522    0.2105    8.5394 H         2 RES2    0.0000
     51 H15        4.8069   -2.0573    8.1722 H         2 RES2    0.0000
     52 H16        5.7618   -2.9651    6.2810 H         2 RES2    0.0000
     53 H17        6.8685   -1.6169    4.7728 H         2 RES2    0.0000
     54 H18        8.4409    2.4778    3.4231 H         2 RES2    0.0000
     55 H19        9.7168    7.0548    3.3460 H         2 RES2    0.0000
     56 H20        8.4046    8.0316    4.9691 H         2 RES2    0.0000
     57 H21        6.9413    6.7170    6.1815 H         2 RES2    0.0000
     58 H22        6.8068    4.4757    5.8046 H         2 RES2    0.0000
@<TRIPOS>BOND
     1    1    5 2
     2    2    5 2
     3    3    4 1
     4    4   12 2
     5    5   14 1
     6    6    3 1
     7    7    6 ar
     8    8    7 ar
     9    9    8 ar
    10   10    9 ar
    11   11    6 ar
    12   12   13 1
    13   13   14 ar
    14   14   15 ar
    15   15   16 ar
    16   16   17 ar
    17   17   18 ar
    18   18   13 ar
    19   19    3 1
    20   20    7 1
    21   21    8 1
    22   22    9 1
    23   23   10 1
    24   24   11 1
    25   25   12 1
    26   26   15 1
    27   27   16 1
    28   28   17 1
    29   29   18 1
    30   30   34 2
    31   31   34 2
    32   32   33 1
    33   33   41 2
    34   34   43 1
    35   35   32 1
    36   36   35 ar
    37   37   36 ar
    38   38   37 ar
    39   39   38 ar
    40   40   35 ar
    41   41   42 1
    42   42   43 ar
    43   43   44 ar
    44   44   45 ar
    45   45   46 ar
    46   46   47 ar
    47   47   42 ar
    48   48   32 1
    49   49   36 1
    50   50   37 1
    51   51   38 1
    52   52   39 1
    53   53   40 1
    54   54   41 1
    55   55   44 1
    56   56   45 1
    57   57   46 1
    58   58   47 1
    59   10   11 ar
    60   39   40 ar
@<TRIPOS>SUBSTRUCTURE
     1 RES1 1
     2 RES2 30

@<TRIPOS>CRYSIN
  19.4021   12.1065   20.0554  90.0000  90.0000  90.0000  61 1

