# MOL2 file generated by ConQuest
# Please check atom types

@<TRIPOS>MOLECULE
DUSTER
    82    88     2
SMALL
USER_CHARGES
****
Generated from CSD

@<TRIPOS>ATOM
      1 O1         5.6242    2.7568    5.2121 O.2       1 RES1   -1.0000
      2 O2         6.3473   -1.6404    4.0315 O.3       1 RES1    0.0000
      3 H1         6.2605   -1.6100    4.9245 H         1 RES1    0.0000
      4 O3         0.6798    8.7246    5.3187 O.2       2 RES2   -1.0000
      5 O4         0.1241    4.4093    3.9146 O.3       2 RES2    0.0000
      6 H2         0.0381    4.3705    4.8885 H         2 RES2    0.0000
      7 N1         6.1928    1.6812    4.7036 N.pl3     1 RES1    1.0000
      8 N2         0.1916    7.6784    4.7436 N.pl3     2 RES2    1.0000
      9 C1         7.5816    1.4083    4.8873 C.ar      1 RES1    0.0000
     10 C2         8.4656    2.2113    5.5229 C.ar      1 RES1    0.0000
     11 H3         8.2263    3.0316    5.8902 H         1 RES1    0.0000
     12 C3         9.7568    1.7140    5.5816 C.ar      1 RES1    0.0000
     13 H4        10.4138    2.2229    5.9995 H         1 RES1    0.0000
     14 C4        10.1111    0.4803    5.0386 C.ar      1 RES1    0.0000
     15 H5        10.9873    0.1800    5.1179 H         1 RES1    0.0000
     16 C5         9.1945   -0.2926    4.3937 C.ar      1 RES1    0.0000
     17 H6         9.4225   -1.1130    4.0213 H         1 RES1    0.0000
     18 C6         7.9152    0.2013    4.3204 C.ar      1 RES1    0.0000
     19 C7         6.7304   -0.3270    3.6236 C.3       1 RES1    0.0000
     20 C8         5.6521    0.7228    4.0003 C.2       1 RES1    0.0000
     21 C9         4.2719    0.7023    3.6121 C.ar      1 RES1    0.0000
     22 C10        3.4032    1.7898    3.7749 C.ar      1 RES1    0.0000
     23 H7         3.7106    2.5745    4.1690 H         1 RES1    0.0000
     24 C11        2.1072    1.6999    3.3571 C.ar      1 RES1    0.0000
     25 H8         1.5306    2.4206    3.4652 H         1 RES1    0.0000
     26 C12        1.6665    0.5649    2.7867 C.ar      1 RES1    0.0000
     27 H9         0.7807    0.5095    2.5067 H         1 RES1    0.0000
     28 C13        2.5024   -0.5233    2.6089 C.ar      1 RES1    0.0000
     29 H10        2.1786   -1.2984    2.2088 H         1 RES1    0.0000
     30 C14        3.7873   -0.4600    3.0164 C.ar      1 RES1    0.0000
     31 H11        4.3492   -1.1924    2.8995 H         1 RES1    0.0000
     32 C15        7.0526   -0.3933    2.0891 C.3       1 RES1    0.0000
     33 H12        7.8036   -0.9934    1.9578 H         1 RES1    0.0000
     34 H13        6.2881   -0.7767    1.6299 H         1 RES1    0.0000
     35 C16        7.3834    0.9408    1.4424 C.ar      1 RES1    0.0000
     36 C17        6.4104    1.6651    0.8338 C.ar      1 RES1    0.0000
     37 H14        5.5338    1.3527    0.8324 H         1 RES1    0.0000
     38 C18        6.7144    2.8655    0.2150 C.ar      1 RES1    0.0000
     39 H15        6.0349    3.3285   -0.2198 H         1 RES1    0.0000
     40 C19        7.9673    3.3923    0.2174 C.ar      1 RES1    0.0000
     41 H16        8.1426    4.2095   -0.1922 H         1 RES1    0.0000
     42 C20        8.9423    2.7020    0.8252 C.ar      1 RES1    0.0000
     43 H17        9.8094    3.0392    0.8480 H         1 RES1    0.0000
     44 C21        8.6524    1.4715    1.4265 C.ar      1 RES1    0.0000
     45 H18        9.3427    0.9959    1.8293 H         1 RES1    0.0000
     46 C22       -1.2241    7.4130    4.8989 C.ar      2 RES2    0.0000
     47 C23       -2.2085    8.1640    5.5875 C.ar      2 RES2    0.0000
     48 H19       -1.9947    8.9672    6.0055 H         2 RES2    0.0000
     49 C24       -3.4927    7.6648    5.6177 C.ar      2 RES2    0.0000
     50 H20       -4.1662    8.1284    6.0596 H         2 RES2    0.0000
     51 C25       -3.7676    6.4739    4.9883 C.ar      2 RES2    0.0000
     52 H21       -4.6333    6.1346    5.0206 H         2 RES2    0.0000
     53 C26       -2.7654    5.7472    4.2887 C.ar      2 RES2    0.0000
     54 H22       -2.9760    4.9464    3.8663 H         2 RES2    0.0000
     55 C27       -1.4769    6.2407    4.2422 C.ar      2 RES2    0.0000
     56 C28       -0.1838    5.7391    3.5495 C.3       2 RES2    0.0000
     57 C29        0.8406    6.7608    4.0011 C.2       2 RES2    0.0000
     58 C30        2.2752    6.7383    3.6336 C.ar      2 RES2    0.0000
     59 C31        2.8523    5.5949    3.0170 C.ar      2 RES2    0.0000
     60 H23        2.3121    4.8556    2.8562 H         2 RES2    0.0000
     61 C32        4.1996    5.5363    2.6428 C.ar      2 RES2    0.0000
     62 H24        4.5379    4.7684    2.2401 H         2 RES2    0.0000
     63 C33        5.0226    6.6138    2.8704 C.ar      2 RES2    0.0000
     64 H25        5.9202    6.5893    2.6280 H         2 RES2    0.0000
     65 C34        4.4800    7.7363    3.4703 C.ar      2 RES2    0.0000
     66 H26        5.0318    8.4691    3.6237 H         2 RES2    0.0000
     67 C35        3.1255    7.8184    3.8599 C.ar      2 RES2    0.0000
     68 H27        2.8027    8.5899    4.2663 H         2 RES2    0.0000
     69 C36       -0.2660    5.7431    2.0082 C.3       2 RES2    0.0000
     70 H28        0.6135    5.5486    1.6479 H         2 RES2    0.0000
     71 H29       -0.8646    5.0338    1.7248 H         2 RES2    0.0000
     72 C37       -0.7449    7.0336    1.4354 C.ar      2 RES2    0.0000
     73 C38       -2.0176    7.1265    0.9969 C.ar      2 RES2    0.0000
     74 H30       -2.5991    6.4043    1.0690 H         2 RES2    0.0000
     75 C39       -2.4477    8.3377    0.4324 C.ar      2 RES2    0.0000
     76 H31       -3.3142    8.3996    0.0997 H         2 RES2    0.0000
     77 C40       -1.6273    9.4271    0.3567 C.ar      2 RES2    0.0000
     78 H32       -1.9414   10.2264    0.0012 H         2 RES2    0.0000
     79 C41       -0.3851    9.3351    0.7927 C.ar      2 RES2    0.0000
     80 H33        0.1853   10.0675    0.7399 H         2 RES2    0.0000
     81 C42        0.0591    8.1520    1.3242 C.ar      2 RES2    0.0000
     82 H34        0.9380    8.0990    1.6227 H         2 RES2    0.0000
@<TRIPOS>BOND
     1    1    7 1
     2    2    3 1
     3    4    8 1
     4    5    6 1
     5    7    9 1
     6    8   46 1
     7    9   10 ar
     8   10   11 1
     9   12   10 ar
    10   13   12 1
    11   14   12 ar
    12   15   14 1
    13   16   14 ar
    14   17   16 1
    15   18    9 ar
    16   19    2 1
    17   20    7 2
    18   21   20 1
    19   22   21 ar
    20   23   22 1
    21   24   22 ar
    22   25   24 1
    23   26   24 ar
    24   27   26 1
    25   28   26 ar
    26   29   28 1
    27   30   21 ar
    28   31   30 1
    29   32   19 1
    30   33   32 1
    31   34   32 1
    32   35   32 1
    33   36   35 ar
    34   37   36 1
    35   38   36 ar
    36   39   38 1
    37   40   38 ar
    38   41   40 1
    39   42   40 ar
    40   43   42 1
    41   44   35 ar
    42   45   44 1
    43   46   47 ar
    44   47   48 1
    45   49   47 ar
    46   50   49 1
    47   51   49 ar
    48   52   51 1
    49   53   51 ar
    50   54   53 1
    51   55   46 ar
    52   56    5 1
    53   57    8 2
    54   58   57 1
    55   59   58 ar
    56   60   59 1
    57   61   59 ar
    58   62   61 1
    59   63   61 ar
    60   64   63 1
    61   65   63 ar
    62   66   65 1
    63   67   58 ar
    64   68   67 1
    65   69   56 1
    66   70   69 1
    67   71   69 1
    68   72   69 1
    69   73   72 ar
    70   74   73 1
    71   75   73 ar
    72   76   75 1
    73   77   75 ar
    74   78   77 1
    75   79   77 ar
    76   80   79 1
    77   81   72 ar
    78   82   81 1
    79   16   18 ar
    80   18   19 1
    81   19   20 1
    82   28   30 ar
    83   42   44 ar
    84   53   55 ar
    85   55   56 1
    86   56   57 1
    87   65   67 ar
    88   79   81 ar
@<TRIPOS>SUBSTRUCTURE
     1 RES1 1
     2 RES2 4

@<TRIPOS>CRYSIN
  11.6350   11.9710   12.0630  84.7730  88.8820  88.6350   2 1

