# MOL2 file generated by ConQuest
# Please check atom types

@<TRIPOS>MOLECULE
DUSZOI
    69    75     3
SMALL
NO_CHARGES
****
Generated from CSD

@<TRIPOS>ATOM
      1 O1         7.5563   10.9643    3.2815 O.3       1 RES1    0.0000
      2 H1         8.2329   11.2872    3.6606 H         1 RES1    0.0000
      3 N1         6.8331   10.1856    4.1999 N.2       1 RES1    0.0000
      4 C1         6.1246    9.1908    1.1179 C.3       1 RES1    0.0000
      5 H2         6.8607    9.7644    0.7604 H         1 RES1    0.0000
      6 C2         5.2593    9.8108    2.2537 C.3       1 RES1    0.0000
      7 H3         5.0459   10.7661    2.0538 H         1 RES1    0.0000
      8 C3         4.2804    7.8948    1.1142 C.3       1 RES1    0.0000
      9 H4         3.4965    7.3895    0.7527 H         1 RES1    0.0000
     10 C4         3.9614    8.9371    2.2355 C.3       1 RES1    0.0000
     11 H5         3.1674    9.4911    1.9850 H         1 RES1    0.0000
     12 C5         5.4428    7.0499    1.6008 C.2       1 RES1    0.0000
     13 H6         5.4002    6.1359    1.8589 H         1 RES1    0.0000
     14 C6         6.5251    7.8081    1.6026 C.2       1 RES1    0.0000
     15 H7         7.3977    7.5369    1.8609 H         1 RES1    0.0000
     16 C7         4.8536    8.8294    4.4257 C.2       1 RES1    0.0000
     17 H8         4.9557    8.5941    5.3399 H         1 RES1    0.0000
     18 C8         5.0053    8.8087    0.1171 C.3       1 RES1    0.0000
     19 H9         4.4580    9.5850   -0.1643 H         1 RES1    0.0000
     20 H10        5.3461    8.3228   -0.6744 H         1 RES1    0.0000
     21 C9         5.7807    9.6619    3.6673 C.2       1 RES1    0.0000
     22 C10        3.8372    8.4456    3.6445 C.2       1 RES1    0.0000
     23 H11        3.1116    7.9149    3.9529 H         1 RES1    0.0000
     24 O2         4.2209   11.8422    5.8718 O.3       2 RES2    0.0000
     25 H12        3.7651   11.2808    6.3009 H         2 RES2    0.0000
     26 N2         3.5604   12.1615    4.6674 N.2       2 RES2    0.0000
     27 C11        6.8495   15.5171    4.8915 C.3       2 RES2    0.0000
     28 H13        7.0752   16.2634    5.5004 H         2 RES2    0.0000
     29 H14        7.6653   15.0118    4.6502 H         2 RES2    0.0000
     30 C12        4.2164   13.0209    3.9777 C.2       2 RES2    0.0000
     31 C13        4.5999   14.3570    2.1415 C.2       2 RES2    0.0000
     32 H15        4.4663   14.7876    1.3049 H         2 RES2    0.0000
     33 C14        4.5534   15.5816    5.3713 C.2       2 RES2    0.0000
     34 H16        3.8169   15.6120    5.9704 H         2 RES2    0.0000
     35 C15        4.7402   16.3836    4.3249 C.2       2 RES2    0.0000
     36 H17        4.1648   17.0856    4.0465 H         2 RES2    0.0000
     37 C16        5.5759   13.6347    4.2399 C.3       2 RES2    0.0000
     38 H18        6.2759   12.9231    4.2853 H         2 RES2    0.0000
     39 C17        3.7299   13.5066    2.6883 C.2       2 RES2    0.0000
     40 H19        2.9046   13.2520    2.2926 H         2 RES2    0.0000
     41 C18        6.0365   15.9706    3.6610 C.3       2 RES2    0.0000
     42 H20        6.4697   16.6606    3.0817 H         2 RES2    0.0000
     43 C19        5.8201   14.5571    3.0026 C.3       2 RES2    0.0000
     44 H21        6.6433   14.2707    2.5123 H         2 RES2    0.0000
     45 C20        5.7191   14.6101    5.4422 C.3       2 RES2    0.0000
     46 H22        5.8875   14.1896    6.3334 H         2 RES2    0.0000
     47 O3         4.2470   20.2667    2.7189 O.3       3 RES3    0.0000
     48 H23        4.4460   20.5903    3.4676 H         3 RES3    0.0000
     49 N3         2.8798   20.4972    2.4543 N.2       3 RES3    0.0000
     50 C21        3.9463   17.9006    0.6844 C.3       3 RES3    0.0000
     51 H24        4.7781   17.8694    1.2380 H         3 RES3    0.0000
     52 C22        1.9215   16.8983    0.2138 C.2       3 RES3    0.0000
     53 H25        1.0911   16.4406    0.2656 H         3 RES3    0.0000
     54 C23        1.1565   19.6275   -0.4675 C.2       3 RES3    0.0000
     55 H26        0.3758   19.6249   -1.0088 H         3 RES3    0.0000
     56 C24        2.5495   20.0192    1.3068 C.2       3 RES3    0.0000
     57 C25        2.7494   17.1465    1.2277 C.2       3 RES3    0.0000
     58 H27        2.6136   16.8955    2.1341 H         3 RES3    0.0000
     59 C26        1.1975   20.1399    0.7598 C.2       3 RES3    0.0000
     60 H28        0.4582   20.5262    1.2132 H         3 RES3    0.0000
     61 C27        2.5480   17.4811   -1.0332 C.3       3 RES3    0.0000
     62 H29        2.2268   17.0984   -1.8991 H         3 RES3    0.0000
     63 C28        3.4240   19.3234    0.2975 C.3       3 RES3    0.0000
     64 H30        4.1826   19.9133    0.0210 H         3 RES3    0.0000
     65 C29        2.4686   19.0545   -0.9092 C.3       3 RES3    0.0000
     66 H31        2.7981   19.5011   -1.7405 H         3 RES3    0.0000
     67 C30        4.0415   17.2799   -0.7277 C.3       3 RES3    0.0000
     68 H32        4.6318   17.7925   -1.3355 H         3 RES3    0.0000
     69 H33        4.3070   16.3274   -0.7126 H         3 RES3    0.0000
@<TRIPOS>BOND
     1    1    2 1
     2    3    1 1
     3    4    5 1
     4    6    4 1
     5    7    6 1
     6    8    9 1
     7   10    6 1
     8   11   10 1
     9   12    8 1
    10   13   12 1
    11   14    4 1
    12   15   14 1
    13   16   17 1
    14   18    4 1
    15   19   18 1
    16   20   18 1
    17   21    3 2
    18   22   10 1
    19   23   22 1
    20   24   25 1
    21   26   24 1
    22   27   28 1
    23   29   27 1
    24   30   26 2
    25   31   32 1
    26   33   34 1
    27   35   33 2
    28   36   35 1
    29   37   30 1
    30   38   37 1
    31   39   30 1
    32   40   39 1
    33   41   27 1
    34   42   41 1
    35   43   31 1
    36   44   43 1
    37   45   27 1
    38   46   45 1
    39   47   48 1
    40   49   47 1
    41   50   51 1
    42   52   53 1
    43   54   55 1
    44   56   49 2
    45   57   50 1
    46   58   57 1
    47   59   54 2
    48   60   59 1
    49   61   52 1
    50   62   61 1
    51   63   50 1
    52   64   63 1
    53   65   54 1
    54   66   65 1
    55   67   50 1
    56   68   67 1
    57   69   67 1
    58    6   21 1
    59    8   10 1
    60    8   18 1
    61   12   14 2
    62   16   21 1
    63   16   22 2
    64   31   39 2
    65   33   45 1
    66   35   41 1
    67   37   43 1
    68   37   45 1
    69   41   43 1
    70   52   57 2
    71   56   59 1
    72   56   63 1
    73   61   65 1
    74   61   67 1
    75   63   65 1
@<TRIPOS>SUBSTRUCTURE
     1 RES1 1
     2 RES2 24
     3 RES3 47

@<TRIPOS>CRYSIN
   6.0810   21.3570   19.1310  90.0000  92.9690  90.0000  14 1

