# MOL2 file generated by ConQuest
# Please check atom types

@<TRIPOS>MOLECULE
DUTBUQ
    46    47     1
SMALL
NO_CHARGES
****
Generated from CSD

@<TRIPOS>ATOM
      1 O1         0.5475    4.9636    5.0014 O.3       1 RES1    0.0000
      2 O2        -1.0397    3.5568    4.2147 O.2       1 RES1    0.0000
      3 O3        -3.1674    7.4367    2.7161 O.3       1 RES1    0.0000
      4 H1        -2.7550    7.7249    3.3931 H         1 RES1    0.0000
      5 O4         0.1719    4.6946    1.0395 O.2       1 RES1    0.0000
      6 O5        -3.4633    3.5079   -3.8022 O.2       1 RES1    0.0000
      7 O6        -3.0500    2.6596   -5.7416 O.2       1 RES1    0.0000
      8 N1        -0.8056    5.6780    3.3764 N.am      1 RES1    0.0000
      9 H2        -0.2048    6.3021    3.2434 H         1 RES1    0.0000
     10 N2        -1.8877    4.1350    0.2744 N.am      1 RES1    0.0000
     11 H3        -2.7292    4.0528    0.5156 H         1 RES1    0.0000
     12 N3        -1.3226    3.3744   -0.7335 N.2       1 RES1    0.0000
     13 N4        -2.8633    2.7274   -4.5357 N.pl3     1 RES1    0.0000
     14 C1        -0.4817    4.6395    4.2081 C.2       1 RES1    0.0000
     15 C2        -1.7282    5.4638    2.3053 C.3       1 RES1    0.0000
     16 H4        -2.4988    4.9190    2.6363 H         1 RES1    0.0000
     17 C3        -2.2432    6.8276    1.8046 C.3       1 RES1    0.0000
     18 H5        -1.4750    7.4348    1.6699 H         1 RES1    0.0000
     19 H6        -2.6896    6.7030    0.9298 H         1 RES1    0.0000
     20 C4        -1.0277    4.7124    1.1526 C.2       1 RES1    0.0000
     21 C5        -2.1629    2.8393   -1.5601 C.2       1 RES1    0.0000
     22 H7        -3.0965    3.0205   -1.5319 H         1 RES1    0.0000
     23 C6        -1.5547    1.9203   -2.5548 C.ar      1 RES1    0.0000
     24 C7        -1.8546    1.8289   -3.9070 C.ar      1 RES1    0.0000
     25 C8        -1.2345    0.9388   -4.7736 C.ar      1 RES1    0.0000
     26 H8        -1.4630    0.9160   -5.6950 H         1 RES1    0.0000
     27 C9        -0.2787    0.0887   -4.2579 C.ar      1 RES1    0.0000
     28 H9         0.1527   -0.5390   -4.8268 H         1 RES1    0.0000
     29 C10        0.0645    0.1446   -2.9174 C.ar      1 RES1    0.0000
     30 H10        0.7421   -0.4246   -2.5747 H         1 RES1    0.0000
     31 C11       -0.5844    1.0249   -2.0824 C.ar      1 RES1    0.0000
     32 H11       -0.3678    1.0267   -1.1576 H         1 RES1    0.0000
     33 C12        0.8835    3.9613    5.9694 C.3       1 RES1    0.0000
     34 H12        1.2547    3.1660    5.5104 H         1 RES1    0.0000
     35 H13        0.0701    3.6842    6.4601 H         1 RES1    0.0000
     36 C13        1.9032    4.5137    6.9408 C.ar      1 RES1    0.0000
     37 C14        2.4371    5.7803    6.8393 C.ar      1 RES1    0.0000
     38 H14        2.1504    6.3557    6.1391 H         1 RES1    0.0000
     39 C15        3.3778    6.2212    7.7358 C.ar      1 RES1    0.0000
     40 H15        3.7499    7.0908    7.6443 H         1 RES1    0.0000
     41 C16        3.7842    5.4053    8.7654 C.ar      1 RES1    0.0000
     42 H16        4.4389    5.7100    9.3841 H         1 RES1    0.0000
     43 C17        3.2411    4.1422    8.9001 C.ar      1 RES1    0.0000
     44 H17        3.5122    3.5785    9.6153 H         1 RES1    0.0000
     45 C18        2.2964    3.7028    7.9803 C.ar      1 RES1    0.0000
     46 H18        1.9155    2.8366    8.0718 H         1 RES1    0.0000
@<TRIPOS>BOND
     1    1   14 1
     2    2   14 2
     3    3    4 1
     4    5   20 2
     5    6   13 2
     6    7   13 2
     7    8    9 1
     8   10   11 1
     9   12   10 1
    10   13   24 1
    11   14    8 1
    12   15    8 1
    13   16   15 1
    14   17    3 1
    15   18   17 1
    16   19   17 1
    17   20   10 1
    18   21   12 2
    19   22   21 1
    20   23   21 1
    21   24   23 ar
    22   25   24 ar
    23   26   25 1
    24   27   25 ar
    25   28   27 1
    26   29   27 ar
    27   30   29 1
    28   31   23 ar
    29   32   31 1
    30   33    1 1
    31   34   33 1
    32   35   33 1
    33   36   33 1
    34   37   36 ar
    35   38   37 1
    36   39   37 ar
    37   40   39 1
    38   41   39 ar
    39   42   41 1
    40   43   41 ar
    41   44   43 1
    42   45   36 ar
    43   46   45 1
    44   15   17 1
    45   15   20 1
    46   29   31 ar
    47   43   45 ar
@<TRIPOS>SUBSTRUCTURE
     1 RES1 1

@<TRIPOS>CRYSIN
   4.6675    5.7001   16.6450  90.4570  92.0870  97.3190   1 1

