# MOL2 file generated by ConQuest
# Please check atom types

@<TRIPOS>MOLECULE
DUTQAL
    38    40     1
SMALL
NO_CHARGES
****
Generated from CSD

@<TRIPOS>ATOM
      1 O1         6.4470    3.2430    0.4106 O.2       1 RES1    0.0000
      2 O2         8.4969    3.5293   -0.1284 O.2       1 RES1    0.0000
      3 O3        11.9175    0.5217    1.1353 O.2       1 RES1    0.0000
      4 O4        11.3928   -1.4382    1.8593 O.2       1 RES1    0.0000
      5 N1         4.7511    0.1101    1.9528 N.2       1 RES1    0.0000
      6 N2         5.6775    1.0655    1.5996 N.3       1 RES1    0.0000
      7 N3         7.6218    2.8676    0.4084 N.pl3     1 RES1    0.0000
      8 N4        11.1009   -0.2970    1.5162 N.pl3     1 RES1    0.0000
      9 C1         2.5247   -0.5262    2.3352 C.ar      1 RES1    0.0000
     10 C2         2.9110   -1.7554    2.8641 C.ar      1 RES1    0.0000
     11 C3         1.9777   -2.7110    3.1956 C.ar      1 RES1    0.0000
     12 C4         0.6413   -2.4484    3.0019 C.ar      1 RES1    0.0000
     13 C5         0.2410   -1.2472    2.4680 C.ar      1 RES1    0.0000
     14 C6         1.1615   -0.2585    2.1357 C.ar      1 RES1    0.0000
     15 C7         0.7388    1.0687    1.5728 C.3       1 RES1    0.0000
     16 C8         1.6166    2.1618    2.0733 C.3       1 RES1    0.0000
     17 C9         3.0724    1.9063    1.7106 C.3       1 RES1    0.0000
     18 C10        3.5259    0.5016    1.9950 C.2       1 RES1    0.0000
     19 C11        6.9870    0.7518    1.5677 C.ar      1 RES1    0.0000
     20 C12        7.9692    1.6153    1.0265 C.ar      1 RES1    0.0000
     21 C13        9.3146    1.2776    1.0272 C.ar      1 RES1    0.0000
     22 C14        9.6933    0.0734    1.5423 C.ar      1 RES1    0.0000
     23 C15        8.7572   -0.8168    2.0625 C.ar      1 RES1    0.0000
     24 C16        7.4423   -0.4850    2.0791 C.ar      1 RES1    0.0000
     25 H1         3.8144   -1.9334    2.9951 H         1 RES1    0.0000
     26 H2         5.4206    1.8614    1.3995 H         1 RES1    0.0000
     27 H3         2.2484   -3.5279    3.5478 H         1 RES1    0.0000
     28 H4         0.0059   -3.0870    3.2329 H         1 RES1    0.0000
     29 H5        -0.6650   -1.0917    2.3264 H         1 RES1    0.0000
     30 H6         0.7817    1.0375    0.6044 H         1 RES1    0.0000
     31 H7        -0.1795    1.2499    1.8274 H         1 RES1    0.0000
     32 H8         1.5314    2.2280    3.0371 H         1 RES1    0.0000
     33 H9         1.3319    3.0054    1.6881 H         1 RES1    0.0000
     34 H10        3.1972    2.0910    0.7666 H         1 RES1    0.0000
     35 H11        3.6320    2.5230    2.2081 H         1 RES1    0.0000
     36 H12        9.9486    1.8636    0.6813 H         1 RES1    0.0000
     37 H13        9.0339   -1.6386    2.3985 H         1 RES1    0.0000
     38 H14        6.8264   -1.0842    2.4354 H         1 RES1    0.0000
@<TRIPOS>BOND
     1    1    7 2
     2    2    7 2
     3    3    8 2
     4    4    8 2
     5    5    6 1
     6    6   19 1
     7    7   20 1
     8    8   22 1
     9    9   10 ar
    10   10   11 ar
    11   11   12 ar
    12   12   13 ar
    13   13   14 ar
    14   14    9 ar
    15   15   14 1
    16   16   15 1
    17   17   16 1
    18   18    5 2
    19   19   20 ar
    20   20   21 ar
    21   21   22 ar
    22   22   23 ar
    23   23   24 ar
    24   24   19 ar
    25   25   10 1
    26   26    6 1
    27   27   11 1
    28   28   12 1
    29   29   13 1
    30   30   15 1
    31   31   15 1
    32   32   16 1
    33   33   16 1
    34   34   17 1
    35   35   17 1
    36   36   21 1
    37   37   23 1
    38   38   24 1
    39    9   18 1
    40   17   18 1
@<TRIPOS>SUBSTRUCTURE
     1 RES1 1

@<TRIPOS>CRYSIN
  14.8627   13.8704    7.3493  90.0000  99.2110  90.0000  14 1

