# MOL2 file generated by ConQuest
# Please check atom types

@<TRIPOS>MOLECULE
DUTWAR
    54    57     1
SMALL
NO_CHARGES
****
Generated from CSD

@<TRIPOS>ATOM
      1 O1         6.6608    1.8848   11.8823 O.3       1 RES1    0.0000
      2 O2         3.1375    4.8059   13.0271 O.2       1 RES1    0.0000
      3 O3         6.0054    5.3281    8.7057 O.2       1 RES1    0.0000
      4 O4         9.4259    5.8974   13.8967 O.2       1 RES1    0.0000
      5 O5         9.5403    8.0526   13.6631 O.2       1 RES1    0.0000
      6 N1         8.9689    6.9713   13.5182 N.pl3     1 RES1    0.0000
      7 C1         6.8817    2.5382   10.6895 C.2       1 RES1    0.0000
      8 C2         7.8535    1.7951    9.8417 C.3       1 RES1    0.0000
      9 H1         7.3853    1.0468    9.3944 H         1 RES1    0.0000
     10 H2         8.5576    1.4083   10.4209 H         1 RES1    0.0000
     11 C3         8.5103    2.6832    8.7791 C.3       1 RES1    0.0000
     12 C4         7.3959    3.4725    8.0843 C.3       1 RES1    0.0000
     13 H3         7.8049    4.0957    7.4323 H         1 RES1    0.0000
     14 H4         6.8266    2.8398    7.5785 H         1 RES1    0.0000
     15 C5         6.5244    4.2597    9.0273 C.2       1 RES1    0.0000
     16 C6         6.2654    3.6806   10.3578 C.2       1 RES1    0.0000
     17 C7         5.3167    4.4068   11.2892 C.3       1 RES1    0.0000
     18 H5         4.4746    4.6034   10.7879 H         1 RES1    0.0000
     19 C8         4.9802    3.4862   12.4378 C.2       1 RES1    0.0000
     20 C9         3.8282    3.8225   13.2886 C.2       1 RES1    0.0000
     21 C10        3.4987    2.8818   14.4226 C.3       1 RES1    0.0000
     22 H6         2.8802    2.1840   14.0883 H         1 RES1    0.0000
     23 H7         3.0266    3.3884   15.1310 H         1 RES1    0.0000
     24 C11        4.7210    2.2018   15.0365 C.3       1 RES1    0.0000
     25 C12        5.4880    1.4945   13.9035 C.3       1 RES1    0.0000
     26 H8         6.3764    1.2150   14.2377 H         1 RES1    0.0000
     27 H9         4.9943    0.6800   13.6368 H         1 RES1    0.0000
     28 C13        5.6679    2.3711   12.7090 C.2       1 RES1    0.0000
     29 C14        9.2479    1.8172    7.7552 C.3       1 RES1    0.0000
     30 H10        9.9812    1.3411    8.1990 H         1 RES1    0.0000
     31 H11        9.6104    2.3879    7.0458 H         1 RES1    0.0000
     32 H12        8.6247    1.1687    7.3674 H         1 RES1    0.0000
     33 C15        9.5181    3.6312    9.4389 C.3       1 RES1    0.0000
     34 H13       10.2313    3.1078    9.8589 H         1 RES1    0.0000
     35 H14        9.0626    4.1704   10.1188 H         1 RES1    0.0000
     36 H15        9.9044    4.2219    8.7577 H         1 RES1    0.0000
     37 C16        5.6176    3.2413   15.7310 C.3       1 RES1    0.0000
     38 H16        5.1053    3.6985   16.4304 H         1 RES1    0.0000
     39 H17        5.9275    3.8971   15.0726 H         1 RES1    0.0000
     40 H18        6.3898    2.7915   16.1316 H         1 RES1    0.0000
     41 C17        4.2709    1.1550   16.0598 C.3       1 RES1    0.0000
     42 H19        3.7158    0.4814   15.6151 H         1 RES1    0.0000
     43 H20        3.7512    1.5912   16.7650 H         1 RES1    0.0000
     44 H21        5.0577    0.7220   16.4531 H         1 RES1    0.0000
     45 C18        5.8979    5.7343   11.7927 C.ar      1 RES1    0.0000
     46 C19        5.2084    6.9313   11.6569 C.ar      1 RES1    0.0000
     47 H22        4.3489    6.9282   11.2525 H         1 RES1    0.0000
     48 C20        5.7433    8.1358   12.0974 C.ar      1 RES1    0.0000
     49 H23        5.2517    8.9409   11.9833 H         1 RES1    0.0000
     50 C21        6.9893    8.1705   12.7012 C.ar      1 RES1    0.0000
     51 H24        7.3719    8.9871   13.0001 H         1 RES1    0.0000
     52 C22        7.6566    6.9629   12.8526 C.ar      1 RES1    0.0000
     53 C23        7.1426    5.7500   12.4271 C.ar      1 RES1    0.0000
     54 H25        7.6268    4.9439   12.5648 H         1 RES1    0.0000
@<TRIPOS>BOND
     1    1    7 1
     2    2   20 2
     3    3   15 2
     4    4    6 2
     5    5    6 2
     6    6   52 1
     7    7    8 1
     8    8    9 1
     9   10    8 1
    10   11    8 1
    11   12   11 1
    12   13   12 1
    13   14   12 1
    14   15   12 1
    15   16    7 2
    16   17   16 1
    17   18   17 1
    18   19   17 1
    19   20   19 1
    20   21   20 1
    21   22   21 1
    22   23   21 1
    23   24   21 1
    24   25   24 1
    25   26   25 1
    26   27   25 1
    27   28    1 1
    28   29   11 1
    29   30   29 1
    30   31   29 1
    31   32   29 1
    32   33   11 1
    33   34   33 1
    34   35   33 1
    35   36   33 1
    36   37   24 1
    37   38   37 1
    38   39   37 1
    39   40   37 1
    40   41   24 1
    41   42   41 1
    42   43   41 1
    43   44   41 1
    44   45   17 1
    45   46   45 ar
    46   47   46 1
    47   48   46 ar
    48   49   48 1
    49   50   48 ar
    50   51   50 1
    51   52   50 ar
    52   53   45 ar
    53   54   53 1
    54   15   16 1
    55   19   28 2
    56   25   28 1
    57   52   53 ar
@<TRIPOS>SUBSTRUCTURE
     1 RES1 1

@<TRIPOS>CRYSIN
  12.1990   10.5100   32.4840  90.0000  90.0000  90.0000  61 1

