# MOL2 file generated by ConQuest
# Please check atom types

@<TRIPOS>MOLECULE
DUVFEH
    34    37     1
SMALL
NO_CHARGES
****
Generated from CSD

@<TRIPOS>ATOM
      1 O1         1.1891    5.1990    4.5030 O.2       1 RES1    0.0000
      2 O2         5.0799    6.3981    1.4989 O.2       1 RES1    0.0000
      3 O3         5.5296    8.5023    1.1012 O.2       1 RES1    0.0000
      4 O4        -2.0852    9.7495    8.3034 O.2       1 RES1    0.0000
      5 N1         0.9793    9.2519    5.3905 N.2       1 RES1    0.0000
      6 N2        -0.7460    8.5194    6.9252 N.am      1 RES1    0.0000
      7 N3         0.2834    6.9642    5.6846 N.am      1 RES1    0.0000
      8 N4         4.8640    7.6127    1.6607 N.pl3     1 RES1    0.0000
      9 C1        -2.3411    6.9051    8.1283 C.ar      1 RES1    0.0000
     10 H1        -2.7993    7.5536    8.6493 H         1 RES1    0.0000
     11 C2        -2.6443    5.5256    8.2203 C.ar      1 RES1    0.0000
     12 H2        -3.3314    5.2472    8.8147 H         1 RES1    0.0000
     13 C3        -1.9800    4.5692    7.4794 C.ar      1 RES1    0.0000
     14 H3        -2.1943    3.6516    7.5982 H         1 RES1    0.0000
     15 C4        -0.9927    4.9346    6.5534 C.ar      1 RES1    0.0000
     16 H4        -0.5669    4.2908    5.9992 H         1 RES1    0.0000
     17 C5         1.1899    6.4152    4.7381 C.2       1 RES1    0.0000
     18 C6         3.0193    7.0295    3.1802 C.ar      1 RES1    0.0000
     19 H5         3.1362    6.1135    2.9549 H         1 RES1    0.0000
     20 C7         3.7953    8.0015    2.5983 C.ar      1 RES1    0.0000
     21 C8         3.6306    9.3779    2.8879 C.ar      1 RES1    0.0000
     22 H6         4.1624   10.0310    2.4490 H         1 RES1    0.0000
     23 C9         2.6975    9.7449    3.8058 C.ar      1 RES1    0.0000
     24 H7         2.5917   10.6656    4.0123 H         1 RES1    0.0000
     25 C10       -1.3429    7.2581    7.2407 C.ar      1 RES1    0.0000
     26 C11       -0.6662    6.2892    6.4863 C.ar      1 RES1    0.0000
     27 C12        0.2425    8.3281    5.9527 C.2       1 RES1    0.0000
     28 C13        2.0449    7.4230    4.1195 C.ar      1 RES1    0.0000
     29 C14        1.8817    8.7993    4.4601 C.ar      1 RES1    0.0000
     30 C15       -1.1322    9.7604    7.5580 C.2       1 RES1    0.0000
     31 C16       -0.3144   10.9828    7.2541 C.3       1 RES1    0.0000
     32 H8        -0.5847   11.7091    7.8530 H         1 RES1    0.0000
     33 H9        -0.4622   11.2519    6.3237 H         1 RES1    0.0000
     34 H10        0.6356   10.7838    7.3900 H         1 RES1    0.0000
@<TRIPOS>BOND
     1    1   17 2
     2    2    8 2
     3    3    8 2
     4    4   30 2
     5    5   27 2
     6    6   25 1
     7    7   17 1
     8    8   20 1
     9    9   10 1
    10   11    9 ar
    11   12   11 1
    12   13   11 ar
    13   14   13 1
    14   15   13 ar
    15   16   15 1
    16   17   28 1
    17   18   19 1
    18   20   18 ar
    19   21   20 ar
    20   22   21 1
    21   23   21 ar
    22   24   23 1
    23   25    9 ar
    24   26    7 1
    25   27    6 1
    26   28   18 ar
    27   29    5 1
    28   30    6 1
    29   31   30 1
    30   32   31 1
    31   33   31 1
    32   34   31 1
    33    7   27 1
    34   15   26 ar
    35   23   29 ar
    36   25   26 ar
    37   28   29 ar
@<TRIPOS>SUBSTRUCTURE
     1 RES1 1

@<TRIPOS>CRYSIN
   4.9400   15.5520    8.9440  90.0000  92.0920  90.0000   4 1

