# MOL2 file generated by ConQuest
# Please check atom types

@<TRIPOS>MOLECULE
DUVJIO
    51    52     1
SMALL
USER_CHARGES
****
Generated from CSD

@<TRIPOS>ATOM
      1 N1        -1.6642    3.6310   11.1533 N.3       1 RES1    0.0000
      2 N2        -0.4344    4.9923   12.3287 N.pl3     1 RES1    1.0000
      3 N3        -0.9852    7.0219   10.1469 N.am      1 RES1    0.0000
      4 O1         0.6876    7.5966    8.7360 O.2       1 RES1    0.0000
      5 O2        -2.5516    3.2007   10.3365 O.2       1 RES1    0.0000
      6 O3         0.0511    6.0866   12.8177 O.2       1 RES1   -1.0000
      7 O4        -0.2940    5.5285    8.6715 O.3       1 RES1    0.0000
      8 C1        -0.2203    3.6975    7.2354 C.3       1 RES1    0.0000
      9 H1        -0.0396    3.1633    8.0125 H         1 RES1    0.0000
     10 H2         0.1762    3.2839    6.4640 H         1 RES1    0.0000
     11 H3        -1.1695    3.7671    7.1090 H         1 RES1    0.0000
     12 C2         1.8490    5.0204    7.6062 C.3       1 RES1    0.0000
     13 H4         2.1869    5.9120    7.7198 H         1 RES1    0.0000
     14 H5         2.2540    4.6224    6.8319 H         1 RES1    0.0000
     15 H6         2.0593    4.4966    8.3819 H         1 RES1    0.0000
     16 C3        -0.0495    5.9899    6.2807 C.3       1 RES1    0.0000
     17 H7        -1.0072    6.0087    6.2154 H         1 RES1    0.0000
     18 H8         0.3213    5.6636    5.4582 H         1 RES1    0.0000
     19 H9         0.2770    6.8764    6.4512 H         1 RES1    0.0000
     20 C4         0.3628    5.0692    7.4226 C.3       1 RES1    0.0000
     21 C5        -0.1165    6.7818    9.1320 C.2       1 RES1    0.0000
     22 C6        -1.1501    8.3469   10.7245 C.3       1 RES1    0.0000
     23 H10       -0.9740    9.0400   10.0696 H         1 RES1    0.0000
     24 H11       -0.5638    8.4726   11.4874 H         1 RES1    0.0000
     25 C7        -2.6086    8.3500   11.1493 C.3       1 RES1    0.0000
     26 H12       -2.7570    8.9683   11.8824 H         1 RES1    0.0000
     27 H13       -3.1866    8.5931   10.4091 H         1 RES1    0.0000
     28 C8        -2.8521    6.9242   11.5826 C.3       1 RES1    0.0000
     29 H14       -3.7880    6.6893   11.4846 H         1 RES1    0.0000
     30 H15       -2.5941    6.7984   12.5103 H         1 RES1    0.0000
     31 C9        -1.9748    6.0679   10.6528 C.3       1 RES1    0.0000
     32 H16       -2.5176    5.7343    9.9076 H         1 RES1    0.0000
     33 C10       -1.3441    4.9165   11.3645 C.2       1 RES1    0.0000
     34 C11       -0.7562    2.6978   11.9094 C.3       1 RES1    0.0000
     35 C12        0.2849    2.2145   10.9049 C.3       1 RES1    0.0000
     36 H17       -0.1540    1.7490   10.1889 H         1 RES1    0.0000
     37 H18        0.9005    1.6212   11.3411 H         1 RES1    0.0000
     38 H19        0.7626    2.9680   10.5512 H         1 RES1    0.0000
     39 C13       -1.5452    1.5245   12.4492 C.3       1 RES1    0.0000
     40 H20       -2.2405    1.8446   13.0274 H         1 RES1    0.0000
     41 H21       -0.9604    0.9446   12.9422 H         1 RES1    0.0000
     42 H22       -1.9354    1.0382   11.7190 H         1 RES1    0.0000
     43 C14       -0.1892    3.6705   12.9852 C.3       1 RES1    0.0000
     44 C15        1.2791    3.5115   13.2916 C.3       1 RES1    0.0000
     45 H23        1.7865    3.5998   12.4819 H         1 RES1    0.0000
     46 H24        1.4339    2.6437   13.6738 H         1 RES1    0.0000
     47 H25        1.5516    4.1890   13.9153 H         1 RES1    0.0000
     48 C16       -0.9947    3.7047   14.2848 C.3       1 RES1    0.0000
     49 H26       -1.9275    3.8014   14.0801 H         1 RES1    0.0000
     50 H27       -0.7058    4.4467   14.8203 H         1 RES1    0.0000
     51 H28       -0.8560    2.8869   14.7691 H         1 RES1    0.0000
@<TRIPOS>BOND
     1    1    5 1
     2    2    6 1
     3    3   21 1
     4    4   21 2
     5    7   20 1
     6    8    9 1
     7   10    8 1
     8   11    8 1
     9   12   13 1
    10   14   12 1
    11   15   12 1
    12   16   17 1
    13   18   16 1
    14   19   16 1
    15   20    8 1
    16   21    7 1
    17   22    3 1
    18   23   22 1
    19   24   22 1
    20   25   22 1
    21   26   25 1
    22   27   25 1
    23   28   25 1
    24   29   28 1
    25   30   28 1
    26   31    3 1
    27   32   31 1
    28   33    1 1
    29   34    1 1
    30   35   34 1
    31   36   35 1
    32   37   35 1
    33   38   35 1
    34   39   34 1
    35   40   39 1
    36   41   39 1
    37   42   39 1
    38   43    2 1
    39   44   43 1
    40   45   44 1
    41   46   44 1
    42   47   44 1
    43   48   43 1
    44   49   48 1
    45   50   48 1
    46   51   48 1
    47    2   33 2
    48   12   20 1
    49   16   20 1
    50   28   31 1
    51   31   33 1
    52   34   43 1
@<TRIPOS>SUBSTRUCTURE
     1 RES1 1

@<TRIPOS>CRYSIN
   6.1016   10.3920   14.4880  90.0000 101.3120  90.0000   4 1

