# MOL2 file generated by ConQuest
# Please check atom types

@<TRIPOS>MOLECULE
DUVVIA
    36    36     1
SMALL
NO_CHARGES
****
Generated from CSD

@<TRIPOS>ATOM
      1 O1         2.3851    0.3703   14.8312 O.2       1 RES1    0.0000
      2 O2         3.0878    2.0013   13.6922 O.2       1 RES1    0.0000
      3 O3         6.7568   -1.7913   11.8764 O.2       1 RES1    0.0000
      4 O4         6.1797   -1.2375    9.7984 O.3       1 RES1    0.0000
      5 O5         5.3016    1.9877    9.7402 O.2       1 RES1    0.0000
      6 O6         7.4100    1.4076   10.2289 O.3       1 RES1    0.0000
      7 N1         3.0901    0.8356   13.9676 N.pl3     1 RES1    0.0000
      8 C1         4.1071   -0.0929   13.2557 C.3       1 RES1    0.0000
      9 C2         4.2206    0.3282   11.7735 C.3       1 RES1    0.0000
     10 C3         5.7456    0.3559   11.4797 C.3       1 RES1    0.0000
     11 C4         6.3502    0.8261   12.8234 C.3       1 RES1    0.0000
     12 C5         5.4609    0.2274   13.8721 C.2       1 RES1    0.0000
     13 C6         5.7855    0.0147   15.1291 C.2       1 RES1    0.0000
     14 C7         3.6743   -1.5315   13.4905 C.3       1 RES1    0.0000
     15 C8         3.3602   -0.4562   10.7927 C.3       1 RES1    0.0000
     16 C9         6.2912   -1.0125   11.1053 C.2       1 RES1    0.0000
     17 C10        6.6860   -2.5003    9.3147 C.3       1 RES1    0.0000
     18 C11        6.0873    1.3478   10.3742 C.2       1 RES1    0.0000
     19 C12        7.9098    2.2943    9.1985 C.3       1 RES1    0.0000
     20 H1         3.8544    1.2111   11.6832 H         1 RES1    0.0000
     21 H2         7.2497    0.4959   12.8823 H         1 RES1    0.0000
     22 H3         6.3589    1.7856   12.8541 H         1 RES1    0.0000
     23 H4         5.1374   -0.3809   15.7164 H         1 RES1    0.0000
     24 H5         6.6494    0.2638   15.4655 H         1 RES1    0.0000
     25 H6         4.2977   -2.1196   13.0580 H         1 RES1    0.0000
     26 H7         2.7988   -1.6649   13.1200 H         1 RES1    0.0000
     27 H8         3.6558   -1.7207   14.4315 H         1 RES1    0.0000
     28 H9         3.4865   -0.1323    9.8980 H         1 RES1    0.0000
     29 H10        2.4349   -0.3752   11.0349 H         1 RES1    0.0000
     30 H11        3.6237   -1.3782   10.8396 H         1 RES1    0.0000
     31 H12        6.5662   -2.5680    8.3646 H         1 RES1    0.0000
     32 H13        6.2177   -3.2176    9.7482 H         1 RES1    0.0000
     33 H14        7.6212   -2.5560    9.5241 H         1 RES1    0.0000
     34 H15        8.8687    2.2559    9.1768 H         1 RES1    0.0000
     35 H16        7.6296    3.1941    9.3817 H         1 RES1    0.0000
     36 H17        7.5591    2.0166    8.3491 H         1 RES1    0.0000
@<TRIPOS>BOND
     1    1    7 2
     2    2    7 2
     3    3   16 2
     4    4   16 1
     5    5   18 2
     6    6   18 1
     7    7    8 1
     8    8    9 1
     9    9   10 1
    10   10   11 1
    11   11   12 1
    12   12    8 1
    13   13   12 2
    14   14    8 1
    15   15    9 1
    16   16   10 1
    17   17    4 1
    18   18   10 1
    19   19    6 1
    20   20    9 1
    21   21   11 1
    22   22   11 1
    23   23   13 1
    24   24   13 1
    25   25   14 1
    26   26   14 1
    27   27   14 1
    28   28   15 1
    29   29   15 1
    30   30   15 1
    31   31   17 1
    32   32   17 1
    33   33   17 1
    34   34   19 1
    35   35   19 1
    36   36   19 1
@<TRIPOS>SUBSTRUCTURE
     1 RES1 1

@<TRIPOS>CRYSIN
   6.9128   12.1793   16.5363  90.0000  90.0000  90.0000  19 1

