# MOL2 file generated by ConQuest
# Please check atom types

@<TRIPOS>MOLECULE
DUVVAS
    40    41     1
SMALL
NO_CHARGES
****
Generated from CSD

@<TRIPOS>ATOM
      1 O1        -4.6334    5.1874    9.7736 O.3       1 RES1    0.0000
      2 O2        -5.0849    2.2754    8.4741 O.3       1 RES1    0.0000
      3 O3        -6.6048    4.4015   10.4627 O.2       1 RES1    0.0000
      4 O4        -3.9708    5.4143   12.6945 O.2       1 RES1    0.0000
      5 O5        -2.2364    5.8406   11.4879 O.2       1 RES1    0.0000
      6 O6        -5.7325    0.8642   10.0874 O.2       1 RES1    0.0000
      7 N1        -2.9853    5.0641   12.0604 N.pl3     1 RES1    0.0000
      8 C1        -3.1331    3.0481   10.5597 C.3       1 RES1    0.0000
      9 C2        -5.4357    4.2559   10.3055 C.2       1 RES1    0.0000
     10 C3        -2.5171    1.6603   10.2856 C.3       1 RES1    0.0000
     11 C4        -2.6752    3.5248   11.9516 C.3       1 RES1    0.0000
     12 C5        -3.6277    2.8133   12.8754 C.2       1 RES1    0.0000
     13 C6        -1.0090    1.6354   10.4649 C.3       1 RES1    0.0000
     14 C7        -5.2403    1.9006    9.7490 C.2       1 RES1    0.0000
     15 C8        -4.6853    2.9707   10.6749 C.3       1 RES1    0.0000
     16 C9        -4.9495    2.6049   12.1613 C.3       1 RES1    0.0000
     17 C10       -3.3382    2.3414   14.0657 C.2       1 RES1    0.0000
     18 C11       -1.1815    3.3899   12.2271 C.3       1 RES1    0.0000
     19 C12       -5.2424    6.4879    9.5256 C.3       1 RES1    0.0000
     20 C13       -0.6537    1.9996   11.8843 C.3       1 RES1    0.0000
     21 C14       -5.4595    1.2890    7.4712 C.3       1 RES1    0.0000
     22 H1        -2.8524    3.6399    9.8579 H         1 RES1    0.0000
     23 H2        -2.7352    1.3966    9.3887 H         1 RES1    0.0000
     24 H3        -2.9197    1.0483   10.9060 H         1 RES1    0.0000
     25 H4        -0.6078    2.2794    9.8767 H         1 RES1    0.0000
     26 H5        -0.6696    0.7608   10.2611 H         1 RES1    0.0000
     27 H6        -5.6391    3.1770   12.5061 H         1 RES1    0.0000
     28 H7        -5.2396    1.6909   12.2067 H         1 RES1    0.0000
     29 H8        -2.4726    2.5278   14.4366 H         1 RES1    0.0000
     30 H9        -3.9678    1.8109   14.5596 H         1 RES1    0.0000
     31 H10       -1.0186    3.5833   13.1532 H         1 RES1    0.0000
     32 H11       -0.7104    4.0228   11.6802 H         1 RES1    0.0000
     33 H12       -4.5945    7.0913    9.1545 H         1 RES1    0.0000
     34 H13       -5.5732    6.8434   10.3538 H         1 RES1    0.0000
     35 H14       -5.9708    6.3818    8.9093 H         1 RES1    0.0000
     36 H15        0.2973    1.9549   12.0074 H         1 RES1    0.0000
     37 H16       -1.0823    1.3724   12.4711 H         1 RES1    0.0000
     38 H17       -5.3045    1.6670    6.6024 H         1 RES1    0.0000
     39 H18       -6.3920    1.0828    7.5687 H         1 RES1    0.0000
     40 H19       -4.9423    0.4860    7.5677 H         1 RES1    0.0000
@<TRIPOS>BOND
     1    1    9 1
     2    2   14 1
     3    3    9 2
     4    4    7 2
     5    5    7 2
     6    6   14 2
     7    7   11 1
     8    8   10 1
     9    9   15 1
    10   10   13 1
    11   11    8 1
    12   12   11 1
    13   13   20 1
    14   14   15 1
    15   15    8 1
    16   16   12 1
    17   17   12 2
    18   18   11 1
    19   19    1 1
    20   20   18 1
    21   21    2 1
    22   22    8 1
    23   23   10 1
    24   24   10 1
    25   25   13 1
    26   26   13 1
    27   27   16 1
    28   28   16 1
    29   29   17 1
    30   30   17 1
    31   31   18 1
    32   32   18 1
    33   33   19 1
    34   34   19 1
    35   35   19 1
    36   36   20 1
    37   37   20 1
    38   38   21 1
    39   39   21 1
    40   40   21 1
    41   15   16 1
@<TRIPOS>SUBSTRUCTURE
     1 RES1 1

@<TRIPOS>CRYSIN
   8.2770   15.2980   12.1800  90.0000 109.6600  90.0000  14 1

