# MOL2 file generated by ConQuest
# Please check atom types

@<TRIPOS>MOLECULE
DUWRES
    37    37     1
SMALL
NO_CHARGES
****
Generated from CSD

@<TRIPOS>ATOM
      1 O1         4.0724    4.0862    3.0196 O.3       1 RES1    0.0000
      2 N1         3.7379    5.1156    2.0574 N.2       1 RES1    0.0000
      3 C1         2.4709    5.3339    1.8915 C.2       1 RES1    0.0000
      4 N2         2.1766    6.2973    0.9247 N.3       1 RES1    0.0000
      5 C2         1.2892    4.5796    2.5674 C.3       1 RES1    0.0000
      6 N3         1.6783    3.1552    2.7231 N.am      1 RES1    0.0000
      7 H1         2.0880    3.0060    3.5603 H         1 RES1    0.0000
      8 C3         2.3445    2.5360    1.6847 C.2       1 RES1    0.0000
      9 O2         2.0149    2.6730    0.5135 O.2       1 RES1    0.0000
     10 C4         3.6283    1.8121    2.0983 C.3       1 RES1    0.0000
     11 C5         4.6433    2.9684    2.3186 C.3       1 RES1    0.0000
     12 H2         5.3879    2.5776    2.8946 H         1 RES1    0.0000
     13 H3         4.9865    3.2923    1.4655 H         1 RES1    0.0000
     14 C6         3.2913    6.7338    0.0875 C.3       1 RES1    0.0000
     15 H4         3.7575    5.9481   -0.2533 H         1 RES1    0.0000
     16 H5         3.8973    7.3297    0.6180 H         1 RES1    0.0000
     17 H6         2.9821    7.2526   -0.6998 H         1 RES1    0.0000
     18 C7         1.3691    7.4465    1.3314 C.3       1 RES1    0.0000
     19 H7         0.7086    7.1764    1.9460 H         1 RES1    0.0000
     20 H8         0.8970    7.8302    0.5532 H         1 RES1    0.0000
     21 H9         1.9247    8.1622    1.6938 H         1 RES1    0.0000
     22 C8        -0.0046    4.6253    1.7506 C.3       1 RES1    0.0000
     23 H10       -0.6548    3.9979    2.1551 H         1 RES1    0.0000
     24 H11        0.1337    4.2720    0.8577 H         1 RES1    0.0000
     25 H12       -0.3861    5.5359    1.6688 H         1 RES1    0.0000
     26 C9         1.0698    5.1389    3.9807 C.3       1 RES1    0.0000
     27 H13        1.8784    5.1430    4.4794 H         1 RES1    0.0000
     28 H14        0.4326    4.5806    4.4612 H         1 RES1    0.0000
     29 H15        0.7495    6.0892    3.9591 H         1 RES1    0.0000
     30 C10        4.1526    0.9157    0.9781 C.3       1 RES1    0.0000
     31 H16        4.2125    1.3705    0.0988 H         1 RES1    0.0000
     32 H17        3.5644    0.1371    0.8100 H         1 RES1    0.0000
     33 H18        5.0829    0.5980    1.2417 H         1 RES1    0.0000
     34 C11        3.4798    0.9939    3.3842 C.3       1 RES1    0.0000
     35 H19        3.2449    1.5421    4.2033 H         1 RES1    0.0000
     36 H20        4.3517    0.5685    3.6012 H         1 RES1    0.0000
     37 H21        2.7709    0.2792    3.3399 H         1 RES1    0.0000
@<TRIPOS>BOND
     1    1    2 1
     2    2    3 2
     3    3    4 1
     4    4   14 1
     5    5    3 1
     6    6    5 1
     7    7    6 1
     8    8    6 1
     9    9    8 2
    10   10    8 1
    11   11    1 1
    12   12   11 1
    13   13   11 1
    14   14   15 1
    15   16   14 1
    16   17   14 1
    17   18    4 1
    18   19   18 1
    19   20   18 1
    20   21   18 1
    21   22    5 1
    22   23   22 1
    23   24   22 1
    24   25   22 1
    25   26    5 1
    26   27   26 1
    27   28   26 1
    28   29   26 1
    29   30   10 1
    30   31   30 1
    31   32   30 1
    32   33   30 1
    33   34   10 1
    34   35   34 1
    35   36   34 1
    36   37   34 1
    37   10   11 1
@<TRIPOS>SUBSTRUCTURE
     1 RES1 1

@<TRIPOS>CRYSIN
  10.8420   10.1520   11.3650  90.0000  91.6420  90.0000  14 1

