# MOL2 file generated by ConQuest
# Please check atom types

@<TRIPOS>MOLECULE
DUWWIB
    59    64     1
SMALL
NO_CHARGES
****
Generated from CSD

@<TRIPOS>ATOM
      1 O1        10.7150   -1.6234    9.1685 O.2       1 RES1    0.0000
      2 O2        10.8512   -3.1397    7.7007 O.2       1 RES1    0.0000
      3 O3         4.6083    0.7657    0.4983 O.2       1 RES1    0.0000
      4 O4         4.0892    2.6649    1.3717 O.2       1 RES1    0.0000
      5 N1        10.4713   -2.0742    8.0774 N.pl3     1 RES1    0.0000
      6 N2         4.6849    1.5944    1.3687 N.pl3     1 RES1    0.0000
      7 C1         8.6352   -0.9231    5.1283 C.ar      1 RES1    0.0000
      8 C2         8.0455    0.2292    5.6161 C.ar      1 RES1    0.0000
      9 C3         7.1382    0.7582    4.6045 C.ar      1 RES1    0.0000
     10 C4         7.2101   -0.0642    3.4969 C.ar      1 RES1    0.0000
     11 C5         9.4673   -1.6889    5.9117 C.ar      1 RES1    0.0000
     12 C6         9.6757   -1.2418    7.1829 C.ar      1 RES1    0.0000
     13 C7         9.1493   -0.0768    7.6752 C.ar      1 RES1    0.0000
     14 C8         8.3033    0.6839    6.8858 C.ar      1 RES1    0.0000
     15 C9         6.2903    1.8463    4.6405 C.ar      1 RES1    0.0000
     16 C10        5.5041    2.1372    3.5704 C.ar      1 RES1    0.0000
     17 C11        5.5927    1.3085    2.4884 C.ar      1 RES1    0.0000
     18 C12        6.4161    0.2179    2.4073 C.ar      1 RES1    0.0000
     19 C13        8.2006   -1.1864    3.7055 C.3       1 RES1    0.0000
     20 C14        7.5280   -2.5629    3.5719 C.3       1 RES1    0.0000
     21 C15        9.3841   -1.1032    2.7420 C.3       1 RES1    0.0000
     22 C16       10.1492    0.2002    2.7810 C.3       1 RES1    0.0000
     23 C17       11.1571    0.3677    1.6779 C.3       1 RES1    0.0000
     24 N3        12.2319   -0.6184    1.6989 N.pl3     1 RES1    0.0000
     25 C18       13.3808   -0.5516    2.4733 C.ar      1 RES1    0.0000
     26 C19       14.2111   -1.6297    2.1747 C.ar      1 RES1    0.0000
     27 C20       13.5519   -2.3866    1.1586 C.ar      1 RES1    0.0000
     28 C21       12.3374   -1.7266    0.8975 C.ar      1 RES1    0.0000
     29 C22       13.7279    0.4118    3.3964 C.ar      1 RES1    0.0000
     30 C23       14.9402    0.2531    4.0222 C.ar      1 RES1    0.0000
     31 C24       15.7754   -0.8085    3.7445 C.ar      1 RES1    0.0000
     32 C25       15.4348   -1.7632    2.8275 C.ar      1 RES1    0.0000
     33 C26       13.8454   -3.5402    0.4487 C.ar      1 RES1    0.0000
     34 C27       12.9684   -4.0087   -0.4743 C.ar      1 RES1    0.0000
     35 C28       11.7883   -3.3160   -0.7384 C.ar      1 RES1    0.0000
     36 C29       11.4515   -2.1888   -0.0525 C.ar      1 RES1    0.0000
     37 H1         9.8947   -2.4936    5.5981 H         1 RES1    0.0000
     38 H2         9.3366    0.2519    8.5997 H         1 RES1    0.0000
     39 H3         7.9148    1.4357    7.2339 H         1 RES1    0.0000
     40 H4         6.1756    2.3803    5.4029 H         1 RES1    0.0000
     41 H5         4.9191    2.8840    3.5419 H         1 RES1    0.0000
     42 H6         6.4502   -0.3652    1.6809 H         1 RES1    0.0000
     43 H7         7.2136   -2.6196    2.7315 H         1 RES1    0.0000
     44 H8         8.1528   -3.2996    3.7821 H         1 RES1    0.0000
     45 H9         6.6881   -2.6070    4.1723 H         1 RES1    0.0000
     46 H10        9.9811   -1.9269    2.9116 H         1 RES1    0.0000
     47 H11        9.0282   -1.2846    1.9361 H         1 RES1    0.0000
     48 H12       10.5184    0.2771    3.6170 H         1 RES1    0.0000
     49 H13        9.4444    0.9068    2.6865 H         1 RES1    0.0000
     50 H14       10.7047    0.2645    0.7954 H         1 RES1    0.0000
     51 H15       11.5948    1.3224    1.7710 H         1 RES1    0.0000
     52 H16       13.2182    1.1209    3.6170 H         1 RES1    0.0000
     53 H17       15.2078    0.9194    4.6225 H         1 RES1    0.0000
     54 H18       16.5955   -0.9445    4.1723 H         1 RES1    0.0000
     55 H19       16.0237   -2.5440    2.5514 H         1 RES1    0.0000
     56 H20       14.6274   -4.0301    0.6303 H         1 RES1    0.0000
     57 H21       13.0761   -4.7857   -0.9905 H         1 RES1    0.0000
     58 H22       11.1853   -3.6900   -1.3657 H         1 RES1    0.0000
     59 H23       10.6041   -1.7506   -0.2401 H         1 RES1    0.0000
@<TRIPOS>BOND
     1    1    5 2
     2    2    5 2
     3    3    6 2
     4    4    6 2
     5    5   12 1
     6    6   17 1
     7    7    8 ar
     8    8    9 1
     9    9   10 ar
    10   10   18 ar
    11   11    7 ar
    12   12   11 ar
    13   13   12 ar
    14   14    8 ar
    15   15    9 ar
    16   16   15 ar
    17   17   16 ar
    18   18   17 ar
    19   19    7 1
    20   20   19 1
    21   21   19 1
    22   22   21 1
    23   23   22 1
    24   24   23 1
    25   25   24 1
    26   26   25 ar
    27   27   26 1
    28   28   24 1
    29   29   25 ar
    30   30   29 ar
    31   31   30 ar
    32   32   26 ar
    33   33   27 ar
    34   34   33 ar
    35   35   34 ar
    36   36   28 ar
    37   37   11 1
    38   38   13 1
    39   39   14 1
    40   40   15 1
    41   41   16 1
    42   42   18 1
    43   43   20 1
    44   44   20 1
    45   45   20 1
    46   46   21 1
    47   47   21 1
    48   48   22 1
    49   49   22 1
    50   50   23 1
    51   51   23 1
    52   52   29 1
    53   53   30 1
    54   54   31 1
    55   55   32 1
    56   56   33 1
    57   57   34 1
    58   58   35 1
    59   59   36 1
    60   10   19 1
    61   13   14 ar
    62   27   28 ar
    63   31   32 ar
    64   35   36 ar
@<TRIPOS>SUBSTRUCTURE
     1 RES1 1

@<TRIPOS>CRYSIN
  12.5570   12.5940   15.2540  90.0000 100.3000  90.0000 231 1

