# MOL2 file generated by ConQuest
# Please check atom types

@<TRIPOS>MOLECULE
DUWXOK
   124   132     2
SMALL
NO_CHARGES
****
Generated from CSD

@<TRIPOS>ATOM
      1 C1         8.7578   -6.5352    3.3991 C.ar      1 RES1    0.0000
      2 C2         9.0547   -5.6229    4.3833 C.ar      1 RES1    0.0000
      3 H1         9.3629   -5.9111    5.2351 H         1 RES1    0.0000
      4 C3         8.8946   -4.2747    4.1104 C.ar      1 RES1    0.0000
      5 H2         9.0739   -3.6347    4.7902 H         1 RES1    0.0000
      6 C4         8.4725   -3.8397    2.8518 C.ar      1 RES1    0.0000
      7 C5         8.1910   -4.7903    1.8872 C.ar      1 RES1    0.0000
      8 H3         7.9009   -4.5035    1.0302 H         1 RES1    0.0000
      9 C6         8.3182   -6.1463    2.1339 C.ar      1 RES1    0.0000
     10 H4         8.1140   -6.7894    1.4646 H         1 RES1    0.0000
     11 C7         8.4006   -2.3783    2.5828 C.2       1 RES1    0.0000
     12 H5         8.1848   -1.8003    3.3059 H         1 RES1    0.0000
     13 C8         8.6198   -1.8350    1.3964 C.2       1 RES1    0.0000
     14 H6         8.8102   -2.4376    0.6864 H         1 RES1    0.0000
     15 C9         8.6020   -0.4003    1.0499 C.ar      1 RES1    0.0000
     16 C10        8.2030    0.5945    1.9239 C.ar      1 RES1    0.0000
     17 H7         7.9763    0.3699    2.8190 H         1 RES1    0.0000
     18 C11        8.1299    1.9154    1.5092 C.ar      1 RES1    0.0000
     19 H8         7.8864    2.5875    2.1352 H         1 RES1    0.0000
     20 C12        8.4076    2.2813    0.1877 C.ar      1 RES1    0.0000
     21 C13        8.8868    1.2831   -0.6627 C.ar      1 RES1    0.0000
     22 H9         9.1507    1.5081   -1.5473 H         1 RES1    0.0000
     23 C14        8.9820   -0.0245   -0.2389 C.ar      1 RES1    0.0000
     24 H10        9.3131   -0.6848   -0.8360 H         1 RES1    0.0000
     25 C15        8.1810    3.6781   -0.2933 C.2       1 RES1    0.0000
     26 C16        8.7205    4.7662    0.5810 C.ar      1 RES1    0.0000
     27 C17       10.0104    4.6698    1.0880 C.ar      1 RES1    0.0000
     28 H11       10.5386    3.9059    0.8872 H         1 RES1    0.0000
     29 C18       10.5385    5.6817    1.8872 C.ar      1 RES1    0.0000
     30 H12       11.4301    5.6151    2.2087 H         1 RES1    0.0000
     31 C19        9.7737    6.7776    2.2127 C.ar      1 RES1    0.0000
     32 H13       10.1306    7.4571    2.7730 H         1 RES1    0.0000
     33 C20        8.4724    6.8926    1.7205 C.ar      1 RES1    0.0000
     34 H14        7.9445    7.6525    1.9331 H         1 RES1    0.0000
     35 C21        7.9582    5.8834    0.9173 C.ar      1 RES1    0.0000
     36 H15        7.0696    5.9566    0.5893 H         1 RES1    0.0000
     37 C22        7.5211    3.9327   -1.4541 C.2       1 RES1    0.0000
     38 C23        7.4023    5.2883   -2.0448 C.ar      1 RES1    0.0000
     39 C24        8.5180    6.0987   -2.2166 C.ar      1 RES1    0.0000
     40 H16        9.3740    5.7802   -1.9515 H         1 RES1    0.0000
     41 C25        8.4002    7.3702   -2.7717 C.ar      1 RES1    0.0000
     42 H17        9.1705    7.9124   -2.8912 H         1 RES1    0.0000
     43 C26        7.1630    7.8365   -3.1444 C.ar      1 RES1    0.0000
     44 H18        7.0762    8.7110   -3.5067 H         1 RES1    0.0000
     45 C27        6.0494    7.0438   -2.9935 C.ar      1 RES1    0.0000
     46 H19        5.1975    7.3755   -3.2521 H         1 RES1    0.0000
     47 C28        6.1577    5.7693   -2.4712 C.ar      1 RES1    0.0000
     48 H20        5.3865    5.2186   -2.4016 H         1 RES1    0.0000
     49 C29        6.8504    2.8510   -2.2612 C.ar      1 RES1    0.0000
     50 C30        7.3206    2.5708   -3.5460 C.ar      1 RES1    0.0000
     51 H21        8.0659    3.0428   -3.8991 H         1 RES1    0.0000
     52 C31        6.6834    1.5940   -4.3033 C.ar      1 RES1    0.0000
     53 H22        7.0195    1.3791   -5.1655 H         1 RES1    0.0000
     54 C32        5.5798    0.9362   -3.8295 C.ar      1 RES1    0.0000
     55 H23        5.1519    0.2789   -4.3650 H         1 RES1    0.0000
     56 C33        5.0929    1.2302   -2.5775 C.ar      1 RES1    0.0000
     57 H24        4.3224    0.7835   -2.2481 H         1 RES1    0.0000
     58 C34        5.7362    2.1903   -1.7927 C.ar      1 RES1    0.0000
     59 H25        5.4016    2.3902   -0.9265 H         1 RES1    0.0000
     60 N1         8.8886   -7.9545    3.6904 N.pl3     1 RES1    0.0000
     61 O1         8.6799   -8.7717    2.8006 O.2       1 RES1    0.0000
     62 O2         9.2042   -8.2895    4.8269 O.2       1 RES1    0.0000
     63 C35        7.2974   -6.9267    7.4254 C.ar      2 RES2    0.0000
     64 C36        7.9334   -5.8775    8.0580 C.ar      2 RES2    0.0000
     65 H26        8.5833   -6.0249    8.7352 H         2 RES2    0.0000
     66 C37        7.5695   -4.5778    7.6511 C.ar      2 RES2    0.0000
     67 H27        7.9842   -3.8262    8.0593 H         2 RES2    0.0000
     68 C38        6.6194   -4.3783    6.6682 C.ar      2 RES2    0.0000
     69 C39        6.0410   -5.4520    6.0671 C.ar      2 RES2    0.0000
     70 H28        5.4044   -5.3173    5.3755 H         2 RES2    0.0000
     71 C40        6.3678   -6.7213    6.4490 C.ar      2 RES2    0.0000
     72 H29        5.9460   -7.4647    6.0330 H         2 RES2    0.0000
     73 C41        6.1326   -3.0295    6.2154 C.2       2 RES2    0.0000
     74 H30        5.3197   -3.0048    5.7246 H         2 RES2    0.0000
     75 C42        6.7118   -1.9236    6.4333 C.2       2 RES2    0.0000
     76 H31        7.5046   -1.9520    6.9569 H         2 RES2    0.0000
     77 C43        6.2747   -0.5831    5.9477 C.ar      2 RES2    0.0000
     78 C44        7.2358    0.3862    5.8007 C.ar      2 RES2    0.0000
     79 H32        8.1301    0.2030    6.0619 H         2 RES2    0.0000
     80 C45        6.9176    1.6309    5.2757 C.ar      2 RES2    0.0000
     81 H33        7.5972    2.2897    5.1839 H         2 RES2    0.0000
     82 C46        5.6136    1.9266    4.8794 C.ar      2 RES2    0.0000
     83 C47        4.6303    0.9715    5.0802 C.ar      2 RES2    0.0000
     84 H34        3.7288    1.1704    4.8545 H         2 RES2    0.0000
     85 C48        4.9447   -0.2747    5.6104 C.ar      2 RES2    0.0000
     86 H35        4.2599   -0.9200    5.7443 H         2 RES2    0.0000
     87 C49        5.3223    3.2778    4.3168 C.2       2 RES2    0.0000
     88 C50        5.9900    4.3995    5.0474 C.ar      2 RES2    0.0000
     89 C51        5.7810    4.5221    6.4359 C.ar      2 RES2    0.0000
     90 H36        5.2744    3.8623    6.8939 H         2 RES2    0.0000
     91 C52        6.3067    5.5929    7.1393 C.ar      2 RES2    0.0000
     92 H37        6.1380    5.6758    8.0711 H         2 RES2    0.0000
     93 C53        7.0713    6.5374    6.4936 C.ar      2 RES2    0.0000
     94 H38        7.4268    7.2731    6.9792 H         2 RES2    0.0000
     95 C54        7.3207    6.4155    5.1353 C.ar      2 RES2    0.0000
     96 H39        7.8572    7.0606    4.6891 H         2 RES2    0.0000
     97 C55        6.7823    5.3429    4.4280 C.ar      2 RES2    0.0000
     98 H40        6.9650    5.2604    3.4988 H         2 RES2    0.0000
     99 C56        4.5129    3.5053    3.2508 C.2       2 RES2    0.0000
    100 C57        4.1979    4.8857    2.7678 C.ar      2 RES2    0.0000
    101 C58        3.7428    5.8741    3.6274 C.ar      2 RES2    0.0000
    102 H41        3.5967    5.6720    4.5434 H         2 RES2    0.0000
    103 C59        3.5006    7.1580    3.1549 C.ar      2 RES2    0.0000
    104 H42        3.1904    7.8251    3.7560 H         2 RES2    0.0000
    105 C60        3.7004    7.4763    1.8360 C.ar      2 RES2    0.0000
    106 H43        3.5526    8.3620    1.5276 H         2 RES2    0.0000
    107 C61        4.1251    6.4794    0.9541 C.ar      2 RES2    0.0000
    108 H44        4.2513    6.6812    0.0341 H         2 RES2    0.0000
    109 C62        4.3625    5.1936    1.4239 C.ar      2 RES2    0.0000
    110 H45        4.6406    4.5168    0.8189 H         2 RES2    0.0000
    111 C63        3.8754    2.4115    2.4187 C.ar      2 RES2    0.0000
    112 C64        2.5051    2.4081    2.2389 C.ar      2 RES2    0.0000
    113 H46        1.9743    3.0561    2.6877 H         2 RES2    0.0000
    114 C65        1.8874    1.4726    1.4108 C.ar      2 RES2    0.0000
    115 H47        0.9412    1.4645    1.3229 H         2 RES2    0.0000
    116 C66        2.6534    0.5619    0.7205 C.ar      2 RES2    0.0000
    117 H48        2.2436   -0.0531    0.1247 H         2 RES2    0.0000
    118 C67        4.0099    0.5473    0.8977 C.ar      2 RES2    0.0000
    119 H49        4.5354   -0.0948    0.4357 H         2 RES2    0.0000
    120 C68        4.6361    1.4651    1.7507 C.ar      2 RES2    0.0000
    121 H50        5.5777    1.4398    1.8701 H         2 RES2    0.0000
    122 N2         7.5972   -8.2872    7.8664 N.pl3     2 RES2    0.0000
    123 O3         6.9961   -9.2003    7.3296 O.2       2 RES2    0.0000
    124 O4         8.4125   -8.4574    8.7522 O.2       2 RES2    0.0000
@<TRIPOS>BOND
     1    1    2 ar
     2    2    3 1
     3    4    2 ar
     4    5    4 1
     5    6    4 ar
     6    7    6 ar
     7    8    7 1
     8    9    1 ar
     9   10    9 1
    10   11    6 1
    11   12   11 1
    12   13   11 2
    13   14   13 1
    14   15   13 1
    15   16   15 ar
    16   17   16 1
    17   18   16 ar
    18   19   18 1
    19   20   18 ar
    20   21   20 ar
    21   22   21 1
    22   23   15 ar
    23   24   23 1
    24   25   20 1
    25   26   25 1
    26   27   26 ar
    27   28   27 1
    28   29   27 ar
    29   30   29 1
    30   31   29 ar
    31   32   31 1
    32   33   31 ar
    33   34   33 1
    34   35   26 ar
    35   36   35 1
    36   37   25 2
    37   38   37 1
    38   39   38 ar
    39   40   39 1
    40   41   39 ar
    41   42   41 1
    42   43   41 ar
    43   44   43 1
    44   45   43 ar
    45   46   45 1
    46   47   38 ar
    47   48   47 1
    48   49   37 1
    49   50   49 ar
    50   51   50 1
    51   52   50 ar
    52   53   52 1
    53   54   52 ar
    54   55   54 1
    55   56   54 ar
    56   57   56 1
    57   58   49 ar
    58   59   58 1
    59   60    1 1
    60   61   60 2
    61   62   60 2
    62   63   64 ar
    63   64   65 1
    64   66   64 ar
    65   67   66 1
    66   68   66 ar
    67   69   68 ar
    68   70   69 1
    69   71   63 ar
    70   72   71 1
    71   73   68 1
    72   74   73 1
    73   75   73 2
    74   76   75 1
    75   77   75 1
    76   78   77 ar
    77   79   78 1
    78   80   78 ar
    79   81   80 1
    80   82   80 ar
    81   83   82 ar
    82   84   83 1
    83   85   77 ar
    84   86   85 1
    85   87   82 1
    86   88   87 1
    87   89   88 ar
    88   90   89 1
    89   91   89 ar
    90   92   91 1
    91   93   91 ar
    92   94   93 1
    93   95   93 ar
    94   96   95 1
    95   97   88 ar
    96   98   97 1
    97   99   87 2
    98  100   99 1
    99  101  100 ar
   100  102  101 1
   101  103  101 ar
   102  104  103 1
   103  105  103 ar
   104  106  105 1
   105  107  105 ar
   106  108  107 1
   107  109  100 ar
   108  110  109 1
   109  111   99 1
   110  112  111 ar
   111  113  112 1
   112  114  112 ar
   113  115  114 1
   114  116  114 ar
   115  117  116 1
   116  118  116 ar
   117  119  118 1
   118  120  111 ar
   119  121  120 1
   120  122   63 1
   121  123  122 2
   122  124  122 2
   123    7    9 ar
   124   21   23 ar
   125   33   35 ar
   126   45   47 ar
   127   56   58 ar
   128   69   71 ar
   129   83   85 ar
   130   95   97 ar
   131  107  109 ar
   132  118  120 ar
@<TRIPOS>SUBSTRUCTURE
     1 RES1 1
     2 RES2 63

@<TRIPOS>CRYSIN
  10.2020   18.9700   13.2630  90.0000  98.3100  90.0000   4 1

