# MOL2 file generated by ConQuest
# Please check atom types

@<TRIPOS>MOLECULE
DUWXIE
   157   162     3
SMALL
NO_CHARGES
****
Generated from CSD

@<TRIPOS>ATOM
      1 C1         2.2123   14.2568    3.7655 C.ar      1 RES1    0.0000
      2 H1         2.6185   13.9528    4.5691 H         1 RES1    0.0000
      3 C2         1.1192   15.1074    3.8222 C.ar      1 RES1    0.0000
      4 H2         0.7855   15.3886    4.6661 H         1 RES1    0.0000
      5 C3         0.5131   15.5525    2.6690 C.ar      1 RES1    0.0000
      6 H3        -0.2313   16.1412    2.7166 H         1 RES1    0.0000
      7 C4         0.9932   15.1345    1.4352 C.ar      1 RES1    0.0000
      8 H4         0.5799   15.4378    0.6352 H         1 RES1    0.0000
      9 C5         2.0774   14.2729    1.3724 C.ar      1 RES1    0.0000
     10 H5         2.3870   13.9715    0.5272 H         1 RES1    0.0000
     11 C6         2.7197   13.8443    2.5284 C.ar      1 RES1    0.0000
     12 C7         3.9236   12.9682    2.4052 C.2       1 RES1    0.0000
     13 C8         3.6955   11.7264    1.6032 C.ar      1 RES1    0.0000
     14 C9         2.7510   10.8077    2.0462 C.ar      1 RES1    0.0000
     15 H6         2.2430   10.9947    2.8282 H         1 RES1    0.0000
     16 C10        2.5419    9.6135    1.3528 C.ar      1 RES1    0.0000
     17 H7         1.9012    8.9877    1.6695 H         1 RES1    0.0000
     18 C11        3.2649    9.3427    0.2105 C.ar      1 RES1    0.0000
     19 H8         3.1319    8.5246   -0.2544 H         1 RES1    0.0000
     20 C12        4.1827   10.2656   -0.2577 C.ar      1 RES1    0.0000
     21 H9         4.6612   10.0901   -1.0599 H         1 RES1    0.0000
     22 C13        4.4106   11.4455    0.4357 C.ar      1 RES1    0.0000
     23 H10        5.0552   12.0659    0.1153 H         1 RES1    0.0000
     24 C14        6.1959   10.9912    3.1812 C.ar      1 RES1    0.0000
     25 H11        5.3633   10.6375    3.4708 H         1 RES1    0.0000
     26 C15        7.2862   10.1546    3.0691 C.ar      1 RES1    0.0000
     27 H12        7.2060    9.2372    3.2987 H         1 RES1    0.0000
     28 C16        8.4959   10.6512    2.6225 C.ar      1 RES1    0.0000
     29 H13        9.2408   10.0708    2.5189 H         1 RES1    0.0000
     30 C17        8.6134   11.9929    2.3288 C.ar      1 RES1    0.0000
     31 H14        9.4469   12.3400    2.0338 H         1 RES1    0.0000
     32 C18        7.5251   12.8417    2.4616 C.ar      1 RES1    0.0000
     33 H15        7.6208   13.7671    2.2681 H         1 RES1    0.0000
     34 C19        6.2944   12.3438    2.8775 C.ar      1 RES1    0.0000
     35 C20        5.1102   13.2660    2.9703 C.2       1 RES1    0.0000
     36 C21        5.3277   14.5059    3.7627 C.ar      1 RES1    0.0000
     37 C22        5.9100   14.4323    5.0341 C.ar      1 RES1    0.0000
     38 H16        6.2535   13.5990    5.3361 H         1 RES1    0.0000
     39 C23        6.0007   15.5256    5.8596 C.ar      1 RES1    0.0000
     40 H17        6.3977   15.4330    6.7182 H         1 RES1    0.0000
     41 C24        5.5229   16.7542    5.4606 C.ar      1 RES1    0.0000
     42 C25        5.0061   16.8742    4.1462 C.ar      1 RES1    0.0000
     43 H18        4.7163   17.7208    3.8277 H         1 RES1    0.0000
     44 C26        4.9193   15.7608    3.3170 C.ar      1 RES1    0.0000
     45 H19        4.5767   15.8566    2.4365 H         1 RES1    0.0000
     46 C27        5.5985   17.8799    6.4015 C.2       1 RES1    0.0000
     47 H20        6.0134   17.7086    7.2399 H         1 RES1    0.0000
     48 C28        5.1708   19.0495    6.2111 C.2       1 RES1    0.0000
     49 H21        4.7426   19.1888    5.3745 H         1 RES1    0.0000
     50 C29        5.2311   20.2598    7.1026 C.ar      1 RES1    0.0000
     51 C30        5.4393   20.2571    8.4737 C.ar      1 RES1    0.0000
     52 H22        5.6133   19.4361    8.9203 H         1 RES1    0.0000
     53 C31        5.3987   21.4241    9.1968 C.ar      1 RES1    0.0000
     54 H23        5.5616   21.3949   10.1322 H         1 RES1    0.0000
     55 C32        5.1243   22.6418    8.5982 C.ar      1 RES1    0.0000
     56 C33        4.9641   22.6545    7.2124 C.ar      1 RES1    0.0000
     57 H24        4.8201   23.4784    6.7621 H         1 RES1    0.0000
     58 C34        5.0141   21.4699    6.4912 C.ar      1 RES1    0.0000
     59 H25        4.8945   21.4978    5.5484 H         1 RES1    0.0000
     60 C35        5.0273   23.7119    9.6434 C.2       1 RES1    0.0000
     61 H26        5.1539   23.5153   10.5642 H         1 RES1    0.0000
     62 C36        4.7607   24.9292    9.2407 C.2       1 RES1    0.0000
     63 H27        4.6236   25.1018    8.3163 H         1 RES1    0.0000
     64 C37        4.6681   26.0788   10.2585 C.ar      1 RES1    0.0000
     65 C38        4.6917   26.1195   11.6424 C.ar      1 RES1    0.0000
     66 H28        4.8403   25.3183   12.1312 H         1 RES1    0.0000
     67 C39        4.5028   27.3083   12.3252 C.ar      1 RES1    0.0000
     68 H29        4.4936   27.3228   13.2753 H         1 RES1    0.0000
     69 C40        4.3287   28.4563   11.6131 C.ar      1 RES1    0.0000
     70 C41        4.3440   28.4607   10.2310 C.ar      1 RES1    0.0000
     71 H30        4.2590   29.2709    9.7423 H         1 RES1    0.0000
     72 C42        4.4864   27.2591    9.5885 C.ar      1 RES1    0.0000
     73 H31        4.4580   27.2446    8.6384 H         1 RES1    0.0000
     74 N1         4.0725   29.7136   12.3087 N.pl3     1 RES1    0.0000
     75 O1         4.2928   30.7170   11.7559 O.2       1 RES1    0.0000
     76 O2         3.5646   29.6507   13.4235 O.2       1 RES1    0.0000
     77 C43        4.9381   24.2174    8.8105 Du        3 SUP3    0.0000
     78 H32        4.8736   24.8212    8.0801 Du        3 SUP3    0.0000
     79 C44        4.8803   24.6291   10.0699 Du        3 SUP3    0.0000
     80 H33        4.9698   24.0310   10.8022 Du        3 SUP3    0.0000
     81 C45        6.9748    3.8316    2.2613 C.ar      2 RES2    0.0000
     82 H34        7.0887    4.7240    1.9550 H         2 RES2    0.0000
     83 C46        8.0490    2.9604    2.2443 C.ar      2 RES2    0.0000
     84 H35        8.8939    3.2590    1.9276 H         2 RES2    0.0000
     85 C47        7.8998    1.6621    2.6865 C.ar      2 RES2    0.0000
     86 H36        8.6411    1.0672    2.6763 H         2 RES2    0.0000
     87 C48        6.6686    1.2298    3.1460 C.ar      2 RES2    0.0000
     88 H37        6.5605    0.3373    3.4543 H         2 RES2    0.0000
     89 C49        5.5991    2.1027    3.1528 C.ar      2 RES2    0.0000
     90 H38        4.7529    1.7985    3.4598 H         2 RES2    0.0000
     91 C50        5.7306    3.4164    2.7197 C.ar      2 RES2    0.0000
     92 C51        4.5775    4.3748    2.7989 C.2       2 RES2    0.0000
     93 C52        3.3646    4.0416    2.3029 C.2       2 RES2    0.0000
     94 C53        3.1138    2.7733    1.5538 C.ar      2 RES2    0.0000
     95 C54        3.7871    2.4587    0.3683 C.ar      2 RES2    0.0000
     96 H39        4.4263    3.0661    0.0128 H         2 RES2    0.0000
     97 C55        3.5275    1.2628   -0.2944 C.ar      2 RES2    0.0000
     98 H40        3.9743    1.0705   -1.1112 H         2 RES2    0.0000
     99 C56        2.6270    0.3555    0.2233 C.ar      2 RES2    0.0000
    100 H41        2.4770   -0.4728   -0.2178 H         2 RES2    0.0000
    101 C57        1.9449    0.6574    1.3857 C.ar      2 RES2    0.0000
    102 H42        1.3177    0.0372    1.7390 H         2 RES2    0.0000
    103 C58        2.1713    1.8612    2.0400 C.ar      2 RES2    0.0000
    104 H43        1.6810    2.0678    2.8264 H         2 RES2    0.0000
    105 C59        1.5084    5.3862    1.3290 C.ar      2 RES2    0.0000
    106 H44        1.8565    5.1749    0.4705 H         2 RES2    0.0000
    107 C60        0.3882    6.2015    1.4297 C.ar      2 RES2    0.0000
    108 H45       -0.0141    6.5596    0.6462 H         2 RES2    0.0000
    109 C61       -0.1391    6.4936    2.6708 C.ar      2 RES2    0.0000
    110 H46       -0.8931    7.0673    2.7458 H         2 RES2    0.0000
    111 C62        0.4275    5.9524    3.7966 C.ar      2 RES2    0.0000
    112 H47        0.0465    6.1312    4.6496 H         2 RES2    0.0000
    113 C63        1.5583    5.1459    3.7014 C.ar      2 RES2    0.0000
    114 H48        1.9444    4.7794    4.4885 H         2 RES2    0.0000
    115 C64        2.1245    4.8744    2.4594 C.ar      2 RES2    0.0000
    116 C65        4.8467    5.6458    3.5334 C.ar      2 RES2    0.0000
    117 C66        4.1798    6.8485    3.2690 C.ar      2 RES2    0.0000
    118 H49        3.5969    6.9014    2.5207 H         2 RES2    0.0000
    119 C67        4.3482    7.9578    4.0712 C.ar      2 RES2    0.0000
    120 H50        3.8521    8.7456    3.8790 H         2 RES2    0.0000
    121 C68        5.2318    7.9552    5.1646 C.ar      2 RES2    0.0000
    122 C69        5.9961    6.7978    5.3392 C.ar      2 RES2    0.0000
    123 H51        6.6625    6.7833    6.0152 H         2 RES2    0.0000
    124 C70        5.8085    5.6706    4.5541 C.ar      2 RES2    0.0000
    125 H52        6.3424    4.8999    4.7100 H         2 RES2    0.0000
    126 C71        5.3816    9.0971    6.0480 C.2       2 RES2    0.0000
    127 H53        6.1520    9.1190    6.6047 H         2 RES2    0.0000
    128 C72        4.5234   10.1241    6.1447 C.2       2 RES2    0.0000
    129 H54        3.7470   10.0662    5.5997 H         2 RES2    0.0000
    130 C73        4.6277   11.3202    6.9794 C.ar      2 RES2    0.0000
    131 C74        3.5658   12.2362    6.9671 C.ar      2 RES2    0.0000
    132 H55        2.8067   12.0633    6.4198 H         2 RES2    0.0000
    133 C75        3.6051   13.3882    7.7378 C.ar      2 RES2    0.0000
    134 H56        2.8727   13.9923    7.7085 H         2 RES2    0.0000
    135 C76        4.6945   13.6754    8.5544 C.ar      2 RES2    0.0000
    136 C77        5.7469   12.7664    8.5614 C.ar      2 RES2    0.0000
    137 H57        6.5051   12.9393    9.1089 H         2 RES2    0.0000
    138 C78        5.7174   11.6198    7.7909 C.ar      2 RES2    0.0000
    139 H58        6.4557   11.0240    7.8165 H         2 RES2    0.0000
    140 C79        4.7936   14.9179    9.3725 C.2       2 RES2    0.0000
    141 H59        5.6251   15.0900    9.8008 H         2 RES2    0.0000
    142 C80        3.8422   15.7858    9.5537 C.2       2 RES2    0.0000
    143 H60        3.0146   15.5931    9.1309 H         2 RES2    0.0000
    144 C81        3.8967   17.0313   10.3372 C.ar      2 RES2    0.0000
    145 C82        2.7781   17.8412   10.3372 C.ar      2 RES2    0.0000
    146 H61        2.0089   17.5676    9.8503 H         2 RES2    0.0000
    147 C83        2.7506   19.0297   11.0182 C.ar      2 RES2    0.0000
    148 H62        1.9695   19.5702   11.0145 H         2 RES2    0.0000
    149 C84        3.8617   19.4197   11.7028 C.ar      2 RES2    0.0000
    150 C85        5.0126   18.6846   11.7211 C.ar      2 RES2    0.0000
    151 H63        5.7835   18.9983   12.1806 H         2 RES2    0.0000
    152 C86        5.0300   17.4615   11.0475 C.ar      2 RES2    0.0000
    153 H64        5.8092   16.9206   11.0694 H         2 RES2    0.0000
    154 N2         3.8141   20.7129   12.3472 N.pl3     2 RES2    0.0000
    155 O3         4.8497   21.2966   12.5968 O.2       2 RES2    0.0000
    156 O4         2.7455   20.8638   13.1105 O.2       2 RES2    0.0000
    157 O5         2.8588   21.6176   11.8767 Du        3 SUP3    0.0000
@<TRIPOS>BOND
     1    1    2 1
     2    3    1 ar
     3    4    3 1
     4    5    3 ar
     5    6    5 1
     6    7    5 ar
     7    8    7 1
     8    9    7 ar
     9   10    9 1
    10   11    1 ar
    11   12   11 1
    12   13   12 1
    13   14   13 ar
    14   15   14 1
    15   16   14 ar
    16   17   16 1
    17   18   16 ar
    18   19   18 1
    19   20   18 ar
    20   21   20 1
    21   22   13 ar
    22   23   22 1
    23   24   25 1
    24   26   24 ar
    25   27   26 1
    26   28   26 ar
    27   29   28 1
    28   30   28 ar
    29   31   30 1
    30   32   30 ar
    31   33   32 1
    32   34   24 ar
    33   35   12 2
    34   36   35 1
    35   37   36 ar
    36   38   37 1
    37   39   37 ar
    38   40   39 1
    39   41   39 ar
    40   42   41 ar
    41   43   42 1
    42   44   36 ar
    43   45   44 1
    44   46   41 1
    45   47   46 1
    46   48   46 2
    47   49   48 1
    48   50   48 1
    49   51   50 ar
    50   52   51 1
    51   53   51 ar
    52   54   53 1
    53   55   53 ar
    54   56   55 ar
    55   57   56 1
    56   58   50 ar
    57   59   58 1
    58   60   55 1
    59   61   60 1
    60   62   60 2
    61   63   62 1
    62   64   62 1
    63   65   64 ar
    64   66   65 1
    65   67   65 ar
    66   68   67 1
    67   69   67 ar
    68   70   69 ar
    69   71   70 1
    70   72   64 ar
    71   73   72 1
    72   74   69 1
    73   75   74 2
    74   76   74 2
    75   81   82 1
    76   83   81 ar
    77   84   83 1
    78   85   83 ar
    79   86   85 1
    80   87   85 ar
    81   88   87 1
    82   89   87 ar
    83   90   89 1
    84   91   81 ar
    85   92   91 1
    86   93   92 2
    87   94   93 1
    88   95   94 ar
    89   96   95 1
    90   97   95 ar
    91   98   97 1
    92   99   97 ar
    93  100   99 1
    94  101   99 ar
    95  102  101 1
    96  103   94 ar
    97  104  103 1
    98  105  106 1
    99  107  105 ar
   100  108  107 1
   101  109  107 ar
   102  110  109 1
   103  111  109 ar
   104  112  111 1
   105  113  111 ar
   106  114  113 1
   107  115   93 1
   108  116   92 1
   109  117  116 ar
   110  118  117 1
   111  119  117 ar
   112  120  119 1
   113  121  119 ar
   114  122  121 ar
   115  123  122 1
   116  124  116 ar
   117  125  124 1
   118  126  121 1
   119  127  126 1
   120  128  126 2
   121  129  128 1
   122  130  128 1
   123  131  130 ar
   124  132  131 1
   125  133  131 ar
   126  134  133 1
   127  135  133 ar
   128  136  135 ar
   129  137  136 1
   130  138  130 ar
   131  139  138 1
   132  140  135 1
   133  141  140 1
   134  142  140 2
   135  143  142 1
   136  144  142 1
   137  145  144 ar
   138  146  145 1
   139  147  145 ar
   140  148  147 1
   141  149  147 ar
   142  150  149 ar
   143  151  150 1
   144  152  144 ar
   145  153  152 1
   146  154  149 1
   147  155  154 2
   148  156  154 2
   149    9   11 ar
   150   20   22 ar
   151   32   34 ar
   152   34   35 1
   153   42   44 ar
   154   56   58 ar
   155   70   72 ar
   156   89   91 ar
   157  101  103 ar
   158  105  115 ar
   159  113  115 ar
   160  122  124 ar
   161  136  138 ar
   162  150  152 ar
@<TRIPOS>SUBSTRUCTURE
     1 RES1 1
     2 RES2 81
     3 SUP3 77

@<TRIPOS>CRYSIN
   9.3960   17.9590   18.6900  79.8960  83.6100  86.1170   2 1

