# MOL2 file generated by ConQuest
# Please check atom types

@<TRIPOS>MOLECULE
DUWZEC
    20    19     1
SMALL
NO_CHARGES
****
Generated from CSD

@<TRIPOS>ATOM
      1 H1         1.8440    0.1226    4.4531 H         1 RES1    0.0000
      2 O1         2.6661    1.4979    3.3005 O.3       1 RES1    0.0000
      3 O2         2.3957   -0.7073    2.7506 O.3       1 RES1    0.0000
      4 O3         0.9825    2.1588    4.6621 O.2       1 RES1    0.0000
      5 O4         0.9820   -1.5990    1.3447 O.2       1 RES1    0.0000
      6 N1         1.7233    2.4766    3.7861 N.pl3     1 RES1    0.0000
      7 C1         2.5271    0.1874    3.8324 C.3       1 RES1    0.0000
      8 N2         1.0331   -0.8729    2.2871 N.pl3     1 RES1    0.0000
      9 O5         0.1854   -0.2707    2.8707 O.2       1 RES1    0.0000
     10 O6         1.8628    3.5125    3.2102 O.2       1 RES1    0.0000
     11 H1B        4.5486   -0.1226    3.8426 H         1 RES1    0.0000
     12 O1B        3.7265   -1.4979    4.9952 O.3       1 RES1    0.0000
     13 O2B        3.9969    0.7073    5.5451 O.3       1 RES1    0.0000
     14 O3B        5.4101   -2.1588    3.6336 O.2       1 RES1    0.0000
     15 O4B        5.4106    1.5990    6.9510 O.2       1 RES1    0.0000
     16 N1B        4.6693   -2.4766    4.5096 N.pl3     1 RES1    0.0000
     17 C1B        3.8655   -0.1874    4.4633 C.3       1 RES1    0.0000
     18 N2B        5.3595    0.8729    6.0086 N.pl3     1 RES1    0.0000
     19 O5B        6.2073    0.2707    5.4250 O.2       1 RES1    0.0000
     20 O6B        4.5298   -3.5125    5.0855 O.2       1 RES1    0.0000
@<TRIPOS>BOND
     1    1    7 1
     2    2    6 1
     3    3    7 1
     4    4    6 2
     5    5    8 2
     6    6   10 2
     7    7    2 1
     8    8    3 1
     9    9    8 2
    10   11   17 1
    11   12   16 1
    12   13   17 1
    13   14   16 2
    14   15   18 2
    15   16   20 2
    16   17    7 1
    17   18   13 1
    18   19   18 2
    19   12   17 1
@<TRIPOS>SUBSTRUCTURE
     1 RES1 1

@<TRIPOS>CRYSIN
   7.5489    7.2995    8.3759  90.0000  97.9350  90.0000  14 1

