# MOL2 file generated by ConQuest
# Please check atom types

@<TRIPOS>MOLECULE
DUXDEH
    42    45     1
SMALL
NO_CHARGES
****
Generated from CSD

@<TRIPOS>ATOM
      1 O1        -0.6983    3.4121    1.4453 O.3       1 RES1    0.0000
      2 O2        -4.4410    2.1681   -3.3716 O.2       1 RES1    0.0000
      3 O3        -4.9268    0.4526   -2.1305 O.2       1 RES1    0.0000
      4 N1         3.1958    6.8742    6.2221 N.pl3     1 RES1    0.0000
      5 N2        -4.2972    1.4962   -2.3488 N.pl3     1 RES1    0.0000
      6 C1         4.1914    6.6916    7.2055 C.ar      1 RES1    0.0000
      7 C2         4.6311    5.5068    7.7691 C.ar      1 RES1    0.0000
      8 C3         5.6227    5.6075    8.7364 C.ar      1 RES1    0.0000
      9 C4         6.1494    6.8431    9.1142 C.ar      1 RES1    0.0000
     10 C5         5.6860    8.0184    8.5445 C.ar      1 RES1    0.0000
     11 C6         4.6784    7.9507    7.5756 C.ar      1 RES1    0.0000
     12 C7         3.9615    8.9463    6.8094 C.ar      1 RES1    0.0000
     13 C8         3.9927   10.3446    6.7486 C.ar      1 RES1    0.0000
     14 C9         3.1204   10.9892    5.8955 C.ar      1 RES1    0.0000
     15 C10        2.2283   10.2863    5.0926 C.ar      1 RES1    0.0000
     16 C11        2.1829    8.8898    5.1155 C.ar      1 RES1    0.0000
     17 C12        3.0538    8.2584    5.9861 C.ar      1 RES1    0.0000
     18 C13        2.4797    5.9256    5.5981 C.1       1 RES1    0.0000
     19 C14        1.7832    5.1700    4.9859 C.1       1 RES1    0.0000
     20 C15        0.9470    4.3532    4.2625 C.1       1 RES1    0.0000
     21 C16        0.2128    3.6916    3.5819 C.1       1 RES1    0.0000
     22 C17       -0.7401    2.9134    2.7965 C.3       1 RES1    0.0000
     23 C18       -1.6013    2.8758    0.5712 C.ar      1 RES1    0.0000
     24 C19       -1.5979    3.4451   -0.7051 C.ar      1 RES1    0.0000
     25 C20       -2.4876    3.0075   -1.6594 C.ar      1 RES1    0.0000
     26 C21       -3.3529    1.9780   -1.3409 C.ar      1 RES1    0.0000
     27 C22       -3.3513    1.3908   -0.0879 C.ar      1 RES1    0.0000
     28 C23       -2.4764    1.8529    0.8760 C.ar      1 RES1    0.0000
     29 H1         4.2732    4.6665    7.5094 H         1 RES1    0.0000
     30 H2         5.9494    4.8171    9.1497 H         1 RES1    0.0000
     31 H3         6.8355    6.8789    9.7692 H         1 RES1    0.0000
     32 H4         6.0462    8.8569    8.8095 H         1 RES1    0.0000
     33 H5         4.6021   10.8396    7.2839 H         1 RES1    0.0000
     34 H6         3.1292   11.9387    5.8538 H         1 RES1    0.0000
     35 H7         1.6403   10.7634    4.5194 H         1 RES1    0.0000
     36 H8         1.5857    8.4005    4.5615 H         1 RES1    0.0000
     37 H9        -0.4947    1.9545    2.8141 H         1 RES1    0.0000
     38 H10       -1.6515    3.0122    3.1697 H         1 RES1    0.0000
     39 H11       -0.9808    4.1367   -0.9138 H         1 RES1    0.0000
     40 H12       -2.5066    3.4065   -2.5197 H         1 RES1    0.0000
     41 H13       -3.9456    0.6757    0.1071 H         1 RES1    0.0000
     42 H14       -2.4771    1.4689    1.7435 H         1 RES1    0.0000
@<TRIPOS>BOND
     1    1   22 1
     2    2    5 2
     3    3    5 2
     4    4    6 1
     5    5   26 1
     6    6    7 ar
     7    7    8 ar
     8    8    9 ar
     9    9   10 ar
    10   10   11 ar
    11   11    6 ar
    12   12   11 1
    13   13   12 ar
    14   14   13 ar
    15   15   14 ar
    16   16   15 ar
    17   17    4 1
    18   18    4 1
    19   19   18 3
    20   20   19 1
    21   21   20 3
    22   22   21 1
    23   23    1 1
    24   24   23 ar
    25   25   24 ar
    26   26   25 ar
    27   27   26 ar
    28   28   23 ar
    29   29    7 1
    30   30    8 1
    31   31    9 1
    32   32   10 1
    33   33   13 1
    34   34   14 1
    35   35   15 1
    36   36   16 1
    37   37   22 1
    38   38   22 1
    39   39   24 1
    40   40   25 1
    41   41   27 1
    42   42   28 1
    43   12   17 ar
    44   16   17 ar
    45   27   28 ar
@<TRIPOS>SUBSTRUCTURE
     1 RES1 1

@<TRIPOS>CRYSIN
   4.8672    9.4102   38.2479  90.0000  91.4610  90.0000  14 1

