# MOL2 file generated by ConQuest
# Please check atom types

@<TRIPOS>MOLECULE
DUXFOS
   104   103     4
SMALL
USER_CHARGES
****
Generated from CSD

@<TRIPOS>ATOM
      1 O1         7.8700    1.1224    2.0029 O.2       1 RES1   -1.0000
      2 O2        10.3446    2.2717    2.7294 O.3       1 RES1    0.0000
      3 H1        10.8779    1.7326    2.3683 H         1 RES1    0.0000
      4 N1         8.1477    2.3851    1.8161 N.pl3     1 RES1    1.0000
      5 C1         9.5697    2.8734    1.7591 C.3       1 RES1    0.0000
      6 H2         9.9544    2.6843    0.8562 H         1 RES1    0.0000
      7 C2         9.4067    4.3914    1.9442 C.3       1 RES1    0.0000
      8 C3         7.9914    4.6405    1.3762 C.3       1 RES1    0.0000
      9 H3         7.5378    5.3735    1.8637 H         1 RES1    0.0000
     10 H4         8.0310    4.8689    0.4135 H         1 RES1    0.0000
     11 C4         7.2806    3.3392    1.5880 C.2       1 RES1    0.0000
     12 C5         5.8735    3.0963    1.5383 C.2       1 RES1    0.0000
     13 H5         5.5760    2.1973    1.6104 H         1 RES1    0.0000
     14 C6         4.9482    4.0513    1.3977 C.2       1 RES1    0.0000
     15 H6         5.2620    4.9375    1.2698 H         1 RES1    0.0000
     16 C7         3.5024    3.8580    1.4230 C.ar      1 RES1    0.0000
     17 C8         2.6591    4.9727    1.2942 C.ar      1 RES1    0.0000
     18 H7         3.0345    5.8382    1.1842 H         1 RES1    0.0000
     19 C9         1.2904    4.8178    1.3262 C.ar      1 RES1    0.0000
     20 H8         0.7296    5.5811    1.2497 H         1 RES1    0.0000
     21 C10        0.7216    3.5610    1.4702 C.ar      1 RES1    0.0000
     22 H9        -0.2231    3.4572    1.4775 H         1 RES1    0.0000
     23 C11        1.5423    2.4672    1.6032 C.ar      1 RES1    0.0000
     24 H10        1.1590    1.6049    1.7125 H         1 RES1    0.0000
     25 C12        2.9101    2.6029    1.5831 C.ar      1 RES1    0.0000
     26 H11        3.4602    1.8348    1.6779 H         1 RES1    0.0000
     27 C13       10.4636    5.1898    1.1732 C.3       1 RES1    0.0000
     28 H12       11.3341    5.0844    1.6104 H         1 RES1    0.0000
     29 H13       10.2144    6.1384    1.1641 H         1 RES1    0.0000
     30 H14       10.5182    4.8577    0.2532 H         1 RES1    0.0000
     31 C14        9.4296    4.7603    3.4359 C.3       1 RES1    0.0000
     32 H15       10.2979    4.5191    3.8184 H         1 RES1    0.0000
     33 H16        8.7200    4.2732    3.9022 H         1 RES1    0.0000
     34 H17        9.2851    5.7248    3.5361 H         1 RES1    0.0000
     35 N2        -5.5768    0.3939    7.5212 N.pl3     2 RES2    1.0000
     36 O3        -5.3185   -0.0842    8.7123 O.2       2 RES2   -1.0000
     37 O4        -7.8065   -0.3880    7.4600 O.3       2 RES2    0.0000
     38 H18       -8.1396   -0.1421    8.1907 H         2 RES2    0.0000
     39 C15       -6.9994    0.5254    7.0255 C.3       2 RES2    0.0000
     40 C16       -6.7861    0.5717    5.5059 C.3       2 RES2    0.0000
     41 C17       -5.4003    1.2168    5.3897 C.3       2 RES2    0.0000
     42 H19       -4.9235    0.8863    4.5872 H         2 RES2    0.0000
     43 H20       -5.4749    2.2037    5.3341 H         2 RES2    0.0000
     44 C18       -4.6950    0.8096    6.6307 C.2       2 RES2    0.0000
     45 C19       -3.2989    0.7976    6.8885 C.2       2 RES2    0.0000
     46 H21       -3.0003    0.5765    7.7626 H         2 RES2    0.0000
     47 C20       -2.3860    1.0827    5.9576 C.2       2 RES2    0.0000
     48 H22       -2.7102    1.3525    5.1064 H         2 RES2    0.0000
     49 C21       -0.9289    1.0156    6.1233 C.ar      2 RES2    0.0000
     50 C22       -0.1014    0.9549    5.0064 C.ar      2 RES2    0.0000
     51 H23       -0.4806    1.0172    4.1372 H         2 RES2    0.0000
     52 C23        1.2630    0.8064    5.1483 C.ar      2 RES2    0.0000
     53 H24        1.8137    0.7585    4.3759 H         2 RES2    0.0000
     54 C24        1.8332    0.7282    6.4017 C.ar      2 RES2    0.0000
     55 H25        2.7701    0.6020    6.4946 H         2 RES2    0.0000
     56 C25        1.0349    0.8336    7.5155 C.ar      2 RES2    0.0000
     57 H26        1.4276    0.8128    8.3801 H         2 RES2    0.0000
     58 C26       -0.3264    0.9677    7.3846 C.ar      2 RES2    0.0000
     59 H27       -0.8658    1.0284    8.1634 H         2 RES2    0.0000
     60 C27       -6.6973   -0.8655    4.9570 C.3       2 RES2    0.0000
     61 H28       -7.5715   -1.3014    5.0390 H         2 RES2    0.0000
     62 H29       -6.0325   -1.3717    5.4708 H         2 RES2    0.0000
     63 H30       -6.4305   -0.8400    4.0152 H         2 RES2    0.0000
     64 C28       -7.8536    1.3478    4.7949 C.3       2 RES2    0.0000
     65 H31       -7.8895    2.2596    5.1538 H         2 RES2    0.0000
     66 H32       -8.7200    0.9102    4.9279 H         2 RES2    0.0000
     67 H33       -7.6486    1.3829    3.8367 H         2 RES2    0.0000
     68 O5        11.7255    0.3173    1.6429 O.2       3 RES3   -1.0000
     69 O6         9.4396   -0.6595    3.0387 O.3       3 RES3    0.0000
     70 H34        9.0438   -0.0894    2.5669 H         3 RES3    0.0000
     71 N3        11.4950   -0.9259    1.9617 N.pl3     3 RES3    1.0000
     72 C29       10.1004   -1.3653    2.3392 C.3       3 RES3    0.0000
     73 C30       10.3377   -2.7770    2.8877 C.3       3 RES3    0.0000
     74 C31       11.6810   -3.2049    2.2881 C.3       3 RES3    0.0000
     75 H35       12.2087   -3.7319    2.9403 H         3 RES3    0.0000
     76 H36       11.5490   -3.7431    1.4683 H         3 RES3    0.0000
     77 C32       12.3561   -1.9067    1.9772 C.2       3 RES3    0.0000
     78 C33       13.7488   -1.6655    1.7225 C.2       3 RES3    0.0000
     79 H37       13.9947   -0.8256    1.3518 H         3 RES3    0.0000
     80 C34       14.7181   -2.5422    1.9732 C.2       3 RES3    0.0000
     81 H38       14.4443   -3.3981    2.2809 H         3 RES3    0.0000
     82 C35       16.1563   -2.3346    1.8263 C.ar      3 RES3    0.0000
     83 C36       17.0407   -3.3614    2.1532 C.ar      3 RES3    0.0000
     84 H39       16.7011   -4.1886    2.4776 H         3 RES3    0.0000
     85 C37       18.4127   -3.1953    2.0116 C.ar      3 RES3    0.0000
     86 H40       18.9987   -3.9091    2.2371 H         3 RES3    0.0000
     87 C38       18.9340   -2.0073    1.5492 C.ar      3 RES3    0.0000
     88 H41       19.8734   -1.8955    1.4592 H         3 RES3    0.0000
     89 C39       18.0632   -0.9693    1.2162 C.ar      3 RES3    0.0000
     90 H42       18.4105   -0.1453    0.8945 H         3 RES3    0.0000
     91 C40       16.7115   -1.1306    1.3510 C.ar      3 RES3    0.0000
     92 H43       16.1339   -0.4136    1.1186 H         3 RES3    0.0000
     93 C41        9.2079   -3.7287    2.5195 C.3       3 RES3    0.0000
     94 H44        8.3622   -3.3886    2.8766 H         3 RES3    0.0000
     95 H45        9.3901   -4.6150    2.8984 H         3 RES3    0.0000
     96 H46        9.1460   -3.7990    1.5430 H         3 RES3    0.0000
     97 C42       10.4678   -2.6875    4.4050 C.3       3 RES3    0.0000
     98 H47        9.6441   -2.3123    4.7822 H         3 RES3    0.0000
     99 H48       11.2244   -2.1095    4.6346 H         3 RES3    0.0000
    100 H49       10.6166   -3.5834    4.7730 H         3 RES3    0.0000
    101 H50       -8.0678    0.9789    8.2818 Du        4 SUP4    0.0000
    102 H51        9.2400   -1.5969    0.8107 Du        4 SUP4    0.0000
    103 O7        -7.6437    1.3621    7.6660 Du        4 SUP4    0.0000
    104 O8         9.2394   -1.0236    1.4246 Du        4 SUP4    0.0000
@<TRIPOS>BOND
     1    1    4 1
     2    2    3 1
     3    4    5 1
     4    5    2 1
     5    6    5 1
     6    7    5 1
     7    8    7 1
     8    9    8 1
     9   10    8 1
    10   11    4 2
    11   12   11 1
    12   13   12 1
    13   14   12 2
    14   15   14 1
    15   16   14 1
    16   17   16 ar
    17   18   17 1
    18   19   17 ar
    19   20   19 1
    20   21   19 ar
    21   22   21 1
    22   23   21 ar
    23   24   23 1
    24   25   16 ar
    25   26   25 1
    26   27    7 1
    27   28   27 1
    28   29   27 1
    29   30   27 1
    30   31    7 1
    31   32   31 1
    32   33   31 1
    33   34   31 1
    34   35   36 1
    35   37   38 1
    36   39   35 1
    37   40   39 1
    38   41   40 1
    39   42   41 1
    40   43   41 1
    41   44   35 2
    42   45   44 1
    43   46   45 1
    44   47   45 2
    45   48   47 1
    46   49   47 1
    47   50   49 ar
    48   51   50 1
    49   52   50 ar
    50   53   52 1
    51   54   52 ar
    52   55   54 1
    53   56   54 ar
    54   57   56 1
    55   58   49 ar
    56   59   58 1
    57   60   40 1
    58   61   60 1
    59   62   60 1
    60   63   60 1
    61   64   40 1
    62   65   64 1
    63   66   64 1
    64   67   64 1
    65   68   71 1
    66   69   70 1
    67   71   72 1
    68   72   69 1
    69   73   72 1
    70   74   73 1
    71   75   74 1
    72   76   74 1
    73   77   71 2
    74   78   77 1
    75   79   78 1
    76   80   78 2
    77   81   80 1
    78   82   80 1
    79   83   82 ar
    80   84   83 1
    81   85   83 ar
    82   86   85 1
    83   87   85 ar
    84   88   87 1
    85   89   87 ar
    86   90   89 1
    87   91   82 ar
    88   92   91 1
    89   93   73 1
    90   94   93 1
    91   95   93 1
    92   96   93 1
    93   97   73 1
    94   98   97 1
    95   99   97 1
    96  100   97 1
    97    8   11 1
    98   23   25 ar
    99   37   39 1
   100   41   44 1
   101   56   58 ar
   102   74   77 1
   103   89   91 ar
@<TRIPOS>SUBSTRUCTURE
     1 RES1 1
     2 RES2 35
     3 RES3 68
     4 SUP4 101

@<TRIPOS>CRYSIN
  13.1495   15.9687   18.2731  90.0000  94.4620  90.0000  14 1

