# MOL2 file generated by ConQuest
# Please check atom types

@<TRIPOS>MOLECULE
DUXSIY
    22    22     1
SMALL
NO_CHARGES
****
Generated from CSD

@<TRIPOS>ATOM
      1 C1         1.0440    2.5346   12.3439 C.2       1 RES1    0.0000
      2 C2         1.5917    3.5766   13.2267 C.ar      1 RES1    0.0000
      3 C3         1.4715    4.9035   12.8483 C.ar      1 RES1    0.0000
      4 C4         1.9898    5.9178   13.6094 C.ar      1 RES1    0.0000
      5 C5         2.6288    5.5952   14.7792 C.ar      1 RES1    0.0000
      6 C6         2.7569    4.2992   15.2032 C.ar      1 RES1    0.0000
      7 C7         2.2363    3.2838   14.4269 C.ar      1 RES1    0.0000
      8 N1         3.2241    6.6681   15.5837 N.pl3     1 RES1    0.0000
      9 O1         3.8419    6.3576   16.5839 O.2       1 RES1    0.0000
     10 O2         3.0817    7.8139   15.2141 O.2       1 RES1    0.0000
     11 C8         0.2553    2.9656   11.2089 C.1       1 RES1    0.0000
     12 N2        -0.3699    3.3346   10.3283 N.1       1 RES1    0.0000
     13 N3         1.1289    1.2474   12.3287 N.2       1 RES1    0.0000
     14 O3         1.8767    0.7558   13.3615 O.3       1 RES1    0.0000
     15 C9         1.9773   -0.6806   13.2463 C.3       1 RES1    0.0000
     16 H1         1.0541    5.1488   12.0460 H         1 RES1    0.0000
     17 H2         1.9398    6.7620   13.3506 H         1 RES1    0.0000
     18 H3         3.2107    4.1102   15.9599 H         1 RES1    0.0000
     19 H4         2.3447    2.3424   14.6987 H         1 RES1    0.0000
     20 H5         2.4898   -0.9834   13.9812 H         1 RES1    0.0000
     21 H6         2.4655   -0.8397   12.5244 H         1 RES1    0.0000
     22 H7         1.1485   -1.0607   13.0027 H         1 RES1    0.0000
@<TRIPOS>BOND
     1    1    2 1
     2    2    3 ar
     3    3    4 ar
     4    4    5 ar
     5    5    6 ar
     6    6    7 ar
     7    7    2 ar
     8    8    5 1
     9    9    8 2
    10   10    8 2
    11   11    1 1
    12   12   11 3
    13   13    1 2
    14   14   13 1
    15   15   14 1
    16   16    3 1
    17   17    4 1
    18   18    6 1
    19   19    7 1
    20   20   15 1
    21   21   15 1
    22   22   15 1
@<TRIPOS>SUBSTRUCTURE
     1 RES1 1

@<TRIPOS>CRYSIN
   4.0360   11.0490   21.7450  90.0000  90.6300  90.0000  14 1

