# MOL2 file generated by ConQuest
# Please check atom types

@<TRIPOS>MOLECULE
DUYGEK
    47    48     1
SMALL
USER_CHARGES
****
Generated from CSD

@<TRIPOS>ATOM
      1 O1        -2.0715    7.6539    9.0188 O.2       1 RES1   -1.0000
      2 O2         3.1715    7.7477    4.2933 O.2       1 RES1    0.0000
      3 N1        -0.8095    7.4786    9.5509 N.4       1 RES1    1.0000
      4 N2         1.0270    7.4060    4.9547 N.am      1 RES1    0.0000
      5 H1         0.2559    7.1247    4.7231 H         1 RES1    0.0000
      6 C1        -0.7087    8.2740   10.8084 C.3       1 RES1    0.0000
      7 H2        -1.4142    7.9437   11.4227 H         1 RES1    0.0000
      8 H3         0.1938    8.1327   11.1981 H         1 RES1    0.0000
      9 H4        -0.9172    9.2147   10.5482 H         1 RES1    0.0000
     10 C2        -0.5744    6.0386    9.8686 C.3       1 RES1    0.0000
     11 H5        -1.2260    5.7907   10.5656 H         1 RES1    0.0000
     12 H6        -0.7614    5.5072    9.0531 H         1 RES1    0.0000
     13 H7         0.3446    5.8948   10.1457 H         1 RES1    0.0000
     14 C3         0.2397    7.9812    8.5862 C.3       1 RES1    0.0000
     15 H8         0.0780    8.9558    8.5303 H         1 RES1    0.0000
     16 H9         1.1023    7.8232    8.9903 H         1 RES1    0.0000
     17 C4         0.1364    7.3338    7.2238 C.3       1 RES1    0.0000
     18 H10        0.2099    6.3522    7.2906 H         1 RES1    0.0000
     19 H11       -0.7289    7.5383    6.8400 H         1 RES1    0.0000
     20 C5         1.2385    7.8640    6.3217 C.3       1 RES1    0.0000
     21 H12        2.1080    7.5629    6.6341 H         1 RES1    0.0000
     22 H13        1.2375    8.8558    6.3439 H         1 RES1    0.0000
     23 C6         2.0055    7.4306    4.0437 C.2       1 RES1    0.0000
     24 C7         1.5493    7.0630    2.6239 C.3       1 RES1    0.0000
     25 H14        0.6641    6.6754    2.7106 H         1 RES1    0.0000
     26 C8         1.4325    8.3096    1.7581 C.ar      1 RES1    0.0000
     27 C9         0.3626    8.4215    0.8720 C.ar      1 RES1    0.0000
     28 H15       -0.3154    7.7150    0.8371 H         1 RES1    0.0000
     29 C10        0.2442    9.5149    0.0218 C.ar      1 RES1    0.0000
     30 H16       -0.5071    9.5530   -0.5857 H         1 RES1    0.0000
     31 C11        1.1942   10.5315    0.0588 C.ar      1 RES1    0.0000
     32 H17        1.1016   11.2732   -0.5389 H         1 RES1    0.0000
     33 C12        2.2500   10.4473    0.9544 C.ar      1 RES1    0.0000
     34 H18        2.9084   11.1540    1.0310 H         1 RES1    0.0000
     35 C13        2.3752    9.3409    1.7947 C.ar      1 RES1    0.0000
     36 H19        3.1210    9.2941    2.4177 H         1 RES1    0.0000
     37 C14        2.4317    5.9694    2.0293 C.ar      1 RES1    0.0000
     38 C15        3.0356    6.0739    0.7789 C.ar      1 RES1    0.0000
     39 H20        2.9504    6.9069    0.2808 H         1 RES1    0.0000
     40 C16        3.7459    5.0029    0.2420 C.ar      1 RES1    0.0000
     41 H21        4.1476    5.0949   -0.6298 H         1 RES1    0.0000
     42 C17        3.8701    3.8179    0.9488 C.ar      1 RES1    0.0000
     43 H22        4.3841    3.0679    0.5723 H         1 RES1    0.0000
     44 C18        3.2859    3.7108    2.2074 C.ar      1 RES1    0.0000
     45 H23        3.3675    2.8830    2.7280 H         1 RES1    0.0000
     46 C19        2.5771    4.7732    2.7396 C.ar      1 RES1    0.0000
     47 H24        2.1577    4.6772    3.6186 H         1 RES1    0.0000
@<TRIPOS>BOND
     1    1    3 1
     2    2   23 2
     3    3    6 1
     4    4    5 1
     5    6    7 1
     6    8    6 1
     7    9    6 1
     8   10    3 1
     9   11   10 1
    10   12   10 1
    11   13   10 1
    12   14    3 1
    13   15   14 1
    14   16   14 1
    15   17   14 1
    16   18   17 1
    17   19   17 1
    18   20    4 1
    19   21   20 1
    20   22   20 1
    21   23    4 1
    22   24   23 1
    23   25   24 1
    24   26   24 1
    25   27   26 ar
    26   28   27 1
    27   29   27 ar
    28   30   29 1
    29   31   29 ar
    30   32   31 1
    31   33   31 ar
    32   34   33 1
    33   35   26 ar
    34   36   35 1
    35   37   24 1
    36   38   37 ar
    37   39   38 1
    38   40   38 ar
    39   41   40 1
    40   42   40 ar
    41   43   42 1
    42   44   42 ar
    43   45   44 1
    44   46   37 ar
    45   47   46 1
    46   17   20 1
    47   33   35 ar
    48   44   46 ar
@<TRIPOS>SUBSTRUCTURE
     1 RES1 1

@<TRIPOS>CRYSIN
   9.2540   13.6960   13.7830  90.0000 104.0200  90.0000 231 1

