# MOL2 file generated by ConQuest
# Please check atom types

@<TRIPOS>MOLECULE
DUYGUA
    88    70     2
SMALL
USER_CHARGES
****
Generated from CSD

@<TRIPOS>ATOM
      1 O1         3.4294    4.2900    5.9771 O.2       1 RES1   -1.0000
      2 O2        -2.2935    6.8669    8.6906 O.2       1 RES1    0.0000
      3 N1         3.2587    5.6556    6.1766 N.4       1 RES1    1.0000
      4 N2        -0.7641    5.3117    8.0777 N.am      1 RES1    0.0000
      5 H1        -0.2836    4.6190    8.3297 H         1 RES1    0.0000
      6 C1         4.4083    6.0291    7.0337 C.3       1 RES1    0.0000
      7 H2         4.3368    5.5686    7.8957 H         1 RES1    0.0000
      8 H3         4.4046    6.9982    7.1803 H         1 RES1    0.0000
      9 H4         5.2433    5.7684    6.5922 H         1 RES1    0.0000
     10 C2         3.4277    6.2614    4.8221 C.3       1 RES1    0.0000
     11 H5         4.3364    6.0872    4.4971 H         1 RES1    0.0000
     12 H6         3.2807    7.2293    4.8757 H         1 RES1    0.0000
     13 H7         2.7787    5.8664    4.2037 H         1 RES1    0.0000
     14 C3         1.9768    5.8989    6.8180 C.3       1 RES1    0.0000
     15 H8         1.9037    6.8661    7.0127 H         1 RES1    0.0000
     16 H9         1.9653    5.4190    7.6847 H         1 RES1    0.0000
     17 C4         0.7621    5.4786    6.0235 C.3       1 RES1    0.0000
     18 H10        0.7405    4.4926    5.9397 H         1 RES1    0.0000
     19 H11        0.8080    5.8648    5.1121 H         1 RES1    0.0000
     20 C5        -0.4956    5.9631    6.7254 C.3       1 RES1    0.0000
     21 H12       -1.2714    5.7932    6.1343 H         1 RES1    0.0000
     22 H13       -0.4270    6.9422    6.8541 H         1 RES1    0.0000
     23 C6        -1.7290    5.7846    8.8925 C.2       1 RES1    0.0000
     24 C7        -2.1444    4.8640   10.0224 C.3       1 RES1    0.0000
     25 H14       -1.7436    3.9755    9.8501 H         1 RES1    0.0000
     26 H15       -3.1269    4.7537    9.9744 H         1 RES1    0.0000
     27 C8        -1.7845    5.2702   11.4826 C.3       1 RES1    0.0000
     28 C9        -2.3988    4.2047   12.4502 C.3       1 RES1    0.0000
     29 H16       -2.1267    4.4824   13.3715 H         1 RES1    0.0000
     30 C10       -1.8448    2.7816   12.2596 C.3       1 RES1    0.0000
     31 H17       -2.0950    2.4502   11.3616 H         1 RES1    0.0000
     32 H18       -0.8569    2.8046   12.3119 H         1 RES1    0.0000
     33 C11       -2.3866    1.8270   13.3198 C.3       1 RES1    0.0000
     34 H19       -2.0289    0.9190   13.1560 H         1 RES1    0.0000
     35 H20       -2.0755    2.1202   14.2125 H         1 RES1    0.0000
     36 C12       -3.9036    1.7772   13.3091 C.3       1 RES1    0.0000
     37 H21       -4.2211    1.1857   14.0374 H         1 RES1    0.0000
     38 H22       -4.2168    1.4007   12.4481 H         1 RES1    0.0000
     39 C13       -4.4857    3.1744   13.4963 C.3       1 RES1    0.0000
     40 H23       -4.2674    3.5012   14.4056 H         1 RES1    0.0000
     41 H24       -5.4712    3.1326   13.4149 H         1 RES1    0.0000
     42 C14       -3.9345    4.1531   12.4616 C.3       1 RES1    0.0000
     43 H25       -4.2866    5.0583   12.6531 H         1 RES1    0.0000
     44 H26       -4.2546    3.8878   11.5637 H         1 RES1    0.0000
     45 C15       -0.2457    5.2790   11.6533 C.3       1 RES1    0.0000
     46 H27       -0.0461    5.1921   12.6187 H         1 RES1    0.0000
     47 H28        0.1154    4.4741   11.2045 H         1 RES1    0.0000
     48 C16        0.5127    6.4931   11.1234 C.3       1 RES1    0.0000
     49 H29        0.1607    6.7287   10.2288 H         1 RES1    0.0000
     50 H30        0.3503    7.2633   11.7253 H         1 RES1    0.0000
     51 C17        2.0133    6.2511   11.0192 C.3       1 RES1    0.0000
     52 H31        2.3687    6.0355   11.9168 H         1 RES1    0.0000
     53 H32        2.1746    5.4694   10.4338 H         1 RES1    0.0000
     54 C18        2.7614    7.4504   10.4637 C.3       1 RES1    0.0000
     55 H33        2.3957    7.6853    9.5853 H         1 RES1    0.0000
     56 H34        3.7121    7.2296   10.3724 H         1 RES1    0.0000
     57 H35        2.6594    8.2110   11.0728 H         1 RES1    0.0000
     58 C19       -2.3716    6.6686   11.8024 C.3       1 RES1    0.0000
     59 H36       -1.9241    7.3327   11.2210 H         1 RES1    0.0000
     60 H37       -3.3323    6.6635   11.5622 H         1 RES1    0.0000
     61 C20       -2.2446    7.1390   13.2497 C.3       1 RES1    0.0000
     62 H38       -2.8037    6.5613   13.8279 H         1 RES1    0.0000
     63 H39       -1.3032    7.0382   13.5406 H         1 RES1    0.0000
     64 C21       -2.6690    8.5882   13.4360 C.3       1 RES1    0.0000
     65 H40       -2.0713    9.1691   12.9016 H         1 RES1    0.0000
     66 H41       -3.5888    8.7007   13.0871 H         1 RES1    0.0000
     67 C22       -2.6324    9.0418   14.8839 C.3       1 RES1    0.0000
     68 H42       -2.9190    9.9770   14.9398 H         1 RES1    0.0000
     69 H43       -1.7198    8.9589   15.2287 H         1 RES1    0.0000
     70 H44       -3.2354    8.4827   15.4172 H         1 RES1    0.0000
     71 C23        3.2522    6.1199    7.6532 Du        2 SUP2    0.0000
     72 C24        4.2388    6.6031    5.5327 Du        2 SUP2    0.0000
     73 C25        1.8804    6.1013    5.6539 Du        2 SUP2    0.0000
     74 C26        0.7256    5.4092    6.3438 Du        2 SUP2    0.0000
     75 C27       -0.0038    6.2850    7.3479 Du        2 SUP2    0.0000
     76 H45        2.6173    5.5751    8.1636 Du        2 SUP2    0.0000
     77 H46        2.9843    7.0614    7.6981 Du        2 SUP2    0.0000
     78 H47        4.1501    6.0171    8.0319 Du        2 SUP2    0.0000
     79 H48        5.1244    6.4801    5.9337 Du        2 SUP2    0.0000
     80 H49        3.9413    7.5263    5.6748 Du        2 SUP2    0.0000
     81 H50        4.2864    6.4200    4.5719 Du        2 SUP2    0.0000
     82 H51       -0.5998    4.4299    8.0004 Du        2 SUP2    0.0000
     83 H52        1.7907    7.0787    5.7811 Du        2 SUP2    0.0000
     84 H53        1.8312    5.9170    4.6826 Du        2 SUP2    0.0000
     85 H54        1.0671    4.6058    6.8092 Du        2 SUP2    0.0000
     86 H55        0.0792    5.1067    5.6569 Du        2 SUP2    0.0000
     87 H56        0.6301    6.7658    7.9361 Du        2 SUP2    0.0000
     88 H57       -0.5932    6.9404    6.8960 Du        2 SUP2    0.0000
@<TRIPOS>BOND
     1    1    3 1
     2    2   23 2
     3    3    6 1
     4    4    5 1
     5    6    7 1
     6    8    6 1
     7    9    6 1
     8   10    3 1
     9   11   10 1
    10   12   10 1
    11   13   10 1
    12   14    3 1
    13   15   14 1
    14   16   14 1
    15   17   14 1
    16   18   17 1
    17   19   17 1
    18   20    4 1
    19   21   20 1
    20   22   20 1
    21   23    4 1
    22   24   23 1
    23   25   24 1
    24   26   24 1
    25   27   24 1
    26   28   27 1
    27   29   28 1
    28   30   28 1
    29   31   30 1
    30   32   30 1
    31   33   30 1
    32   34   33 1
    33   35   33 1
    34   36   33 1
    35   37   36 1
    36   38   36 1
    37   39   36 1
    38   40   39 1
    39   41   39 1
    40   42   28 1
    41   43   42 1
    42   44   42 1
    43   45   27 1
    44   46   45 1
    45   47   45 1
    46   48   45 1
    47   49   48 1
    48   50   48 1
    49   51   48 1
    50   52   51 1
    51   53   51 1
    52   54   51 1
    53   55   54 1
    54   56   54 1
    55   57   54 1
    56   58   27 1
    57   59   58 1
    58   60   58 1
    59   61   58 1
    60   62   61 1
    61   63   61 1
    62   64   61 1
    63   65   64 1
    64   66   64 1
    65   67   64 1
    66   68   67 1
    67   69   67 1
    68   70   67 1
    69   17   20 1
    70   39   42 1
@<TRIPOS>SUBSTRUCTURE
     1 RES1 1
     2 SUP2 71

@<TRIPOS>CRYSIN
   8.8925    9.3348   14.9810  91.6290  91.1290 116.1700   2 1

