# MOL2 file generated by ConQuest
# Please check atom types

@<TRIPOS>MOLECULE
DUYHOV
    70    70     1
SMALL
USER_CHARGES
****
Generated from CSD

@<TRIPOS>ATOM
      1 O1         1.7243   13.6316   -1.1448 O.2       1 RES1   -1.0000
      2 O2        -0.7993   18.2646    2.9058 O.2       1 RES1    0.0000
      3 N1         1.5334   14.9192   -1.6398 N.4       1 RES1    1.0000
      4 N2        -0.6288   16.0105    2.6707 N.am      1 RES1    0.0000
      5 H1        -0.5592   15.2410    3.0929 H         1 RES1    0.0000
      6 C1         1.2614   14.8655   -3.1126 C.3       1 RES1    0.0000
      7 H2         2.0252   14.4573   -3.5715 H         1 RES1    0.0000
      8 H3         1.1245   15.7738   -3.4526 H         1 RES1    0.0000
      9 H4         0.4562   14.3300   -3.2764 H         1 RES1    0.0000
     10 C2         2.7700   15.7219   -1.4012 C.3       1 RES1    0.0000
     11 H5         2.9965   15.6974   -0.4484 H         1 RES1    0.0000
     12 H6         2.6158   16.6502   -1.6768 H         1 RES1    0.0000
     13 H7         3.5099   15.3446   -1.9229 H         1 RES1    0.0000
     14 C3         0.3457   15.5614   -0.9696 C.3       1 RES1    0.0000
     15 H8        -0.4563   15.0028   -1.1283 H         1 RES1    0.0000
     16 H9         0.1838   16.4483   -1.3786 H         1 RES1    0.0000
     17 C4         0.5415   15.7343    0.5274 C.3       1 RES1    0.0000
     18 H10        1.1575   16.4902    0.6945 H         1 RES1    0.0000
     19 H11        0.9516   14.9155    0.9030 H         1 RES1    0.0000
     20 C5        -0.7908   16.0010    1.2245 C.3       1 RES1    0.0000
     21 H12       -1.1494   16.8738    0.9270 H         1 RES1    0.0000
     22 H13       -1.4416   15.2992    0.9708 H         1 RES1    0.0000
     23 C6        -0.5809   17.1453    3.3870 C.2       1 RES1    0.0000
     24 C7        -0.2321   16.9533    4.8537 C.3       1 RES1    0.0000
     25 H14       -0.1929   15.9829    5.0470 H         1 RES1    0.0000
     26 H15       -0.9573   17.3393    5.4068 H         1 RES1    0.0000
     27 C8         1.1245   17.6053    5.2769 C.3       1 RES1    0.0000
     28 C9         2.2395   17.2435    4.2764 C.3       1 RES1    0.0000
     29 H16        1.9786   17.5957    3.3890 H         1 RES1    0.0000
     30 H17        3.0619   17.7193    4.5517 H         1 RES1    0.0000
     31 C10        2.5849   15.7619    4.1127 C.3       1 RES1    0.0000
     32 H18        1.7732   15.2592    3.8499 H         1 RES1    0.0000
     33 H19        2.9071   15.3992    4.9751 H         1 RES1    0.0000
     34 C11        3.6680   15.5861    3.0451 C.3       1 RES1    0.0000
     35 H20        3.3364   15.9665    2.1940 H         1 RES1    0.0000
     36 H21        4.4653   16.1065    3.3160 H         1 RES1    0.0000
     37 C12        4.0872   14.1466    2.8014 C.3       1 RES1    0.0000
     38 H22        3.3135   13.6391    2.4484 H         1 RES1    0.0000
     39 H23        4.3523   13.7354    3.6622 H         1 RES1    0.0000
     40 C13        5.2482   14.0360    1.8163 C.3       1 RES1    0.0000
     41 H24        4.9678   14.3773    0.9416 H         1 RES1    0.0000
     42 H25        5.5146   13.0972    1.7300 H         1 RES1    0.0000
     43 H26        6.0068   14.5628    2.1450 H         1 RES1    0.0000
     44 C14        1.4293   17.0191    6.6876 C.3       1 RES1    0.0000
     45 H27        0.6701   17.2393    7.2828 H         1 RES1    0.0000
     46 H28        1.4650   16.0338    6.6091 H         1 RES1    0.0000
     47 C15        2.7150   17.4877    7.3658 C.3       1 RES1    0.0000
     48 H29        2.7037   18.4739    7.4423 H         1 RES1    0.0000
     49 H30        3.4906   17.2338    6.8062 H         1 RES1    0.0000
     50 C16        2.8743   16.8738    8.7582 C.3       1 RES1    0.0000
     51 H31        2.0590   17.0666    9.2849 H         1 RES1    0.0000
     52 H32        2.9439   15.8901    8.6644 H         1 RES1    0.0000
     53 C17        4.0880   17.3773    9.5361 C.3       1 RES1    0.0000
     54 H33        4.0295   18.3612    9.6269 H         1 RES1    0.0000
     55 H34        4.9094   17.1684    9.0263 H         1 RES1    0.0000
     56 C18        4.1881   16.7498   10.9281 C.3       1 RES1    0.0000
     57 H35        3.3644   16.9302   11.4278 H         1 RES1    0.0000
     58 H36        4.9523   17.1357   11.4059 H         1 RES1    0.0000
     59 H37        4.3126   15.7810   10.8418 H         1 RES1    0.0000
     60 C19        0.9947   19.1447    5.4075 C.ar      1 RES1    0.0000
     61 C20        1.8719   20.0393    4.7792 C.ar      1 RES1    0.0000
     62 H38        2.5318   19.7013    4.1836 H         1 RES1    0.0000
     63 C21        1.7986   21.4163    5.0080 C.ar      1 RES1    0.0000
     64 H39        2.4106   21.9996    4.5747 H         1 RES1    0.0000
     65 C22        0.8410   21.9345    5.8617 C.ar      1 RES1    0.0000
     66 H40        0.8008   22.8688    6.0304 H         1 RES1    0.0000
     67 C23       -0.0640   21.0690    6.4702 C.ar      1 RES1    0.0000
     68 H41       -0.7419   21.4141    7.0398 H         1 RES1    0.0000
     69 C24        0.0221   19.6967    6.2457 C.ar      1 RES1    0.0000
     70 H42       -0.5980   19.1194    6.6748 H         1 RES1    0.0000
@<TRIPOS>BOND
     1    1    3 1
     2    2   23 2
     3    3    6 1
     4    4    5 1
     5    6    7 1
     6    8    6 1
     7    9    6 1
     8   10    3 1
     9   11   10 1
    10   12   10 1
    11   13   10 1
    12   14    3 1
    13   15   14 1
    14   16   14 1
    15   17   14 1
    16   18   17 1
    17   19   17 1
    18   20    4 1
    19   21   20 1
    20   22   20 1
    21   23    4 1
    22   24   23 1
    23   25   24 1
    24   26   24 1
    25   27   24 1
    26   28   27 1
    27   29   28 1
    28   30   28 1
    29   31   28 1
    30   32   31 1
    31   33   31 1
    32   34   31 1
    33   35   34 1
    34   36   34 1
    35   37   34 1
    36   38   37 1
    37   39   37 1
    38   40   37 1
    39   41   40 1
    40   42   40 1
    41   43   40 1
    42   44   27 1
    43   45   44 1
    44   46   44 1
    45   47   44 1
    46   48   47 1
    47   49   47 1
    48   50   47 1
    49   51   50 1
    50   52   50 1
    51   53   50 1
    52   54   53 1
    53   55   53 1
    54   56   53 1
    55   57   56 1
    56   58   56 1
    57   59   56 1
    58   60   27 1
    59   61   60 ar
    60   62   61 1
    61   63   61 ar
    62   64   63 1
    63   65   63 ar
    64   66   65 1
    65   67   65 ar
    66   68   67 1
    67   69   60 ar
    68   70   69 1
    69   17   20 1
    70   67   69 ar
@<TRIPOS>SUBSTRUCTURE
     1 RES1 1

@<TRIPOS>CRYSIN
  12.5260   18.1830   11.1570  90.0000 110.8300  90.0000  14 1

