# MOL2 file generated by ConQuest
# Please check atom types

@<TRIPOS>MOLECULE
DUYRIY
    68    78     2
SMALL
NO_CHARGES
****
Generated from CSD

@<TRIPOS>ATOM
      1 O1         8.4549    6.3450    5.2241 O.2       1 RES1    0.0000
      2 O2        10.1640    6.6122    3.9723 O.2       1 RES1    0.0000
      3 O3         8.8910    3.4387    6.6536 O.2       1 RES1    0.0000
      4 O4        10.6948    4.6103    6.6894 O.2       1 RES1    0.0000
      5 O5         8.5676    4.7829   -0.3369 O.2       1 RES1    0.0000
      6 O6        10.5095    4.2379   -1.0914 O.2       1 RES1    0.0000
      7 O7         8.7366    1.6231   -1.1041 O.2       1 RES1    0.0000
      8 O8        10.6473    0.9903   -0.3023 O.2       1 RES1    0.0000
      9 N1         9.3943    5.9340    4.6161 N.pl3     1 RES1    0.0000
     10 N2         9.7336    4.1412    6.1333 N.pl3     1 RES1    0.0000
     11 N3         9.5598    4.0792   -0.3634 N.pl3     1 RES1    0.0000
     12 N4         9.6841    1.7396   -0.3554 N.pl3     1 RES1    0.0000
     13 C1         9.6128    4.4339    4.6565 C.3       1 RES1    0.0000
     14 C2         8.5058    3.6695    3.9389 C.3       1 RES1    0.0000
     15 C3         8.7776    4.0631    2.4782 C.3       1 RES1    0.0000
     16 C4         8.5212    2.8165    1.6210 C.3       1 RES1    0.0000
     17 C5         9.6411    2.9146    0.5953 C.3       1 RES1    0.0000
     18 C6        10.8114    3.0332    1.5622 C.3       1 RES1    0.0000
     19 C7        10.3609    4.2199    2.4182 C.3       1 RES1    0.0000
     20 C8        10.7923    3.9220    3.8581 C.3       1 RES1    0.0000
     21 C9         9.0180    2.2273    3.9816 C.3       1 RES1    0.0000
     22 C10        9.0273    1.6878    2.5336 C.3       1 RES1    0.0000
     23 C11       10.5934    1.8455    2.5025 C.3       1 RES1    0.0000
     24 C12       10.5845    2.3980    3.9412 C.3       1 RES1    0.0000
     25 H1         7.5407    3.7928    4.2342 H         1 RES1    0.0000
     26 H2         8.2484    4.8939    2.0998 H         1 RES1    0.0000
     27 H3         7.5828    2.7388    1.2460 H         1 RES1    0.0000
     28 H4        11.7265    3.0978    1.1307 H         1 RES1    0.0000
     29 H5        10.6181    5.1108    2.0767 H         1 RES1    0.0000
     30 H6        11.7077    4.2770    4.1535 H         1 RES1    0.0000
     31 H7         8.6945    1.5547    4.7188 H         1 RES1    0.0000
     32 H8         8.6144    0.8030    2.3190 H         1 RES1    0.0000
     33 H9        11.1374    1.0217    2.3536 H         1 RES1    0.0000
     34 H10       11.1064    1.9020    4.6034 H         1 RES1    0.0000
     35 O9         5.7143    5.4570    4.3842 O.2       2 RES2    0.0000
     36 O10        3.9195    6.4966    4.8688 O.2       2 RES2    0.0000
     37 O11        5.7954    5.4834    1.2034 O.2       2 RES2    0.0000
     38 O12        3.7444    5.1852    1.7814 O.2       2 RES2    0.0000
     39 O13        6.1565   11.2429    5.4906 O.2       2 RES2    0.0000
     40 O14        4.1668   12.0068    5.2657 O.2       2 RES2    0.0000
     41 O15        6.3541   13.2315    3.0551 O.2       2 RES2    0.0000
     42 O16        4.5509   12.9885    1.9475 O.2       2 RES2    0.0000
     43 N5         4.8345    6.2320    4.1419 N.pl3     2 RES2    0.0000
     44 N6         4.8087    5.7602    1.8379 N.pl3     2 RES2    0.0000
     45 N7         5.1894   11.5190    4.8388 N.pl3     2 RES2    0.0000
     46 N8         5.3678   12.6106    2.7286 N.pl3     2 RES2    0.0000
     47 C13        4.8947    6.9309    2.8001 C.3       2 RES2    0.0000
     48 C14        6.1220    7.8091    2.6132 C.3       2 RES2    0.0000
     49 C15        5.8316    8.9626    3.5870 C.3       2 RES2    0.0000
     50 C16        6.2924   10.2674    2.9109 C.3       2 RES2    0.0000
     51 C17        5.2199   11.2263    3.3505 C.3       2 RES2    0.0000
     52 C18        3.9895   10.4392    2.8751 C.3       2 RES2    0.0000
     53 C19        4.2474    9.0832    3.5674 C.3       2 RES2    0.0000
     54 C20        3.8135    7.9816    2.5855 C.3       2 RES2    0.0000
     55 C21        5.8090    8.4741    1.2668 C.3       2 RES2    0.0000
     56 C22        5.9137   10.0090    1.4491 C.3       2 RES2    0.0000
     57 C23        4.3512   10.1164    1.4283 C.3       2 RES2    0.0000
     58 C24        4.2447    8.5854    1.2472 C.3       2 RES2    0.0000
     59 H11        6.9909    7.3566    2.7690 H         2 RES2    0.0000
     60 H12        6.2973    8.8087    4.4650 H         2 RES2    0.0000
     61 H13        7.1807   10.5300    3.1266 H         2 RES2    0.0000
     62 H14        3.1056   10.8359    3.0343 H         2 RES2    0.0000
     63 H15        3.7967    8.9842    4.4650 H         2 RES2    0.0000
     64 H16        2.8301    7.6778    2.6421 H         2 RES2    0.0000
     65 H17        6.3649    8.0533    0.5076 H         2 RES2    0.0000
     66 H18        6.4457   10.5263    0.7730 H         2 RES2    0.0000
     67 H19        3.8879   10.7108    0.7615 H         2 RES2    0.0000
     68 H20        3.6910    8.2044    0.4038 H         2 RES2    0.0000
@<TRIPOS>BOND
     1    1    9 2
     2    2    9 2
     3    3   10 2
     4    4   10 2
     5    5   11 2
     6    6   11 2
     7    7   12 2
     8    8   12 2
     9    9   13 1
    10   10   13 1
    11   11   17 1
    12   12   17 1
    13   13   14 1
    14   14   15 1
    15   15   16 1
    16   16   17 1
    17   17   18 1
    18   18   19 1
    19   19   15 1
    20   20   13 1
    21   21   14 1
    22   22   16 1
    23   23   18 1
    24   24   20 1
    25   25   14 1
    26   26   15 1
    27   27   16 1
    28   28   18 1
    29   29   19 1
    30   30   20 1
    31   31   21 1
    32   32   22 1
    33   33   23 1
    34   34   24 1
    35   35   43 2
    36   36   43 2
    37   37   44 2
    38   38   44 2
    39   39   45 2
    40   40   45 2
    41   41   46 2
    42   42   46 2
    43   43   47 1
    44   44   47 1
    45   45   51 1
    46   46   51 1
    47   47   48 1
    48   48   49 1
    49   49   50 1
    50   50   51 1
    51   51   52 1
    52   52   53 1
    53   53   49 1
    54   54   47 1
    55   55   48 1
    56   56   50 1
    57   57   52 1
    58   58   54 1
    59   59   48 1
    60   60   49 1
    61   61   50 1
    62   62   52 1
    63   63   53 1
    64   64   54 1
    65   65   55 1
    66   66   56 1
    67   67   57 1
    68   68   58 1
    69   19   20 1
    70   21   22 1
    71   21   24 1
    72   22   23 1
    73   23   24 1
    74   53   54 1
    75   55   56 1
    76   55   58 1
    77   56   57 1
    78   57   58 1
@<TRIPOS>SUBSTRUCTURE
     1 RES1 1
     2 RES2 35

@<TRIPOS>CRYSIN
   9.5660   11.7080   11.8530  76.7500  89.3900  88.1500   2 1

