# MOL2 file generated by ConQuest
# Please check atom types

@<TRIPOS>MOLECULE
DUYSUL
    46    47     1
SMALL
NO_CHARGES
****
Generated from CSD

@<TRIPOS>ATOM
      1 N1         2.5543    8.2034   -1.1183 N.3       1 RES1    0.0000
      2 C1         1.5255    7.5833   -0.4555 C.2       1 RES1    0.0000
      3 C2         1.5609    7.3579    0.8685 C.2       1 RES1    0.0000
      4 C3         2.8603    7.5938    1.6149 C.3       1 RES1    0.0000
      5 C4         3.7122    8.6262    0.8884 C.2       1 RES1    0.0000
      6 C5         3.5646    8.8515   -0.4357 C.2       1 RES1    0.0000
      7 C6         0.4214    7.2689   -1.3098 C.1       1 RES1    0.0000
      8 N2        -0.3891    7.0959   -2.1045 N.1       1 RES1    0.0000
      9 C7         0.3706    6.8391    1.5568 C.2       1 RES1    0.0000
     10 O1        -0.6797    6.5666    1.0203 O.2       1 RES1    0.0000
     11 O2         0.5705    6.7081    2.8737 O.3       1 RES1    0.0000
     12 C8        -0.5336    6.1666    3.6457 C.3       1 RES1    0.0000
     13 C9         3.5892    6.2522    1.7866 C.ar      1 RES1    0.0000
     14 C10        3.3662    5.4975    2.9347 C.ar      1 RES1    0.0000
     15 C11        3.9967    4.2642    3.0411 C.ar      1 RES1    0.0000
     16 C12        4.8164    3.7384    2.0690 C.ar      1 RES1    0.0000
     17 C13        5.0209    4.4930    0.9196 C.ar      1 RES1    0.0000
     18 C14        4.4089    5.7508    0.7862 C.ar      1 RES1    0.0000
     19 N3         3.7645    3.4763    4.2701 N.pl3     1 RES1    0.0000
     20 O3         2.8080    3.7576    4.9697 O.2       1 RES1    0.0000
     21 O4         4.5365    2.5610    4.5099 O.2       1 RES1    0.0000
     22 C15        4.7472    9.2586    1.7327 C.2       1 RES1    0.0000
     23 O5         4.8748    9.0035    2.9191 O.2       1 RES1    0.0000
     24 O6         5.5253   10.1163    1.0856 O.3       1 RES1    0.0000
     25 C16        6.6510   10.7295    1.7866 C.3       1 RES1    0.0000
     26 C17        6.8724   12.0431    1.0558 C.3       1 RES1    0.0000
     27 C18        7.8197    9.8019    1.7256 C.3       1 RES1    0.0000
     28 C19        4.3535    9.7722   -1.3396 C.3       1 RES1    0.0000
     29 H1         2.4451    8.2803   -2.0151 H         1 RES1    0.0000
     30 H2         2.5374    7.8785    2.6111 H         1 RES1    0.0000
     31 H3        -0.7843    5.2931    3.2639 H         1 RES1    0.0000
     32 H4        -0.2460    6.1316    4.5127 H         1 RES1    0.0000
     33 H5        -1.3840    6.7780    3.4484 H         1 RES1    0.0000
     34 H6         2.7219    5.8172    3.6755 H         1 RES1    0.0000
     35 H7         5.3208    2.7776    2.2706 H         1 RES1    0.0000
     36 H8         5.5668    4.1402    0.1419 H         1 RES1    0.0000
     37 H9         4.5826    6.2539   -0.1135 H         1 RES1    0.0000
     38 H10        6.2896   10.9007    2.8098 H         1 RES1    0.0000
     39 H11        6.0436   12.6126    1.0218 H         1 RES1    0.0000
     40 H12        7.5660   12.5427    1.4759 H         1 RES1    0.0000
     41 H13        7.5814    8.9267    2.2564 H         1 RES1    0.0000
     42 H14        8.1350    9.6778    0.7521 H         1 RES1    0.0000
     43 H15        8.6886   10.1844    2.2564 H         1 RES1    0.0000
     44 H16        4.0598   10.6212   -1.1779 H         1 RES1    0.0000
     45 H17        5.3208    9.6080   -1.2204 H         1 RES1    0.0000
     46 H18        4.1982    9.6604   -2.3131 H         1 RES1    0.0000
@<TRIPOS>BOND
     1    1    2 1
     2    2    3 2
     3    3    4 1
     4    4    5 1
     5    5    6 2
     6    6    1 1
     7    7    2 1
     8    8    7 3
     9    9    3 1
    10   10    9 2
    11   11    9 1
    12   12   11 1
    13   13    4 1
    14   14   13 ar
    15   15   14 ar
    16   16   15 ar
    17   17   16 ar
    18   18   13 ar
    19   19   15 1
    20   20   19 2
    21   21   19 2
    22   22    5 1
    23   23   22 2
    24   24   22 1
    25   25   24 1
    26   26   25 1
    27   27   25 1
    28   28    6 1
    29   29    1 1
    30   30    4 1
    31   31   12 1
    32   32   12 1
    33   33   12 1
    34   34   14 1
    35   35   16 1
    36   36   17 1
    37   37   18 1
    38   38   25 1
    39   39   26 1
    40   40   26 1
    41   41   27 1
    42   42   27 1
    43   43   27 1
    44   44   28 1
    45   45   28 1
    46   46   28 1
    47   17   18 ar
@<TRIPOS>SUBSTRUCTURE
     1 RES1 1

@<TRIPOS>CRYSIN
  15.3780   17.4690   14.1910  90.0000  90.0000  90.0000  61 1

