# MOL2 file generated by ConQuest
# Please check atom types

@<TRIPOS>MOLECULE
DUZFUA
    30    32     1
SMALL
NO_CHARGES
****
Generated from CSD

@<TRIPOS>ATOM
      1 C1         4.5637    1.8248    6.0397 C.3       1 RES1    0.0000
      2 O1         3.5712    0.7747    5.8611 O.3       1 RES1    0.0000
      3 N1         3.5614    0.5213    4.4434 N.am      1 RES1    0.0000
      4 C2         4.5333    1.4844    3.8828 C.3       1 RES1    0.0000
      5 C3         3.8442    2.8551    4.0186 C.3       1 RES1    0.0000
      6 C4         3.9123    3.1054    5.5635 C.3       1 RES1    0.0000
      7 C5         5.5860    1.5240    4.9825 C.3       1 RES1    0.0000
      8 O2         4.7081    4.2321    5.8171 O.3       1 RES1    0.0000
      9 C6         4.5304    3.8922    3.2426 C.1       1 RES1    0.0000
     10 N2         5.0606    4.6728    2.5995 N.1       1 RES1    0.0000
     11 C7         3.5504   -0.8298    4.1622 C.2       1 RES1    0.0000
     12 O3         3.5049   -1.6593    5.0480 O.2       1 RES1    0.0000
     13 C8         3.4056   -1.1970    2.7318 C.ar      1 RES1    0.0000
     14 C9         2.8001   -0.3681    1.7949 C.ar      1 RES1    0.0000
     15 C10        2.5940   -0.8164    0.5111 C.ar      1 RES1    0.0000
     16 C11        2.9847   -2.0791    0.1469 C.ar      1 RES1    0.0000
     17 C12        3.5857   -2.9049    1.0648 C.ar      1 RES1    0.0000
     18 C13        3.7860   -2.4764    2.3489 C.ar      1 RES1    0.0000
     19 H1         4.8187    1.7465    6.9595 H         1 RES1    0.0000
     20 H2         4.8219    1.2370    2.9901 H         1 RES1    0.0000
     21 H3         2.9478    2.7923    3.7548 H         1 RES1    0.0000
     22 H4         3.0117    3.2377    5.9307 H         1 RES1    0.0000
     23 H5         6.0888    0.6537    5.1110 H         1 RES1    0.0000
     24 H6         6.2101    2.2518    4.8497 H         1 RES1    0.0000
     25 H7         4.6012    4.4619    6.6844 H         1 RES1    0.0000
     26 H8         2.5112    0.5042    2.0796 H         1 RES1    0.0000
     27 H9         2.1676   -0.2350   -0.0935 H         1 RES1    0.0000
     28 H10        2.7926   -2.4152   -0.7317 H         1 RES1    0.0000
     29 H11        3.8533   -3.7291    0.7922 H         1 RES1    0.0000
     30 H12        4.1686   -3.0219    2.9379 H         1 RES1    0.0000
@<TRIPOS>BOND
     1    1    2 1
     2    2    3 1
     3    3    4 1
     4    4    5 1
     5    5    6 1
     6    6    1 1
     7    7    1 1
     8    8    6 1
     9    9    5 1
    10   10    9 3
    11   11    3 1
    12   12   11 2
    13   13   11 1
    14   14   13 ar
    15   15   14 ar
    16   16   15 ar
    17   17   16 ar
    18   18   13 ar
    19   19    1 1
    20   20    4 1
    21   21    5 1
    22   22    6 1
    23   23    7 1
    24   24    7 1
    25   25    8 1
    26   26   14 1
    27   27   15 1
    28   28   16 1
    29   29   17 1
    30   30   18 1
    31    4    7 1
    32   17   18 ar
@<TRIPOS>SUBSTRUCTURE
     1 RES1 1

@<TRIPOS>CRYSIN
   8.0850   10.6820   27.5080  90.0000  90.0000  90.0000  19 1

