# MOL2 file generated by ConQuest
# Please check atom types

@<TRIPOS>MOLECULE
DUZFOU
    62    66     1
SMALL
NO_CHARGES
****
Generated from CSD

@<TRIPOS>ATOM
      1 N1         1.5004    6.4618   11.4317 N.am      1 RES1    0.0000
      2 N2         0.9840    7.4063   12.2955 N.2       1 RES1    0.0000
      3 N3         3.1584    7.2299   12.5638 N.am      1 RES1    0.0000
      4 N4         4.4596    7.5361   12.9017 N.am      1 RES1    0.0000
      5 N5         1.2295   11.4965   17.2527 N.pl3     1 RES1    0.0000
      6 O1         3.6266    5.5081   11.0731 O.2       1 RES1    0.0000
      7 O2         2.1490   12.2412   17.5724 O.2       1 RES1    0.0000
      8 O3         0.1468   11.4992   17.8041 O.2       1 RES1    0.0000
      9 O4         6.2256    7.0055   14.1931 O.2       1 RES1    0.0000
     10 O5         4.1864    6.1149   14.6023 O.3       1 RES1    0.0000
     11 C1         2.8546    6.2856   11.5980 C.2       1 RES1    0.0000
     12 C2         1.9946    7.8719   12.9646 C.2       1 RES1    0.0000
     13 C3         1.8459    8.8316   14.0532 C.ar      1 RES1    0.0000
     14 C4         0.5865    8.9684   14.6253 C.ar      1 RES1    0.0000
     15 H1        -0.1257    8.4684   14.2968 H         1 RES1    0.0000
     16 C5         0.3826    9.8363   15.6726 C.ar      1 RES1    0.0000
     17 H2        -0.4601    9.9235   16.0566 H         1 RES1    0.0000
     18 C6         1.4406   10.5711   16.1394 C.ar      1 RES1    0.0000
     19 C7         2.6843   10.4694   15.5908 C.ar      1 RES1    0.0000
     20 H3         3.3845   10.9884   15.9167 H         1 RES1    0.0000
     21 C8         2.8923    9.5926   14.5522 C.ar      1 RES1    0.0000
     22 H4         3.7402    9.5098   14.1806 H         1 RES1    0.0000
     23 C9         0.6223    5.7198   10.5995 C.ar      1 RES1    0.0000
     24 C10       -0.7333    5.7595   10.8511 C.ar      1 RES1    0.0000
     25 H5        -1.0697    6.2910   11.5361 H         1 RES1    0.0000
     26 C11       -1.5876    5.0022   10.0739 C.ar      1 RES1    0.0000
     27 H6        -2.5022    5.0220   10.2388 H         1 RES1    0.0000
     28 C12       -1.0955    4.2252    9.0659 C.ar      1 RES1    0.0000
     29 H7        -1.6721    3.7027    8.5572 H         1 RES1    0.0000
     30 C13        0.2410    4.2144    8.8048 C.ar      1 RES1    0.0000
     31 H8         0.5692    3.6946    8.1066 H         1 RES1    0.0000
     32 C14        1.1204    4.9681    9.5685 C.ar      1 RES1    0.0000
     33 H9         2.0326    4.9627    9.3849 H         1 RES1    0.0000
     34 C15        5.2887    8.2426   11.9013 C.3       1 RES1    0.0000
     35 H10        5.8535    7.5987   11.4483 H         1 RES1    0.0000
     36 H11        5.8653    8.8740   12.3591 H         1 RES1    0.0000
     37 C16        4.4764    8.9729   10.8905 C.ar      1 RES1    0.0000
     38 C17        3.9888   10.2302   11.1495 C.ar      1 RES1    0.0000
     39 H12        4.1671   10.6277   11.9701 H         1 RES1    0.0000
     40 C18        3.2415   10.9146   10.2207 C.ar      1 RES1    0.0000
     41 H13        2.9315   11.7699   10.4119 H         1 RES1    0.0000
     42 C19        2.9568   10.3399    9.0292 C.ar      1 RES1    0.0000
     43 H14        2.4453   10.8022    8.4054 H         1 RES1    0.0000
     44 C20        3.4053    9.1141    8.7443 C.ar      1 RES1    0.0000
     45 H15        3.1995    8.7256    7.9263 H         1 RES1    0.0000
     46 C21        4.1826    8.4144    9.6686 C.ar      1 RES1    0.0000
     47 H16        4.5016    7.5672    9.4561 H         1 RES1    0.0000
     48 C22        5.0544    6.8720   13.9313 C.2       1 RES1    0.0000
     49 C23        4.6766    5.5203   15.8415 C.3       1 RES1    0.0000
     50 H17        5.5997    5.2505   15.7246 H         1 RES1    0.0000
     51 H18        4.1577    4.7270   16.0448 H         1 RES1    0.0000
     52 C24        4.5841    6.4736   16.9809 C.ar      1 RES1    0.0000
     53 C25        5.6668    6.7488   17.7652 C.ar      1 RES1    0.0000
     54 H19        6.4891    6.3558   17.5745 H         1 RES1    0.0000
     55 C26        5.5473    7.6140   18.8462 C.ar      1 RES1    0.0000
     56 H20        6.2899    7.8028   19.3723 H         1 RES1    0.0000
     57 C27        4.3555    8.1824   19.1387 C.ar      1 RES1    0.0000
     58 H21        4.2739    8.7526   19.8680 H         1 RES1    0.0000
     59 C28        3.2903    7.9153   18.3664 C.ar      1 RES1    0.0000
     60 H22        2.4690    8.3074   18.5588 H         1 RES1    0.0000
     61 C29        3.4058    7.0735   17.3015 C.ar      1 RES1    0.0000
     62 H23        2.6563    6.9026   16.7776 H         1 RES1    0.0000
@<TRIPOS>BOND
     1    1    2 1
     2    2   12 2
     3    3    4 1
     4    4   34 1
     5    5    7 2
     6    6   11 2
     7    8    5 2
     8    9   48 2
     9   10   48 1
    10   11    1 1
    11   12    3 1
    12   13   12 1
    13   14   13 ar
    14   15   14 1
    15   16   14 ar
    16   17   16 1
    17   18    5 1
    18   19   18 ar
    19   20   19 1
    20   21   13 ar
    21   22   21 1
    22   23    1 1
    23   24   23 ar
    24   25   24 1
    25   26   24 ar
    26   27   26 1
    27   28   26 ar
    28   29   28 1
    29   30   28 ar
    30   31   30 1
    31   32   23 ar
    32   33   32 1
    33   34   35 1
    34   36   34 1
    35   37   34 1
    36   38   37 ar
    37   39   38 1
    38   40   38 ar
    39   41   40 1
    40   42   40 ar
    41   43   42 1
    42   44   42 ar
    43   45   44 1
    44   46   37 ar
    45   47   46 1
    46   48    4 1
    47   49   10 1
    48   50   49 1
    49   51   49 1
    50   52   49 1
    51   53   52 ar
    52   54   53 1
    53   55   53 ar
    54   56   55 1
    55   57   55 ar
    56   58   57 1
    57   59   57 ar
    58   60   59 1
    59   61   52 ar
    60   62   61 1
    61    3   11 1
    62   16   18 ar
    63   19   21 ar
    64   30   32 ar
    65   44   46 ar
    66   59   61 ar
@<TRIPOS>SUBSTRUCTURE
     1 RES1 1

@<TRIPOS>CRYSIN
  23.7174    8.9936   23.7173  90.0000  90.0000  90.0000  61 1

