# MOL2 file generated by ConQuest
# Please check atom types

@<TRIPOS>MOLECULE
DUZPIX
    52    54     1
SMALL
NO_CHARGES
****
Generated from CSD

@<TRIPOS>ATOM
      1 C1        14.5841   -0.2644    4.2027 C.3       1 RES1    0.0000
      2 C2        13.5896    0.8060    3.7190 C.3       1 RES1    0.0000
      3 C3        14.3953    1.7001    2.8003 C.3       1 RES1    0.0000
      4 C4        15.3864    0.7523    2.0723 C.3       1 RES1    0.0000
      5 C5        15.7836   -0.2044    3.2155 C.3       1 RES1    0.0000
      6 C6        16.1284   -1.6388    2.8792 C.3       1 RES1    0.0000
      7 C7        15.2179   -2.5405    3.6584 C.3       1 RES1    0.0000
      8 C8        14.0939   -1.7269    4.1897 C.3       1 RES1    0.0000
      9 C9        15.0334    0.1622    5.6223 C.3       1 RES1    0.0000
     10 O1        12.4824    0.1903    2.9806 O.3       1 RES1    0.0000
     11 C10       11.2588    0.6565    3.1722 C.2       1 RES1    0.0000
     12 O2        10.9785    1.5890    3.8881 O.2       1 RES1    0.0000
     13 C11       10.2616   -0.0907    2.3748 C.ar      1 RES1    0.0000
     14 C12       10.6227   -1.0857    1.4821 C.ar      1 RES1    0.0000
     15 C13        9.6318   -1.7295    0.7965 C.ar      1 RES1    0.0000
     16 C14        8.2936   -1.4651    0.9612 C.ar      1 RES1    0.0000
     17 C15        7.9609   -0.4611    1.8331 C.ar      1 RES1    0.0000
     18 C16        8.9072    0.2440    2.5412 C.ar      1 RES1    0.0000
     19 N1        10.0400   -2.7986   -0.1534 N.pl3     1 RES1    0.0000
     20 O3        11.2105   -2.9659   -0.3562 O.2       1 RES1    0.0000
     21 O4         9.1622   -3.3682   -0.7410 O.2       1 RES1    0.0000
     22 N2         6.5439   -0.0639    2.0229 N.pl3     1 RES1    0.0000
     23 O5         5.7336   -0.7255    1.3685 O.2       1 RES1    0.0000
     24 O6         6.2874    0.7945    2.7813 O.2       1 RES1    0.0000
     25 C17       13.6043    2.6478    1.9250 C.3       1 RES1    0.0000
     26 C18       14.7543    0.0805    0.8528 C.3       1 RES1    0.0000
     27 C19       16.6091    1.5839    1.6398 C.2       1 RES1    0.0000
     28 C20       17.1113    1.6911    0.4524 C.2       1 RES1    0.0000
     29 H1        13.2795    1.2007    4.5762 H         1 RES1    0.0000
     30 H2        14.9234    2.2353    3.3888 H         1 RES1    0.0000
     31 H3        16.6418    0.2682    3.6748 H         1 RES1    0.0000
     32 H4        17.2666   -1.7116    3.2068 H         1 RES1    0.0000
     33 H5        15.9653   -1.7371    1.8461 H         1 RES1    0.0000
     34 H6        14.7868   -3.2443    3.0421 H         1 RES1    0.0000
     35 H7        15.7803   -2.8484    4.6976 H         1 RES1    0.0000
     36 H8        13.8686   -2.1075    5.1136 H         1 RES1    0.0000
     37 H9        13.2354   -2.0054    3.4322 H         1 RES1    0.0000
     38 H10       15.6507   -0.4981    5.7636 H         1 RES1    0.0000
     39 H11       14.2736    0.1916    6.2230 H         1 RES1    0.0000
     40 H12       15.3917    1.0474    5.6249 H         1 RES1    0.0000
     41 H13       11.5841   -1.2901    1.1961 H         1 RES1    0.0000
     42 H14        7.4785   -2.0565    0.4507 H         1 RES1    0.0000
     43 H15        8.6225    0.8302    3.2675 H         1 RES1    0.0000
     44 H16       13.0923    2.0820    1.4127 H         1 RES1    0.0000
     45 H17       14.2055    3.1166    1.3867 H         1 RES1    0.0000
     46 H18       13.1023    3.3082    2.5308 H         1 RES1    0.0000
     47 H19       13.9217   -0.4598    1.0921 H         1 RES1    0.0000
     48 H20       14.4111    0.6897    0.2600 H         1 RES1    0.0000
     49 H21       15.3587   -0.6003    0.2947 H         1 RES1    0.0000
     50 H22       17.0625    2.0948    2.5481 H         1 RES1    0.0000
     51 H23       17.9195    2.1842    0.3293 H         1 RES1    0.0000
     52 H24       16.7518    1.0091   -0.3900 H         1 RES1    0.0000
@<TRIPOS>BOND
     1    1    2 1
     2    2    3 1
     3    3    4 1
     4    4    5 1
     5    5    1 1
     6    6    5 1
     7    7    6 1
     8    8    1 1
     9    9    1 1
    10   10    2 1
    11   11   10 1
    12   12   11 2
    13   13   11 1
    14   14   13 ar
    15   15   14 ar
    16   16   15 ar
    17   17   16 ar
    18   18   13 ar
    19   19   15 1
    20   20   19 2
    21   21   19 2
    22   22   17 1
    23   23   22 2
    24   24   22 2
    25   25    3 1
    26   26    4 1
    27   27    4 1
    28   28   27 2
    29   29    2 1
    30   30    3 1
    31   31    5 1
    32   32    6 1
    33   33    6 1
    34   34    7 1
    35   35    7 1
    36   36    8 1
    37   37    8 1
    38   38    9 1
    39   39    9 1
    40   40    9 1
    41   41   14 1
    42   42   16 1
    43   43   18 1
    44   44   25 1
    45   45   25 1
    46   46   25 1
    47   47   26 1
    48   48   26 1
    49   49   26 1
    50   50   27 1
    51   51   28 1
    52   52   28 1
    53    7    8 1
    54   17   18 ar
@<TRIPOS>SUBSTRUCTURE
     1 RES1 1

@<TRIPOS>CRYSIN
  17.9250   12.7730    8.6890  90.0000  94.0700  90.0000  14 1

