# MOL2 file generated by ConQuest
# Please check atom types

@<TRIPOS>MOLECULE
DZOCTO
    19    20     1
SMALL
USER_CHARGES
****
Generated from CSD

@<TRIPOS>ATOM
      1 N1         7.1850    5.2106    6.0562 N.pl3     1 RES1    1.0000
      2 C1         8.4415    5.6218    6.7599 C.3       1 RES1    0.0000
      3 C2         8.5144    3.2580    7.4516 C.3       1 RES1    0.0000
      4 C3         7.2348    4.9230    8.7813 C.3       1 RES1    0.0000
      5 H1         8.8144    6.3091    6.2695 H         1 RES1    0.0000
      6 H2        10.1157    4.6361    7.3759 H         1 RES1    0.0000
      7 H3         8.4394    2.5398    6.8177 H         1 RES1    0.0000
      8 H4         6.3242    5.2005    9.0205 H         1 RES1    0.0000
      9 H5         8.8759    6.2420    8.6617 H         1 RES1    0.0000
     10 O1         6.8408    5.8193    5.0046 O.2       1 RES1   -1.0000
     11 N2         6.4947    4.2887    6.5386 N.2       1 RES1    0.0000
     12 C4         9.3163    4.3868    6.8307 C.3       1 RES1    0.0000
     13 C5         7.1321    3.7868    7.7816 C.3       1 RES1    0.0000
     14 C6         8.0192    6.0505    8.1553 C.3       1 RES1    0.0000
     15 H6         9.6108    4.1456    5.9705 H         1 RES1    0.0000
     16 H7         8.9288    2.9362    8.2929 H         1 RES1    0.0000
     17 H8         6.5649    3.0907    8.1135 H         1 RES1    0.0000
     18 H9         7.7324    4.6025    9.5587 H         1 RES1    0.0000
     19 H10        7.4916    6.8198    8.1035 H         1 RES1    0.0000
@<TRIPOS>BOND
     1    1    2 1
     2    2    5 1
     3    3    7 1
     4    4    8 1
     5    6   12 1
     6    9   14 1
     7   10    1 1
     8   11    1 2
     9   12    2 1
    10   13    3 1
    11   14    2 1
    12   15   12 1
    13   16    3 1
    14   17   13 1
    15   18    4 1
    16   19   14 1
    17    3   12 1
    18    4   13 1
    19    4   14 1
    20   11   13 1
@<TRIPOS>SUBSTRUCTURE
     1 RES1 1

@<TRIPOS>CRYSIN
   9.7320    6.7190   10.2110  90.0000 102.5400  90.0000 231 1

