# MOL2 file generated by ConQuest
# Please check atom types

@<TRIPOS>MOLECULE
EACVOT
    55    57     1
SMALL
NO_CHARGES
****
Generated from CSD

@<TRIPOS>ATOM
      1 N1         1.3419    9.4497    2.6748 N.am      1 RES1    0.0000
      2 C1         2.0000   10.5918    2.8647 C.2       1 RES1    0.0000
      3 O1         3.1458   10.7120    3.2957 O.2       1 RES1    0.0000
      4 N2         1.1447   11.6548    2.5130 N.am      1 RES1    0.0000
      5 C2         1.8965    8.1623    3.1420 C.3       1 RES1    0.0000
      6 H1         1.9002    7.5279    2.4089 H         1 RES1    0.0000
      7 H2         1.3514    7.8182    3.8644 H         1 RES1    0.0000
      8 H3         2.8035    8.2963    3.4582 H         1 RES1    0.0000
      9 C3        -0.1446   11.1032    1.9767 C.3       1 RES1    0.0000
     10 H4        -0.8813   11.5429    2.4297 H         1 RES1    0.0000
     11 C4        -0.1017    9.6327    2.4249 C.3       1 RES1    0.0000
     12 H5        -0.5878    9.5353    3.2585 H         1 RES1    0.0000
     13 C5        -0.6132    8.6277    1.4247 C.3       1 RES1    0.0000
     14 H6        -0.5754    7.7566    1.8511 H         1 RES1    0.0000
     15 H7        -0.2034    8.5771    0.5483 H         1 RES1    0.0000
     16 H8        -1.5410    8.9017    1.3324 H         1 RES1    0.0000
     17 C6        -0.2753   11.3458    0.5115 C.ar      1 RES1    0.0000
     18 C7         0.8098   11.2239   -0.3487 C.ar      1 RES1    0.0000
     19 C8         0.6253   11.3426   -1.7211 C.ar      1 RES1    0.0000
     20 C9        -0.6446   11.5829   -2.2337 C.ar      1 RES1    0.0000
     21 C10       -1.7294   11.7045   -1.3732 C.ar      1 RES1    0.0000
     22 C11       -1.5448   11.5860   -0.0008 C.ar      1 RES1    0.0000
     23 H9         1.6501   11.0650   -0.0096 H         1 RES1    0.0000
     24 H10        1.3433   11.2617   -2.2905 H         1 RES1    0.0000
     25 H11       -0.7664   11.6616   -3.1419 H         1 RES1    0.0000
     26 H12       -2.5697   11.8630   -1.7124 H         1 RES1    0.0000
     27 H13       -2.2629   11.6671    0.5686 H         1 RES1    0.0000
     28 C12        1.2729   13.0176    2.6600 C.2       1 RES1    0.0000
     29 O2         0.3445   13.7229    2.3972 O.2       1 RES1    0.0000
     30 C13        2.6245   13.5485    3.1728 C.3       1 RES1    0.0000
     31 H14        2.6123   13.5721    4.1427 H         1 RES1    0.0000
     32 H15        3.3315   12.9439    2.8980 H         1 RES1    0.0000
     33 C14        2.9171   14.9251    2.6472 C.3       1 RES1    0.0000
     34 H16        2.1057   15.4493    2.7359 H         1 RES1    0.0000
     35 C15        3.2939   14.9325    1.2266 C.3       1 RES1    0.0000
     36 H17        3.4143   15.8556    0.9593 H         1 RES1    0.0000
     37 H18        2.5816   14.5353    0.7011 H         1 RES1    0.0000
     38 H19        4.1171   14.4407    1.0777 H         1 RES1    0.0000
     39 N3         3.9643   15.6092    3.3941 N.3       1 RES1    0.0000
     40 H20        4.6810   15.9789    3.0413 H         1 RES1    0.0000
     41 O3         3.6467   15.5890    4.8026 O.3       1 RES1    0.0000
     42 C16        3.1268   16.8213    5.1944 C.3       1 RES1    0.0000
     43 H21        2.6668   16.7095    6.0412 H         1 RES1    0.0000
     44 H22        2.4704   17.1039    4.5383 H         1 RES1    0.0000
     45 C17        4.1717   17.9253    5.3472 C.ar      1 RES1    0.0000
     46 C18        5.3920   17.6230    5.9408 C.ar      1 RES1    0.0000
     47 C19        6.2997   18.6379    6.2186 C.ar      1 RES1    0.0000
     48 C20        5.9877   19.9552    5.9032 C.ar      1 RES1    0.0000
     49 C21        4.7680   20.2573    5.3100 C.ar      1 RES1    0.0000
     50 C22        3.8597   19.2422    5.0316 C.ar      1 RES1    0.0000
     51 H23        5.5980   16.7509    6.1496 H         1 RES1    0.0000
     52 H24        7.1074   18.4381    6.6113 H         1 RES1    0.0000
     53 H25        6.5887   20.6271    6.0874 H         1 RES1    0.0000
     54 H26        4.5614   21.1293    5.1009 H         1 RES1    0.0000
     55 H27        3.0521   19.4422    4.6386 H         1 RES1    0.0000
@<TRIPOS>BOND
     1    1    2 1
     2    2    3 2
     3    4    2 1
     4    5    1 1
     5    6    5 1
     6    7    5 1
     7    8    5 1
     8    9    4 1
     9   10    9 1
    10   11    1 1
    11   12   11 1
    12   13   11 1
    13   14   13 1
    14   15   13 1
    15   16   13 1
    16   17    9 1
    17   18   17 ar
    18   19   18 ar
    19   20   19 ar
    20   21   20 ar
    21   22   17 ar
    22   23   18 1
    23   24   19 1
    24   25   20 1
    25   26   21 1
    26   27   22 1
    27   28    4 1
    28   29   28 2
    29   30   28 1
    30   31   30 1
    31   32   30 1
    32   33   30 1
    33   34   33 1
    34   35   33 1
    35   36   35 1
    36   37   35 1
    37   38   35 1
    38   39   33 1
    39   40   39 1
    40   41   39 1
    41   42   41 1
    42   43   42 1
    43   44   42 1
    44   45   42 1
    45   46   45 ar
    46   47   46 ar
    47   48   47 ar
    48   49   48 ar
    49   50   45 ar
    50   51   46 1
    51   52   47 1
    52   53   48 1
    53   54   49 1
    54   55   50 1
    55    9   11 1
    56   21   22 ar
    57   49   50 ar
@<TRIPOS>SUBSTRUCTURE
     1 RES1 1

@<TRIPOS>CRYSIN
   6.2300   13.6970   11.8590  90.0000  92.9600  90.0000   4 1

