# MOL2 file generated by ConQuest
# Please check atom types

@<TRIPOS>MOLECULE
EAFWEN
    29    31     1
SMALL
NO_CHARGES
****
Generated from CSD

@<TRIPOS>ATOM
      1 C1        14.9750    3.5395    1.4526 C.2       1 RES1    0.0000
      2 C2        13.5954    4.1196    1.5275 C.3       1 RES1    0.0000
      3 C3        12.7065    3.1239    2.3307 C.3       1 RES1    0.0000
      4 C4        12.9341    1.7305    2.0162 C.1       1 RES1    0.0000
      5 C5        13.2357    0.6160    1.7486 C.1       1 RES1    0.0000
      6 C6        13.7087   -0.7347    1.4488 C.3       1 RES1    0.0000
      7 C7        15.1920   -0.7262    1.0420 C.3       1 RES1    0.0000
      8 C8        15.4198   -0.0703   -0.3447 C.3       1 RES1    0.0000
      9 C9        16.5674    0.8994   -0.3669 C.3       1 RES1    0.0000
     10 C10       16.3282    2.0192    0.5659 C.2       1 RES1    0.0000
     11 C11       16.9255    2.4788    1.7154 C.2       1 RES1    0.0000
     12 C12       16.0396    3.4438    2.2779 C.2       1 RES1    0.0000
     13 C13       18.2119    1.9887    2.3317 C.3       1 RES1    0.0000
     14 C14       13.4638    5.5350    2.0523 C.2       1 RES1    0.0000
     15 C15       12.7481    6.3954    1.3185 C.2       1 RES1    0.0000
     16 C16       14.0178    5.8379    3.3504 C.3       1 RES1    0.0000
     17 C17       10.5693    4.1205    2.8439 C.2       1 RES1    0.0000
     18 C18        9.2824    4.5588    2.2240 C.ar      1 RES1    0.0000
     19 C19        8.9445    4.1762    0.9505 C.ar      1 RES1    0.0000
     20 C20        7.7352    4.5658    0.4018 C.ar      1 RES1    0.0000
     21 C21        6.9106    5.3780    1.1218 C.ar      1 RES1    0.0000
     22 C22        7.2254    5.7921    2.3611 C.ar      1 RES1    0.0000
     23 C23        8.4285    5.3708    2.9330 C.ar      1 RES1    0.0000
     24 O1        15.1489    2.7183    0.3952 O.3       1 RES1    0.0000
     25 O2        11.3200    3.4421    1.9726 O.3       1 RES1    0.0000
     26 O3        10.8787    4.3806    3.9742 O.2       1 RES1    0.0000
     27 O4         5.4099    5.4867   -0.5930 O.2       1 RES1    0.0000
     28 O5         4.9389    6.5634    1.1428 O.2       1 RES1    0.0000
     29 N1         5.6579    5.8419    0.5143 N.pl3     1 RES1    0.0000
@<TRIPOS>BOND
     1    1    2 1
     2    2    3 1
     3    3    4 1
     4    4    5 3
     5    5    6 1
     6    6    7 1
     7    7    8 1
     8    8    9 1
     9    9   10 1
    10   10   11 2
    11   11   12 1
    12   12    1 2
    13   13   11 1
    14   14    2 1
    15   15   14 2
    16   16   14 1
    17   17   18 1
    18   18   19 ar
    19   19   20 ar
    20   20   21 ar
    21   21   22 ar
    22   22   23 ar
    23   23   18 ar
    24   24    1 1
    25   25    3 1
    26   26   17 2
    27   27   29 2
    28   28   29 2
    29   29   21 1
    30   10   24 1
    31   17   25 1
@<TRIPOS>SUBSTRUCTURE
     1 RES1 1

@<TRIPOS>CRYSIN
  12.3740   14.8720    5.6070  90.8000  98.6500  91.2500   2 1

