# MOL2 file generated by ConQuest
# Please check atom types

@<TRIPOS>MOLECULE
EAXIZP
    31    31     1
SMALL
NO_CHARGES
****
Generated from CSD

@<TRIPOS>ATOM
      1 O1         6.3510    1.4724    1.0455 O.3       1 RES1    0.0000
      2 N1         5.4712    2.3829    1.7509 N.2       1 RES1    0.0000
      3 C1         6.2098    3.4192    2.0255 C.2       1 RES1    0.0000
      4 C2         7.5589    3.3123    1.5595 C.2       1 RES1    0.0000
      5 C3         7.6111    2.0272    0.9473 C.2       1 RES1    0.0000
      6 O2         8.5065    1.4318    0.3829 O.2       1 RES1    0.0000
      7 C4         8.5934    4.2340    1.5847 C.2       1 RES1    0.0000
      8 N2         9.7855    3.9405    1.1362 N.3       1 RES1    0.0000
      9 C5         8.3690    5.6372    2.0533 C.3       1 RES1    0.0000
     10 C6         8.2485    5.7979    3.5497 C.2       1 RES1    0.0000
     11 O3         8.5442    4.9852    4.3660 O.2       1 RES1    0.0000
     12 O4         7.7888    7.0187    3.8168 O.3       1 RES1    0.0000
     13 C7         7.6122    7.3654    5.2175 C.3       1 RES1    0.0000
     14 C8         6.8992    8.6749    5.2503 C.3       1 RES1    0.0000
     15 O5         5.7848    4.4814    2.7032 O.3       1 RES1    0.0000
     16 C9         4.4019    4.4856    3.1416 C.3       1 RES1    0.0000
     17 C10        4.2634    5.6924    4.0486 C.3       1 RES1    0.0000
     18 H1        10.4572    4.4933    1.1337 H         1 RES1    0.0000
     19 H2        10.0277    3.2424    0.9070 H         1 RES1    0.0000
     20 H3         7.5363    5.9747    1.6376 H         1 RES1    0.0000
     21 H4         9.0767    6.1914    1.8391 H         1 RES1    0.0000
     22 H5         8.4941    7.4492    5.6937 H         1 RES1    0.0000
     23 H6         7.0903    6.6875    5.7189 H         1 RES1    0.0000
     24 H7         6.7318    8.9936    6.1975 H         1 RES1    0.0000
     25 H8         5.9661    8.5743    4.8371 H         1 RES1    0.0000
     26 H9         7.3722    9.3709    4.8623 H         1 RES1    0.0000
     27 H10        4.1705    3.6617    3.6782 H         1 RES1    0.0000
     28 H11        3.7610    4.5073    2.3934 H         1 RES1    0.0000
     29 H12        4.7764    5.5345    4.7363 H         1 RES1    0.0000
     30 H13        3.5080    5.8210    4.2073 H         1 RES1    0.0000
     31 H14        4.7431    6.4080    3.6782 H         1 RES1    0.0000
@<TRIPOS>BOND
     1    1    2 1
     2    2    3 2
     3    3    4 1
     4    4    5 1
     5    5    1 1
     6    6    5 2
     7    7    4 2
     8    8    7 1
     9    9    7 1
    10   10    9 1
    11   11   10 2
    12   12   10 1
    13   13   12 1
    14   14   13 1
    15   15    3 1
    16   16   15 1
    17   17   16 1
    18   18    8 1
    19   19    8 1
    20   20    9 1
    21   21    9 1
    22   22   13 1
    23   23   13 1
    24   24   14 1
    25   25   14 1
    26   26   14 1
    27   27   16 1
    28   28   16 1
    29   29   17 1
    30   30   17 1
    31   31   17 1
@<TRIPOS>SUBSTRUCTURE
     1 RES1 1

@<TRIPOS>CRYSIN
  13.3170    6.9880   25.7970  90.0000 102.4200  90.0000  15 1

