# MOL2 file generated by ConQuest
# Please check atom types

@<TRIPOS>MOLECULE
EAZOBZ10
    41    42     1
SMALL
USER_CHARGES
****
Generated from CSD

@<TRIPOS>ATOM
      1 C1        -0.8130    8.2101    0.8792 C.3       1 RES1    0.0000
      2 C2         1.0749    2.3594    0.4278 C.ar      1 RES1    0.0000
      3 C3         0.5746    3.6423    0.2574 C.ar      1 RES1    0.0000
      4 C4         2.5815   -1.5919    0.5789 C.ar      1 RES1    0.0000
      5 C5         2.8831   -1.8285    1.8771 C.ar      1 RES1    0.0000
      6 C6         3.3763   -3.0460    2.2514 C.ar      1 RES1    0.0000
      7 C7         3.5662   -4.0436    1.3032 C.ar      1 RES1    0.0000
      8 C8         3.2793   -3.8219   -0.0174 C.ar      1 RES1    0.0000
      9 C9        -0.9022    7.5445   -0.2928 C.3       1 RES1    0.0000
     10 C10        2.7644   -2.5734   -0.3917 C.ar      1 RES1    0.0000
     11 C11        4.0987   -5.3852    1.7073 C.2       1 RES1    0.0000
     12 C12        4.7553   -6.7914    3.5154 C.3       1 RES1    0.0000
     13 C13        3.5718   -7.6890    3.7113 C.3       1 RES1    0.0000
     14 C14       -0.2988    5.4785   -1.2553 C.2       1 RES1    0.0000
     15 C15        0.2410    4.1012   -1.0066 C.ar      1 RES1    0.0000
     16 C16        0.3528    3.2359   -2.0829 C.ar      1 RES1    0.0000
     17 C17        0.8272    1.9800   -1.9629 C.ar      1 RES1    0.0000
     18 C18        1.1663    1.5821   -0.7100 C.ar      1 RES1    0.0000
     19 H1         1.3396    1.9890    1.4238 H         1 RES1    0.0000
     20 H2        -1.2303    8.0913    1.8777 H         1 RES1    0.0000
     21 H3         0.5775    4.3364    0.9575 H         1 RES1    0.0000
     22 H4        -1.4283    8.9636    1.0819 H         1 RES1    0.0000
     23 H5        -0.0461    8.0035    1.2559 H         1 RES1    0.0000
     24 H6         2.7011   -1.1094    2.7855 H         1 RES1    0.0000
     25 H7         3.5280   -3.1880    3.3264 H         1 RES1    0.0000
     26 H8         3.6128   -4.5349   -0.7088 H         1 RES1    0.0000
     27 H9         2.7132   -2.5336   -1.4673 H         1 RES1    0.0000
     28 H10       -1.3696    7.5961   -0.9264 H         1 RES1    0.0000
     29 H11        4.8412   -6.6275    4.6010 H         1 RES1    0.0000
     30 H12        5.3198   -7.1505    2.7979 H         1 RES1    0.0000
     31 H13        3.3985   -7.1776    4.3585 H         1 RES1    0.0000
     32 H14        4.1632   -8.4628    3.9108 H         1 RES1    0.0000
     33 H15        0.2262    3.7333   -3.0093 H         1 RES1    0.0000
     34 H16        0.6388    1.5403   -2.9596 H         1 RES1    0.0000
     35 N1         1.7180    0.1121   -0.6665 N.pl3     1 RES1    1.0000
     36 N2         2.0170   -0.1473    0.4184 N.2       1 RES1    0.0000
     37 O1         1.7502   -0.5182   -1.7925 O.2       1 RES1   -1.0000
     38 O2         4.3166   -6.2639    0.9264 O.2       1 RES1    0.0000
     39 O3         4.2828   -5.4855    3.0149 O.3       1 RES1    0.0000
     40 O4        -0.3819    6.1827   -0.1442 O.3       1 RES1    0.0000
     41 O5        -0.5906    5.8694   -2.3422 O.2       1 RES1    0.0000
@<TRIPOS>BOND
     1    1    9 1
     2    2    3 ar
     3    3   15 ar
     4    4    5 ar
     5    5    6 ar
     6    6    7 ar
     7    7    8 ar
     8    8   10 ar
     9    9   28 1
    10   10    4 ar
    11   11    7 1
    12   12   13 1
    13   13   31 1
    14   14   15 1
    15   15   16 ar
    16   16   17 ar
    17   17   18 ar
    18   18    2 ar
    19   19    2 1
    20   20    1 1
    21   21    3 1
    22   22    1 1
    23   23    1 1
    24   24    5 1
    25   25    6 1
    26   26    8 1
    27   27   10 1
    28   29   12 1
    29   30   12 1
    30   32   13 1
    31   33   16 1
    32   34   17 1
    33   35   18 1
    34   36    4 1
    35   37   35 1
    36   38   11 2
    37   39   11 1
    38   40    9 1
    39   41   14 2
    40   12   39 1
    41   14   40 1
    42   35   36 2
@<TRIPOS>SUBSTRUCTURE
     1 RES1 1

@<TRIPOS>CRYSIN
   7.5600   18.3500    6.2800  94.3800  97.2100  83.9700   2 1

