# MOL2 file generated by ConQuest
# Please check atom types

@<TRIPOS>MOLECULE
EAZOBZ01
    22    22     2
SMALL
NO_CHARGES
****
Generated from CSD

@<TRIPOS>ATOM
      1 C1         0.3132   -2.2543   -6.2675 C.2       1 RES1    0.0000
      2 C2         3.8419    0.7360   -1.3335 C.2       1 RES1    0.0000
      3 C3         3.7258   -0.1145   -2.4765 C.2       1 RES1    0.0000
      4 C4         0.9268   -3.0347   -5.3753 C.2       1 RES1    0.0000
      5 C5         2.2295   -1.5242   -4.0196 C.2       1 RES1    0.0000
      6 C6         2.4740   -0.6362   -2.8226 C.2       1 RES1    0.0000
      7 C7         1.3827   -0.2844   -2.1050 C.2       1 RES1    0.0000
      8 C8         1.3768    0.5249   -1.0382 C.2       1 RES1    0.0000
      9 C9         2.6654    1.1111   -0.6890 C.2       1 RES1    0.0000
     10 O1         1.0596   -1.8219   -4.2736 O.3       1 RES1    0.0000
     11 O2         3.2287   -2.0074   -4.4800 O.2       1 RES1    0.0000
     12 C10        3.2441   -1.2128    2.0701 C.2       2 RES2    0.0000
     13 C11        4.5479   -0.7278    2.1876 C.2       2 RES2    0.0000
     14 C12        4.8636    0.1191    3.2322 C.2       2 RES2    0.0000
     15 C13        3.8893    0.4145    4.1212 C.2       2 RES2    0.0000
     16 C14        2.5694   -0.0939    3.9624 C.2       2 RES2    0.0000
     17 C15        2.2014   -0.9554    2.9623 C.2       2 RES2    0.0000
     18 C16        4.1584    1.2531    5.2578 C.2       2 RES2    0.0000
     19 C17        5.7211    2.7700    6.3977 C.2       2 RES2    0.0000
     20 C18        6.7690    2.0844    7.0390 C.2       2 RES2    0.0000
     21 O3         3.2658    1.6167    6.0008 O.2       2 RES2    0.0000
     22 O4         5.3426    1.7065    5.3912 O.3       2 RES2    0.0000
@<TRIPOS>BOND
     1    1    4 1
     2    2    3 1
     3    3    6 1
     4    4   10 1
     5    5    6 1
     6    6    7 1
     7    7    8 1
     8    8    9 1
     9    9    2 1
    10   10    5 1
    11   11    5 1
    12   12   13 1
    13   13   14 1
    14   14   15 1
    15   15   16 1
    16   16   17 1
    17   17   12 1
    18   18   15 1
    19   19   20 1
    20   21   18 1
    21   22   18 1
    22   19   22 1
@<TRIPOS>SUBSTRUCTURE
     1 RES1 1
     2 RES2 12

@<TRIPOS>CRYSIN
  23.3600    4.5800   32.2400  90.0000 100.0000  90.0000  15 1

