# MOL2 file generated by ConQuest
# Please check atom types

@<TRIPOS>MOLECULE
EBADAO
   178   192     2
SMALL
NO_CHARGES
****
Generated from CSD

@<TRIPOS>ATOM
      1 C1         2.1410    3.7429   18.9857 C.ar      1 RES1    0.0000
      2 C2         2.0018    2.3698   18.9041 C.ar      1 RES1    0.0000
      3 H1         1.9510    1.9674   18.0673 H         1 RES1    0.0000
      4 C3         1.9363    1.5943   20.0206 C.ar      1 RES1    0.0000
      5 H2         1.8410    0.6720   19.9461 H         1 RES1    0.0000
      6 C4         2.0130    2.1829   21.2654 C.ar      1 RES1    0.0000
      7 H3         1.9808    1.6519   22.0276 H         1 RES1    0.0000
      8 C5         2.1337    3.5256   21.3889 C.ar      1 RES1    0.0000
      9 H4         2.1769    3.9151   22.2327 H         1 RES1    0.0000
     10 C6         2.1911    4.3128   20.2514 C.ar      1 RES1    0.0000
     11 H5         2.2646    5.2356   20.3377 H         1 RES1    0.0000
     12 C7         2.2975    4.5464   17.7480 C.3       1 RES1    0.0000
     13 H6         2.6802    5.4095   17.9694 H         1 RES1    0.0000
     14 H7         2.9031    4.0936   17.1419 H         1 RES1    0.0000
     15 C8         1.0572    5.2971   15.8669 C.ar      1 RES1    0.0000
     16 C9         2.1688    5.9746   15.3541 C.ar      1 RES1    0.0000
     17 H8         2.9475    6.0723   15.8529 H         1 RES1    0.0000
     18 C10        2.0645    6.5002   14.0557 C.ar      1 RES1    0.0000
     19 H9         2.7881    6.9768   13.7177 H         1 RES1    0.0000
     20 C11        0.9409    6.3538   13.2422 C.ar      1 RES1    0.0000
     21 C12        0.9324    6.8436   11.8017 C.3       1 RES1    0.0000
     22 H10        0.5500    7.7461   11.8087 H         1 RES1    0.0000
     23 C13        2.3170    6.9523   11.1840 C.3       1 RES1    0.0000
     24 H11        2.7732    6.1035   11.2889 H         1 RES1    0.0000
     25 H12        2.8243    7.6214   11.6711 H         1 RES1    0.0000
     26 C14        2.3033    7.3220    9.7131 C.3       1 RES1    0.0000
     27 H13        1.9873    8.2338    9.6129 H         1 RES1    0.0000
     28 H14        3.2065    7.2783    9.3611 H         1 RES1    0.0000
     29 C15        1.4117    6.3913    8.9229 C.3       1 RES1    0.0000
     30 C16        1.0704    6.7534    7.4871 C.3       1 RES1    0.0000
     31 C17       -0.1300    5.8471    7.1561 C.3       1 RES1    0.0000
     32 H15       -0.7022    6.2618    6.4917 H         1 RES1    0.0000
     33 H16        0.1698    4.9885    6.8181 H         1 RES1    0.0000
     34 C18       -0.8686    5.6819    8.4777 C.3       1 RES1    0.0000
     35 H17       -1.7477    6.0878    8.4334 H         1 RES1    0.0000
     36 H18       -0.9691    4.7421    8.6992 H         1 RES1    0.0000
     37 C19        0.0023    6.3902    9.5150 C.3       1 RES1    0.0000
     38 H19       -0.2894    7.3254    9.5150 H         1 RES1    0.0000
     39 C20       -0.0338    5.9428   10.9579 C.3       1 RES1    0.0000
     40 H20        0.2871    5.0183   11.0045 H         1 RES1    0.0000
     41 C21       -1.4189    6.0024   11.5872 C.3       1 RES1    0.0000
     42 H21       -1.7187    6.9246   11.6105 H         1 RES1    0.0000
     43 H22       -2.0409    5.5018   11.0348 H         1 RES1    0.0000
     44 C22       -1.4329    5.4420   12.9835 C.3       1 RES1    0.0000
     45 H23       -1.5816    4.4851   12.9299 H         1 RES1    0.0000
     46 H24       -2.1841    5.8274   13.4613 H         1 RES1    0.0000
     47 C23       -0.1795    5.6872   13.7853 C.ar      1 RES1    0.0000
     48 C24       -0.0955    5.1702   15.0860 C.ar      1 RES1    0.0000
     49 H25       -0.8322    4.7281   15.4403 H         1 RES1    0.0000
     50 C25        2.0494    4.9715    8.9159 C.3       1 RES1    0.0000
     51 H26        2.2499    4.7060    9.8180 H         1 RES1    0.0000
     52 H27        2.8587    4.9862    8.4008 H         1 RES1    0.0000
     53 H28        1.4344    4.3447    8.5290 H         1 RES1    0.0000
     54 C26        0.8840    8.2310    7.0721 C.3       1 RES1    0.0000
     55 H29       -0.0181    8.4608    6.7994 H         1 RES1    0.0000
     56 H30        1.2400    8.8737    7.7062 H         1 RES1    0.0000
     57 C27        1.8275    7.8866    5.9183 C.3       1 RES1    0.0000
     58 H31        1.3299    7.7527    5.0862 H         1 RES1    0.0000
     59 C28        3.0887    8.7484    5.6782 C.3       1 RES1    0.0000
     60 H32        3.2122    9.3568    6.4358 H         1 RES1    0.0000
     61 C29        4.3196    7.9511    5.4917 C.3       1 RES1    0.0000
     62 H33        4.1046    7.0628    5.1677 H         1 RES1    0.0000
     63 H34        4.8037    7.8693    6.3262 H         1 RES1    0.0000
     64 C30        5.1520    8.7134    4.4591 C.3       1 RES1    0.0000
     65 H35        5.6648    9.4236    4.8764 H         1 RES1    0.0000
     66 H36        5.7572    8.1186    3.9883 H         1 RES1    0.0000
     67 C31        4.0978    9.2716    3.5291 C.3       1 RES1    0.0000
     68 H37        4.4093   10.0832    3.0978 H         1 RES1    0.0000
     69 H38        3.8573    8.6251    2.8484 H         1 RES1    0.0000
     70 C32        2.0570   10.5047    4.3449 C.2       1 RES1    0.0000
     71 C33        2.0031   11.3862    3.1025 C.ar      1 RES1    0.0000
     72 C34        1.8017   12.7153    3.2237 C.ar      1 RES1    0.0000
     73 H39        1.7312   13.1085    4.0629 H         1 RES1    0.0000
     74 C35        1.7018   13.4897    2.0629 C.ar      1 RES1    0.0000
     75 C36        1.7711   12.9842    0.8438 C.ar      1 RES1    0.0000
     76 H40        1.6764   13.5228    0.0909 H         1 RES1    0.0000
     77 C37        1.9954   11.5885    0.7296 C.ar      1 RES1    0.0000
     78 C38        2.0568   10.7677    1.8438 C.ar      1 RES1    0.0000
     79 H41        2.1302    9.8446    1.7599 H         1 RES1    0.0000
     80 N1         2.9551    9.5519    4.4172 N.am      1 RES1    0.0000
     81 N2         1.4816   14.9340    2.2144 N.pl3     1 RES1    0.0000
     82 N3         2.3357   10.8462   -0.6061 N.pl3     1 RES1    0.0000
     83 O1         1.0165    4.7327   17.1065 O.3       1 RES1    0.0000
     84 O2         2.1718    6.6228    6.5244 O.3       1 RES1    0.0000
     85 O3         1.2444   10.7700    5.2493 O.2       1 RES1    0.0000
     86 O4         1.4699   15.3941    3.2750 O.2       1 RES1    0.0000
     87 O5         1.3464   15.5838    1.1771 O.2       1 RES1    0.0000
     88 O6         2.1505    9.7873   -0.6690 O.2       1 RES1    0.0000
     89 O7         2.6537   11.6271   -1.5384 O.2       1 RES1    0.0000
     90 C39        1.5934    3.6059    3.4825 C.ar      2 RES2    0.0000
     91 C40        1.3035    4.9412    3.5570 C.ar      2 RES2    0.0000
     92 H42        1.2728    5.3627    4.3845 H         2 RES2    0.0000
     93 C41        1.0543    5.6696    2.3986 C.ar      2 RES2    0.0000
     94 H43        0.8800    6.5825    2.4475 H         2 RES2    0.0000
     95 C42        1.0683    5.0274    1.1771 C.ar      2 RES2    0.0000
     96 H44        0.8644    5.4986    0.4009 H         2 RES2    0.0000
     97 C43        1.3794    3.7063    1.1072 C.ar      2 RES2    0.0000
     98 H45        1.4206    3.2881    0.2774 H         2 RES2    0.0000
     99 C44        1.6349    2.9767    2.2447 C.ar      2 RES2    0.0000
    100 H46        1.8343    2.0704    2.1841 H         2 RES2    0.0000
    101 C45        1.8854    2.8093    4.7505 C.3       2 RES2    0.0000
    102 H47        2.2927    1.9574    4.5267 H         2 RES2    0.0000
    103 H48        2.4945    3.3012    5.3239 H         2 RES2    0.0000
    104 C46        0.7319    2.0288    6.6992 C.ar      2 RES2    0.0000
    105 C47        1.8384    1.3959    7.1747 C.ar      2 RES2    0.0000
    106 H49        2.6010    1.3158    6.6479 H         2 RES2    0.0000
    107 C48        1.8089    0.8722    8.4591 C.ar      2 RES2    0.0000
    108 H50        2.5537    0.4126    8.7737 H         2 RES2    0.0000
    109 C49        0.7278    1.0073    9.2749 C.ar      2 RES2    0.0000
    110 C50        0.7537    0.5115   10.7387 C.3       2 RES2    0.0000
    111 H51        0.3570   -0.3850   10.7387 H         2 RES2    0.0000
    112 C51        2.1695    0.3573   11.2655 C.3       2 RES2    0.0000
    113 H52        2.6471    1.1913   11.1303 H         2 RES2    0.0000
    114 H53        2.6230   -0.3293   10.7527 H         2 RES2    0.0000
    115 C52        2.2246   -0.0203   12.7807 C.3       2 RES2    0.0000
    116 H54        1.8946   -0.9239   12.9019 H         2 RES2    0.0000
    117 H55        3.1438    0.0091   13.0907 H         2 RES2    0.0000
    118 C53        1.3679    0.9605   13.6128 C.3       2 RES2    0.0000
    119 C54        1.0762    0.5596   15.0720 C.3       2 RES2    0.0000
    120 C55       -0.0857    1.4706   15.4263 C.3       2 RES2    0.0000
    121 H56        0.2413    2.3226   15.7550 H         2 RES2    0.0000
    122 H57       -0.6356    1.0638   16.1139 H         2 RES2    0.0000
    123 C56       -0.8984    1.6693   14.1373 C.3       2 RES2    0.0000
    124 H58       -0.9763    2.6110   13.9158 H         2 RES2    0.0000
    125 H59       -1.7880    1.2912   14.2259 H         2 RES2    0.0000
    126 C57       -0.0716    0.9093   13.0627 C.3       2 RES2    0.0000
    127 H60       -0.3583   -0.0277   13.0837 H         2 RES2    0.0000
    128 C58       -0.1401    1.3754   11.5989 C.3       2 RES2    0.0000
    129 H61        0.1846    2.2989   11.5523 H         2 RES2    0.0000
    130 C59       -1.5770    1.3396   11.0674 C.3       2 RES2    0.0000
    131 H62       -2.1507    1.8610   11.6502 H         2 RES2    0.0000
    132 H63       -1.8998    0.4252   11.0674 H         2 RES2    0.0000
    133 C60       -1.6450    1.9135    9.6292 C.3       2 RES2    0.0000
    134 H64       -2.4135    1.5283    9.1793 H         2 RES2    0.0000
    135 H65       -1.7873    2.8710    9.6852 H         2 RES2    0.0000
    136 C61       -0.4075    1.6556    8.7807 C.ar      2 RES2    0.0000
    137 C62       -0.3970    2.1414    7.4754 C.ar      2 RES2    0.0000
    138 H66       -1.1590    2.5458    7.1281 H         2 RES2    0.0000
    139 C63        2.0224    2.3654   13.6268 C.3       2 RES2    0.0000
    140 H67        1.4002    3.0045   13.9811 H         2 RES2    0.0000
    141 H68        2.2622    2.6151   12.7317 H         2 RES2    0.0000
    142 H69        2.8098    2.3474   14.1746 H         2 RES2    0.0000
    143 C64        0.8991   -0.9238   15.4776 C.3       2 RES2    0.0000
    144 H70        0.0015   -1.1588   15.7596 H         2 RES2    0.0000
    145 H71        1.2490   -1.5606   14.8366 H         2 RES2    0.0000
    146 C65        1.8480   -0.5911   16.6151 C.3       2 RES2    0.0000
    147 H72        1.3529   -0.4360   17.4449 H         2 RES2    0.0000
    148 C66        3.0758   -1.4174   16.8715 C.3       2 RES2    0.0000
    149 H73        3.2388   -1.9978   16.0976 H         2 RES2    0.0000
    150 C67        4.3289   -0.5861   17.1466 C.3       2 RES2    0.0000
    151 H74        4.0970    0.2701   17.5405 H         2 RES2    0.0000
    152 H75        4.8278   -0.4310   16.3284 H         2 RES2    0.0000
    153 C68        5.1444   -1.4393   18.1302 C.3       2 RES2    0.0000
    154 H76        5.6544   -2.1204   17.6664 H         2 RES2    0.0000
    155 H77        5.7499   -0.8900   18.6524 H         2 RES2    0.0000
    156 C69        4.0808   -2.0552   19.0020 C.3       2 RES2    0.0000
    157 H78        4.3822   -2.9002   19.3703 H         2 RES2    0.0000
    158 H79        3.8409   -1.4606   19.7293 H         2 RES2    0.0000
    159 C70        2.0126   -3.2393   18.1535 C.2       2 RES2    0.0000
    160 C71        1.9756   -4.0615   19.4053 C.ar      2 RES2    0.0000
    161 C72        1.9861   -5.4533   19.2701 C.ar      2 RES2    0.0000
    162 H80        2.0561   -5.8474   18.4309 H         2 RES2    0.0000
    163 C73        1.8902   -6.2329   20.4099 C.ar      2 RES2    0.0000
    164 C74        1.7734   -5.7004   21.6733 C.ar      2 RES2    0.0000
    165 H81        1.7081   -6.2394   22.4285 H         2 RES2    0.0000
    166 C75        1.7595   -4.3415   21.7572 C.ar      2 RES2    0.0000
    167 C76        1.8573   -3.5231   20.6617 C.ar      2 RES2    0.0000
    168 H82        1.8439   -2.5995   20.7712 H         2 RES2    0.0000
    169 N4         2.9444   -2.2570   18.0906 N.am      2 RES2    0.0000
    170 N5         1.9066   -7.6849   20.2794 N.pl3     2 RES2    0.0000
    171 N6         1.6026   -3.7640   23.0929 N.pl3     2 RES2    0.0000
    172 O8         0.6365    2.6019    5.4165 O.3       2 RES2    0.0000
    173 O9         2.2177    0.6937   15.9776 O.3       2 RES2    0.0000
    174 O10        1.2268   -3.4468   17.2468 O.2       2 RES2    0.0000
    175 O11        1.9524   -8.1558   19.1279 O.2       2 RES2    0.0000
    176 O12        1.8876   -8.3801   21.2770 O.2       2 RES2    0.0000
    177 O13        1.4511   -2.5159   23.1744 O.2       2 RES2    0.0000
    178 O14        1.7143   -4.4397   24.0485 O.2       2 RES2    0.0000
@<TRIPOS>BOND
     1    1    2 ar
     2    2    3 1
     3    4    2 ar
     4    5    4 1
     5    6    4 ar
     6    7    6 1
     7    8    6 ar
     8    9    8 1
     9   10    1 ar
    10   11   10 1
    11   12    1 1
    12   13   12 1
    13   14   12 1
    14   15   16 ar
    15   16   17 1
    16   18   16 ar
    17   19   18 1
    18   20   18 ar
    19   21   20 1
    20   22   21 1
    21   23   21 1
    22   24   23 1
    23   25   23 1
    24   26   23 1
    25   27   26 1
    26   28   26 1
    27   29   26 1
    28   30   29 1
    29   31   30 1
    30   32   31 1
    31   33   31 1
    32   34   31 1
    33   35   34 1
    34   36   34 1
    35   37   29 1
    36   38   37 1
    37   39   21 1
    38   40   39 1
    39   41   39 1
    40   42   41 1
    41   43   41 1
    42   44   41 1
    43   45   44 1
    44   46   44 1
    45   47   20 ar
    46   48   15 ar
    47   49   48 1
    48   50   29 1
    49   51   50 1
    50   52   50 1
    51   53   50 1
    52   54   30 1
    53   55   54 1
    54   56   54 1
    55   57   54 1
    56   58   57 1
    57   59   57 1
    58   60   59 1
    59   61   59 1
    60   62   61 1
    61   63   61 1
    62   64   61 1
    63   65   64 1
    64   66   64 1
    65   67   64 1
    66   68   67 1
    67   69   67 1
    68   70   71 1
    69   71   72 ar
    70   72   73 1
    71   74   72 ar
    72   75   74 ar
    73   76   75 1
    74   77   75 ar
    75   78   71 ar
    76   79   78 1
    77   80   59 1
    78   81   74 1
    79   82   77 1
    80   83   12 1
    81   84   30 1
    82   85   70 2
    83   86   81 2
    84   87   81 2
    85   88   82 2
    86   89   82 2
    87   90   91 ar
    88   91   92 1
    89   93   91 ar
    90   94   93 1
    91   95   93 ar
    92   96   95 1
    93   97   95 ar
    94   98   97 1
    95   99   90 ar
    96  100   99 1
    97  101   90 1
    98  102  101 1
    99  103  101 1
   100  104  105 ar
   101  105  106 1
   102  107  105 ar
   103  108  107 1
   104  109  107 ar
   105  110  109 1
   106  111  110 1
   107  112  110 1
   108  113  112 1
   109  114  112 1
   110  115  112 1
   111  116  115 1
   112  117  115 1
   113  118  115 1
   114  119  118 1
   115  120  119 1
   116  121  120 1
   117  122  120 1
   118  123  120 1
   119  124  123 1
   120  125  123 1
   121  126  118 1
   122  127  126 1
   123  128  110 1
   124  129  128 1
   125  130  128 1
   126  131  130 1
   127  132  130 1
   128  133  130 1
   129  134  133 1
   130  135  133 1
   131  136  109 ar
   132  137  104 ar
   133  138  137 1
   134  139  118 1
   135  140  139 1
   136  141  139 1
   137  142  139 1
   138  143  119 1
   139  144  143 1
   140  145  143 1
   141  146  143 1
   142  147  146 1
   143  148  146 1
   144  149  148 1
   145  150  148 1
   146  151  150 1
   147  152  150 1
   148  153  150 1
   149  154  153 1
   150  155  153 1
   151  156  153 1
   152  157  156 1
   153  158  156 1
   154  159  160 1
   155  160  161 ar
   156  161  162 1
   157  163  161 ar
   158  164  163 ar
   159  165  164 1
   160  166  164 ar
   161  167  160 ar
   162  168  167 1
   163  169  148 1
   164  170  163 1
   165  171  166 1
   166  172  101 1
   167  173  119 1
   168  174  159 2
   169  175  170 2
   170  176  170 2
   171  177  171 2
   172  178  171 2
   173    8   10 ar
   174   15   83 1
   175   34   37 1
   176   37   39 1
   177   44   47 1
   178   47   48 ar
   179   57   84 1
   180   67   80 1
   181   70   80 1
   182   77   78 ar
   183   97   99 ar
   184  104  172 1
   185  123  126 1
   186  126  128 1
   187  133  136 1
   188  136  137 ar
   189  146  173 1
   190  156  169 1
   191  159  169 1
   192  166  167 ar
@<TRIPOS>SUBSTRUCTURE
     1 RES1 1
     2 RES2 90

@<TRIPOS>CRYSIN
   7.1374   10.4915   23.5245  96.5700  91.7500 108.8640   1 1

