# MOL2 file generated by ConQuest
# Please check atom types

@<TRIPOS>MOLECULE
EBATOQ
    58    62     1
SMALL
NO_CHARGES
****
Generated from CSD

@<TRIPOS>ATOM
      1 N1         3.4809   -0.6913    1.3544 N.2       1 RES1    0.0000
      2 N2         2.3769    0.1178    1.6092 N.3       1 RES1    0.0000
      3 C1         1.7094    0.6616    0.5744 C.ar      1 RES1    0.0000
      4 C2         0.5511    1.4600    0.7420 C.ar      1 RES1    0.0000
      5 C3        -0.0527    2.0776   -0.3308 C.ar      1 RES1    0.0000
      6 C4         0.4501    1.8800   -1.5824 C.ar      1 RES1    0.0000
      7 C5         1.5472    1.0364   -1.8036 C.ar      1 RES1    0.0000
      8 C6         2.1536    0.4438   -0.7599 C.ar      1 RES1    0.0000
      9 N3        -0.0297    1.6730    2.0495 N.pl3     1 RES1    0.0000
     10 O1         0.4764    1.1637    3.0374 O.2       1 RES1    0.0000
     11 O2        -1.0437    2.3334    2.1233 O.2       1 RES1    0.0000
     12 N4        -0.1452    2.6178   -2.6887 N.pl3     1 RES1    0.0000
     13 O3         0.4781    2.6368   -3.7526 O.2       1 RES1    0.0000
     14 O4        -1.2195    3.1639   -2.5233 O.2       1 RES1    0.0000
     15 C7         4.7122   -3.7672    4.3761 C.2       1 RES1    0.0000
     16 O5         5.1988   -4.8488    4.2733 O.2       1 RES1    0.0000
     17 N5         3.3297   -3.5185    4.3962 N.am      1 RES1    0.0000
     18 C8         3.0062   -2.1763    4.5974 C.2       1 RES1    0.0000
     19 O6         1.8810   -1.7527    4.6153 O.2       1 RES1    0.0000
     20 C9         4.2834   -1.4029    4.7248 C.3       1 RES1    0.0000
     21 C10        4.2460   -0.2523    3.7079 C.3       1 RES1    0.0000
     22 C11        4.3054   -0.8460    2.3155 C.2       1 RES1    0.0000
     23 C12        5.4621   -1.7967    2.0450 C.3       1 RES1    0.0000
     24 C13        6.3503   -1.2601    0.9119 C.3       1 RES1    0.0000
     25 C14        7.4967   -2.2168    0.6236 C.3       1 RES1    0.0000
     26 C15        8.3009   -2.5428    1.8863 C.3       1 RES1    0.0000
     27 C16        7.4110   -3.0604    3.0173 C.3       1 RES1    0.0000
     28 C17        6.3070   -2.0442    3.3167 C.3       1 RES1    0.0000
     29 C18        5.4281   -2.4286    4.5058 C.3       1 RES1    0.0000
     30 C19        2.3599   -4.5894    4.2532 C.ar      1 RES1    0.0000
     31 C20        1.4632   -4.8048    5.2858 C.ar      1 RES1    0.0000
     32 C21        0.5324   -5.8210    5.1338 C.ar      1 RES1    0.0000
     33 C22        0.5095   -6.5909    4.0163 C.ar      1 RES1    0.0000
     34 C23        1.3876   -6.3410    2.9927 C.ar      1 RES1    0.0000
     35 C24        2.3311   -5.3260    3.1089 C.ar      1 RES1    0.0000
     36 H1         7.1392   -3.0319    0.2660 H         1 RES1    0.0000
     37 H2         8.0827   -1.8122   -0.0201 H         1 RES1    0.0000
     38 H3        -0.8186    2.6416   -0.1967 H         1 RES1    0.0000
     39 H4         8.7476   -1.7468    2.1858 H         1 RES1    0.0000
     40 H5         8.9523   -3.2151    1.6740 H         1 RES1    0.0000
     41 H6         4.9984    0.3272    3.8464 H         1 RES1    0.0000
     42 H7         7.0135   -3.8934    2.7535 H         1 RES1    0.0000
     43 H8         7.9417   -3.1949    3.8062 H         1 RES1    0.0000
     44 H9         3.4333    0.2475    3.8129 H         1 RES1    0.0000
     45 H10        6.7393   -1.2280    3.5760 H         1 RES1    0.0000
     46 H11        1.8648    0.8817   -2.6976 H         1 RES1    0.0000
     47 H12        6.0599   -2.4619    5.2277 H         1 RES1    0.0000
     48 H13        2.0950    0.2868    2.5121 H         1 RES1    0.0000
     49 H14        5.0859   -2.6380    1.7746 H         1 RES1    0.0000
     50 H15        1.4853   -4.2682    6.0814 H         1 RES1    0.0000
     51 H16        2.9009   -0.1380   -0.9164 H         1 RES1    0.0000
     52 H17       -0.1087   -5.9828    5.8311 H         1 RES1    0.0000
     53 H18        6.7087   -0.4081    1.1711 H         1 RES1    0.0000
     54 H19       -0.1189   -7.3119    3.9425 H         1 RES1    0.0000
     55 H20        5.8196   -1.1578    0.1185 H         1 RES1    0.0000
     56 H21        1.3502   -6.8705    2.1925 H         1 RES1    0.0000
     57 H22        4.4175   -0.9912    5.5808 H         1 RES1    0.0000
     58 H23        2.9484   -5.1475    2.3959 H         1 RES1    0.0000
@<TRIPOS>BOND
     1    1    2 1
     2    2    3 1
     3    3    4 ar
     4    4    5 ar
     5    5    6 ar
     6    6    7 ar
     7    7    8 ar
     8    8    3 ar
     9    9    4 1
    10   10    9 2
    11   11    9 2
    12   12    6 1
    13   13   12 2
    14   14   12 2
    15   15   16 2
    16   17   15 1
    17   18   17 1
    18   19   18 2
    19   20   18 1
    20   21   20 1
    21   22    1 2
    22   23   22 1
    23   24   23 1
    24   25   24 1
    25   26   25 1
    26   27   26 1
    27   28   23 1
    28   29   15 1
    29   30   17 1
    30   31   30 ar
    31   32   31 ar
    32   33   32 ar
    33   34   33 ar
    34   35   30 ar
    35   36   25 1
    36   37   25 1
    37   38    5 1
    38   39   26 1
    39   40   26 1
    40   41   21 1
    41   42   27 1
    42   43   27 1
    43   44   21 1
    44   45   28 1
    45   46    7 1
    46   47   29 1
    47   48    2 1
    48   49   23 1
    49   50   31 1
    50   51    8 1
    51   52   32 1
    52   53   24 1
    53   54   33 1
    54   55   24 1
    55   56   34 1
    56   57   20 1
    57   58   35 1
    58   20   29 1
    59   21   22 1
    60   27   28 1
    61   28   29 1
    62   34   35 ar
@<TRIPOS>SUBSTRUCTURE
     1 RES1 1

@<TRIPOS>CRYSIN
   8.4920   11.8990   22.3500  90.0000  90.0000  90.0000  19 1

