# MOL2 file generated by ConQuest
# Please check atom types

@<TRIPOS>MOLECULE
EBAWAF
    52    54     1
SMALL
USER_CHARGES
****
Generated from CSD

@<TRIPOS>ATOM
      1 O1         8.4177    4.6477    9.0319 O.2       1 RES1   -1.0000
      2 O2        11.4345    1.3642   12.6620 O.2       1 RES1    0.0000
      3 N1         9.5830    4.5045    9.5863 N.pl3     1 RES1    1.0000
      4 N2        11.2683    0.5916   10.5546 N.am      1 RES1    0.0000
      5 C1        12.1525    4.0430    7.5469 C.ar      1 RES1    0.0000
      6 C2        12.5486    3.5964    6.2932 C.ar      1 RES1    0.0000
      7 C3        11.9148    4.0120    5.1691 C.ar      1 RES1    0.0000
      8 C4        10.8641    4.8898    5.2671 C.ar      1 RES1    0.0000
      9 C5        10.4442    5.3350    6.5139 C.ar      1 RES1    0.0000
     10 C6        11.0896    4.9126    7.6606 C.ar      1 RES1    0.0000
     11 C7        10.6624    5.3703    9.0260 C.3       1 RES1    0.0000
     12 C8         9.8545    3.6775   10.5263 C.2       1 RES1    0.0000
     13 C9         8.8406    2.7853   11.1081 C.3       1 RES1    0.0000
     14 C10        8.8330    2.5449   12.5825 C.3       1 RES1    0.0000
     15 C11        9.2559    1.4340   11.6774 C.3       1 RES1    0.0000
     16 C12       10.7602    1.1364   11.6756 C.2       1 RES1    0.0000
     17 C13       12.7049    0.2680   10.5402 C.3       1 RES1    0.0000
     18 C14       13.5429    1.4559   10.1770 C.3       1 RES1    0.0000
     19 C15       10.5676    0.4385    9.2762 C.3       1 RES1    0.0000
     20 C16       10.3272   -0.9991    8.9065 C.3       1 RES1    0.0000
     21 C17        8.3748    0.2133   11.5626 C.ar      1 RES1    0.0000
     22 C18        8.7163   -0.9146   12.2757 C.ar      1 RES1    0.0000
     23 C19        7.9149   -2.0556   12.2312 C.ar      1 RES1    0.0000
     24 C20        6.7774   -2.0671   11.4703 C.ar      1 RES1    0.0000
     25 C21        6.4349   -0.9579   10.7489 C.ar      1 RES1    0.0000
     26 C22        7.2285    0.1819   10.7915 C.ar      1 RES1    0.0000
     27 H1         9.7410    0.9206    9.1950 H         1 RES1    0.0000
     28 H2        10.3980    6.2829    8.8914 H         1 RES1    0.0000
     29 H3         9.5601   -0.9404   12.7335 H         1 RES1    0.0000
     30 H4         9.6526   -1.3682    9.4813 H         1 RES1    0.0000
     31 H5        13.3986    2.2812   10.6450 H         1 RES1    0.0000
     32 H6         9.7596   -1.0825    8.1366 H         1 RES1    0.0000
     33 H7        12.8108   -0.4482    9.9099 H         1 RES1    0.0000
     34 H8        10.7518    3.6537   10.8671 H         1 RES1    0.0000
     35 H9         8.0442    2.8508   10.5771 H         1 RES1    0.0000
     36 H10        8.0629    2.3604   13.1253 H         1 RES1    0.0000
     37 H11        8.3315   -2.8115   12.6494 H         1 RES1    0.0000
     38 H12       11.0571    0.8710    8.5726 H         1 RES1    0.0000
     39 H13        7.0277    1.0112   10.3535 H         1 RES1    0.0000
     40 H14        6.2269   -2.8290   11.2806 H         1 RES1    0.0000
     41 H15        9.4043    3.1401   13.0739 H         1 RES1    0.0000
     42 H16       12.5895    3.7315    8.3435 H         1 RES1    0.0000
     43 H17       11.3599    5.3624    9.6860 H         1 RES1    0.0000
     44 H18       13.4349    1.6939    9.2538 H         1 RES1    0.0000
     45 H19       12.8795   -0.0514   11.4288 H         1 RES1    0.0000
     46 H20        5.5891   -0.9559   10.2944 H         1 RES1    0.0000
     47 H21       14.4714    1.3388   10.3888 H         1 RES1    0.0000
     48 H22       13.3105    3.0171    6.3620 H         1 RES1    0.0000
     49 H23       10.5294    5.2429    4.4403 H         1 RES1    0.0000
     50 H24       10.9737   -1.7080    8.8826 H         1 RES1    0.0000
     51 H25        9.8752    6.1079    6.5161 H         1 RES1    0.0000
     52 H26       12.1611    3.6198    4.3279 H         1 RES1    0.0000
@<TRIPOS>BOND
     1    1    3 1
     2    2   16 2
     3    3   11 1
     4    4   16 1
     5    5    6 ar
     6    6    7 ar
     7    7    8 ar
     8    8    9 ar
     9    9   10 ar
    10   10    5 ar
    11   11   10 1
    12   12    3 2
    13   13   12 1
    14   14   13 1
    15   15   13 1
    16   16   15 1
    17   17    4 1
    18   18   17 1
    19   19    4 1
    20   20   19 1
    21   21   15 1
    22   22   21 ar
    23   23   22 ar
    24   24   23 ar
    25   25   24 ar
    26   26   21 ar
    27   27   19 1
    28   28   11 1
    29   29   22 1
    30   30   20 1
    31   31   18 1
    32   32   20 1
    33   33   17 1
    34   34   12 1
    35   35   13 1
    36   36   14 1
    37   37   23 1
    38   38   19 1
    39   39   26 1
    40   40   24 1
    41   41   14 1
    42   42    5 1
    43   43   11 1
    44   44   18 1
    45   45   17 1
    46   46   25 1
    47   47   18 1
    48   48    6 1
    49   49    8 1
    50   50   20 1
    51   51    9 1
    52   52    7 1
    53   14   15 1
    54   25   26 ar
@<TRIPOS>SUBSTRUCTURE
     1 RES1 1

@<TRIPOS>CRYSIN
  10.0930   19.8400    9.8950  90.0000  90.0000  90.0000  19 1

