# MOL2 file generated by ConQuest
# Please check atom types

@<TRIPOS>MOLECULE
EBFIOZ
    40    44     2
SMALL
NO_CHARGES
****
Generated from CSD

@<TRIPOS>ATOM
      1 C1         1.7649   12.6926    7.0408 C.2       1 RES1    0.0000
      2 C2         6.3907    8.9625    0.2546 C.ar      2 RES2    0.0000
      3 C3         0.7911   13.3775    6.0529 C.3       1 RES1    0.0000
      4 C4        -1.8360   12.1804    4.0890 C.ar      1 RES1    0.0000
      5 C5         2.8200    8.2412    3.1289 C.2       2 RES2    0.0000
      6 C6         6.0891    7.3876    1.8176 C.2       2 RES2    0.0000
      7 C7         7.0370    7.8784    0.8532 C.ar      2 RES2    0.0000
      8 C8         3.8036    7.5647    2.1923 C.3       2 RES2    0.0000
      9 C9         5.0443    8.4525    2.0108 C.3       2 RES2    0.0000
     10 C10        6.9204    9.6837   -0.8078 C.ar      2 RES2    0.0000
     11 C11       -0.4710   12.5218    5.8524 C.3       1 RES1    0.0000
     12 C12       -1.4923   13.6144    5.7368 C.2       1 RES1    0.0000
     13 C13       -2.3765   11.5851    2.9445 C.ar      1 RES1    0.0000
     14 C14       -2.4735   13.2175    4.7665 C.ar      1 RES1    0.0000
     15 C15        8.2965    7.4559    0.4039 C.ar      2 RES2    0.0000
     16 C16       -4.3014   13.1044    3.2211 C.ar      1 RES1    0.0000
     17 C17        1.0095    8.3266    4.7431 C.3       2 RES2    0.0000
     18 C18       -3.7140   13.7083    4.3597 C.ar      1 RES1    0.0000
     19 C19        3.5623   12.6371    8.6653 C.3       1 RES1    0.0000
     20 C20       -3.6520   12.0673    2.5362 C.ar      1 RES1    0.0000
     21 C21        1.4683   13.7851    4.7461 C.3       1 RES1    0.0000
     22 C22        3.1375    7.1337    0.8796 C.3       2 RES2    0.0000
     23 C23        2.8432   14.8713    7.6833 C.3       1 RES1    0.0000
     24 C24       -0.2782    8.5698    3.9324 C.3       2 RES2    0.0000
     25 C25        8.8537    8.1729   -0.6732 C.ar      2 RES2    0.0000
     26 C26        1.8146    6.0795    3.8958 C.3       2 RES2    0.0000
     27 C27        8.1919    9.2612   -1.2674 C.ar      2 RES2    0.0000
     28 C28        2.3299    5.4522    5.1968 C.3       2 RES2    0.0000
     29 C29        2.3546   15.5733    8.9550 C.3       1 RES1    0.0000
     30 C30        4.8996   12.4087    7.9174 C.3       1 RES1    0.0000
     31 N1         2.6463   13.4074    7.7740 N.am      1 RES1    0.0000
     32 N2         1.9755    7.5498    3.9148 N.am      2 RES2    0.0000
     33 N3         5.7922    6.2374    2.3108 N.2       2 RES2    0.0000
     34 N4        -1.1622   14.7497    6.2403 N.2       1 RES1    0.0000
     35 O1         5.1384    9.2377    0.7917 O.3       2 RES2    0.0000
     36 O2        -0.6011   11.8369    4.5807 O.3       1 RES1    0.0000
     37 O3         1.7060   11.4570    7.0715 O.2       1 RES1    0.0000
     38 O4         2.8228    9.4853    3.1114 O.2       2 RES2    0.0000
     39 O5         4.4277    6.4124    2.8479 O.3       2 RES2    0.0000
     40 O6         0.2079   14.5619    6.7320 O.3       1 RES1    0.0000
@<TRIPOS>BOND
     1    1    3 1
     2    2    7 ar
     3    3   11 1
     4    4   13 ar
     5    5    8 1
     6    6    7 1
     7    7   15 ar
     8    8    9 1
     9    9    6 1
    10   10    2 ar
    11   11   12 1
    12   12   14 1
    13   13   20 ar
    14   14    4 ar
    15   15   25 ar
    16   16   18 ar
    17   17   24 1
    18   18   14 ar
    19   19   30 1
    20   20   16 ar
    21   21    3 1
    22   22    8 1
    23   23   29 1
    24   25   27 ar
    25   26   28 1
    26   27   10 ar
    27   31    1 1
    28   32    5 1
    29   33    6 2
    30   34   12 2
    31   35    2 1
    32   36    4 1
    33   37    1 2
    34   38    5 2
    35   39    8 1
    36   40    3 1
    37    9   35 1
    38   11   36 1
    39   17   32 1
    40   19   31 1
    41   23   31 1
    42   26   32 1
    43   33   39 1
    44   34   40 1
@<TRIPOS>SUBSTRUCTURE
     1 RES1 1
     2 RES2 2

@<TRIPOS>CRYSIN
   9.1946   21.3392   14.6348  90.0000  90.1010  90.0000  14 1

