# MOL2 file generated by ConQuest
# Please check atom types

@<TRIPOS>MOLECULE
EBILOT
    59    63     1
SMALL
NO_CHARGES
****
Generated from CSD

@<TRIPOS>ATOM
      1 O1        17.9413    2.9592   10.8438 O.3       1 RES1    0.0000
      2 O2        20.3600    5.8844    4.1477 O.3       1 RES1    0.0000
      3 O3        21.5118    3.8203    2.9348 O.3       1 RES1    0.0000
      4 O4        20.1834    1.5481    2.5094 O.3       1 RES1    0.0000
      5 O5        14.8774    5.4013    4.2111 O.3       1 RES1    0.0000
      6 O6        13.0893    3.1508    4.5029 O.2       1 RES1    0.0000
      7 N1        15.1627    5.2932    5.6113 N.2       1 RES1    0.0000
      8 C1        18.5239    1.7088   11.0994 C.3       1 RES1    0.0000
      9 H1        17.8529    1.0238   11.0320 H         1 RES1    0.0000
     10 H2        18.8976    1.7036   11.9823 H         1 RES1    0.0000
     11 H3        19.2170    1.5419   10.4558 H         1 RES1    0.0000
     12 C2        17.3948    3.1961    9.6030 C.ar      1 RES1    0.0000
     13 C3        16.9468    4.4774    9.3544 C.ar      1 RES1    0.0000
     14 H4        17.0090    5.1253   10.0189 H         1 RES1    0.0000
     15 C4        16.4184    4.7998    8.1532 C.ar      1 RES1    0.0000
     16 H5        16.1210    5.6691    8.0021 H         1 RES1    0.0000
     17 C5        16.3079    3.8584    7.1355 C.ar      1 RES1    0.0000
     18 C6        16.7298    2.5822    7.4189 C.ar      1 RES1    0.0000
     19 H6        16.6514    1.9313    6.7591 H         1 RES1    0.0000
     20 C7        17.2682    2.2227    8.6457 C.ar      1 RES1    0.0000
     21 H7        17.5354    1.3483    8.8154 H         1 RES1    0.0000
     22 C8        15.8096    4.2209    5.8180 C.2       1 RES1    0.0000
     23 C9        16.0929    3.4268    4.5680 C.3       1 RES1    0.0000
     24 H8        15.8418    2.4885    4.6981 H         1 RES1    0.0000
     25 C10       17.5575    3.5288    4.1637 C.ar      1 RES1    0.0000
     26 C11       18.2647    4.6917    4.3798 C.ar      1 RES1    0.0000
     27 H9        17.8549    5.4168    4.7934 H         1 RES1    0.0000
     28 C12       19.5907    4.7751    3.9825 C.ar      1 RES1    0.0000
     29 C13       19.9725    6.8413    5.1140 C.3       1 RES1    0.0000
     30 H10       19.1809    7.2955    4.8166 H         1 RES1    0.0000
     31 H11       20.6797    7.4788    5.2372 H         1 RES1    0.0000
     32 H12       19.7937    6.3994    5.9482 H         1 RES1    0.0000
     33 C14       20.2015    3.7070    3.3551 C.ar      1 RES1    0.0000
     34 C15       22.4437    3.5823    3.9825 C.3       1 RES1    0.0000
     35 H13       22.2006    4.1025    4.7516 H         1 RES1    0.0000
     36 H14       23.3236    3.8337    3.6920 H         1 RES1    0.0000
     37 H15       22.4376    2.6502    4.2125 H         1 RES1    0.0000
     38 C16       19.4883    2.5390    3.1298 C.ar      1 RES1    0.0000
     39 C17       19.5043    0.3224    2.2399 C.3       1 RES1    0.0000
     40 H16       19.2934   -0.1154    3.0670 H         1 RES1    0.0000
     41 H17       20.0709   -0.2472    1.7124 H         1 RES1    0.0000
     42 H18       18.6947    0.5037    1.7566 H         1 RES1    0.0000
     43 C18       18.1703    2.4504    3.5340 C.ar      1 RES1    0.0000
     44 H19       17.6921    1.6665    3.3853 H         1 RES1    0.0000
     45 C19       15.1165    4.1107    3.6037 C.3       1 RES1    0.0000
     46 C20       13.7764    3.3681    3.5410 C.2       1 RES1    0.0000
     47 C21       13.5373    2.9973    2.1632 C.ar      1 RES1    0.0000
     48 C22       12.4765    2.2701    1.6450 C.ar      1 RES1    0.0000
     49 H20       11.7974    1.9498    2.1934 H         1 RES1    0.0000
     50 C23       12.4645    2.0456    0.3137 C.ar      1 RES1    0.0000
     51 H21       11.7412    1.5965   -0.0604 H         1 RES1    0.0000
     52 C24       13.4931    2.4617   -0.5088 C.ar      1 RES1    0.0000
     53 H22       13.4911    2.2330   -1.4104 H         1 RES1    0.0000
     54 C25       14.5238    3.2146    0.0093 C.ar      1 RES1    0.0000
     55 H23       15.1988    3.5339   -0.5460 H         1 RES1    0.0000
     56 C26       14.5378    3.4876    1.3616 C.ar      1 RES1    0.0000
     57 C27       15.5223    4.3116    2.1423 C.3       1 RES1    0.0000
     58 H24       15.4620    5.2479    1.8937 H         1 RES1    0.0000
     59 H25       16.4284    4.0026    1.9889 H         1 RES1    0.0000
@<TRIPOS>BOND
     1    1    8 1
     2    2   28 1
     3    3   33 1
     4    4   38 1
     5    5    7 1
     6    6   46 2
     7    7   22 2
     8    8    9 1
     9   10    8 1
    10   11    8 1
    11   12    1 1
    12   13   12 ar
    13   14   13 1
    14   15   13 ar
    15   16   15 1
    16   17   15 ar
    17   18   17 ar
    18   19   18 1
    19   20   12 ar
    20   21   20 1
    21   22   17 1
    22   23   22 1
    23   24   23 1
    24   25   23 1
    25   26   25 ar
    26   27   26 1
    27   28   26 ar
    28   29    2 1
    29   30   29 1
    30   31   29 1
    31   32   29 1
    32   33   28 ar
    33   34    3 1
    34   35   34 1
    35   36   34 1
    36   37   34 1
    37   38   33 ar
    38   39    4 1
    39   40   39 1
    40   41   39 1
    41   42   39 1
    42   43   25 ar
    43   44   43 1
    44   45    5 1
    45   46   45 1
    46   47   46 1
    47   48   47 ar
    48   49   48 1
    49   50   48 ar
    50   51   50 1
    51   52   50 ar
    52   53   52 1
    53   54   52 ar
    54   55   54 1
    55   56   47 ar
    56   57   45 1
    57   58   57 1
    58   59   57 1
    59   18   20 ar
    60   23   45 1
    61   38   43 ar
    62   54   56 ar
    63   56   57 1
@<TRIPOS>SUBSTRUCTURE
     1 RES1 1

@<TRIPOS>CRYSIN
  20.0910   10.3000   23.2350  90.0000  90.0000  90.0000  61 1

