# MOL2 file generated by ConQuest
# Please check atom types

@<TRIPOS>MOLECULE
EBOBIH
    27    29     1
SMALL
NO_CHARGES
****
Generated from CSD

@<TRIPOS>ATOM
      1 O1        -2.8931    3.5126    3.4083 O.2       1 RES1    0.0000
      2 O2        -2.2608   -0.8651    4.8498 O.2       1 RES1    0.0000
      3 N1        -3.0109    2.2463    3.5846 N.pl3     1 RES1    0.0000
      4 N2        -2.6981    0.1806    4.2468 N.pl3     1 RES1    0.0000
      5 N3         2.5376   -0.3448    7.2939 N.1       1 RES1    0.0000
      6 C1        -2.2364    1.4633    4.3855 C.2       1 RES1    0.0000
      7 C2        -3.9985    1.4590    2.9495 C.ar      1 RES1    0.0000
      8 C3        -4.9992    1.8238    2.0836 C.ar      1 RES1    0.0000
      9 H1        -5.1833    2.8845    1.7798 H         1 RES1    0.0000
     10 C4        -5.7960    0.7852    1.6355 C.ar      1 RES1    0.0000
     11 H2        -6.4922    0.9529    0.9949 H         1 RES1    0.0000
     12 C5        -5.6058   -0.5304    2.0402 C.ar      1 RES1    0.0000
     13 H3        -6.2265   -1.1942    1.7293 H         1 RES1    0.0000
     14 C6        -4.5759   -0.8773    2.9131 C.ar      1 RES1    0.0000
     15 H4        -4.4495   -1.8116    3.2885 H         1 RES1    0.0000
     16 C7        -3.7878    0.1627    3.3519 C.ar      1 RES1    0.0000
     17 C8        -1.1578    1.8994    5.2466 C.ar      1 RES1    0.0000
     18 C9        -0.2051    0.9743    5.6830 C.ar      1 RES1    0.0000
     19 H5        -0.3024   -0.0557    5.3991 H         1 RES1    0.0000
     20 C10        0.8016    1.4069    6.5454 C.ar      1 RES1    0.0000
     21 C11        0.8674    2.7174    6.9748 C.ar      1 RES1    0.0000
     22 H6         1.5805    2.9658    7.5661 H         1 RES1    0.0000
     23 C12       -0.0603    3.6218    6.5278 C.ar      1 RES1    0.0000
     24 H7         0.0068    4.5269    6.8398 H         1 RES1    0.0000
     25 C13       -1.0752    3.2357    5.6655 C.ar      1 RES1    0.0000
     26 H8        -1.7312    3.8545    5.3358 H         1 RES1    0.0000
     27 C14        1.7789    0.4318    6.9818 C.1       1 RES1    0.0000
@<TRIPOS>BOND
     1    1    3 1
     2    2    4 1
     3    3    6 1
     4    4    6 2
     5    5   27 3
     6    6   17 1
     7    7    3 1
     8    8    7 ar
     9    9    8 1
    10   10    8 ar
    11   11   10 1
    12   12   10 ar
    13   13   12 1
    14   14   12 ar
    15   15   14 1
    16   16    4 1
    17   17   18 ar
    18   18   19 1
    19   20   18 ar
    20   21   20 ar
    21   22   21 1
    22   23   21 ar
    23   24   23 1
    24   25   17 ar
    25   26   25 1
    26   27   20 1
    27    7   16 ar
    28   14   16 ar
    29   23   25 ar
@<TRIPOS>SUBSTRUCTURE
     1 RES1 1

@<TRIPOS>CRYSIN
  13.7220    7.1380   13.3160  90.0000 118.2300  90.0000  14 1

