# MOL2 file generated by ConQuest
# Please check atom types

@<TRIPOS>MOLECULE
EBOJUD
    48    51     1
SMALL
NO_CHARGES
****
Generated from CSD

@<TRIPOS>ATOM
      1 N1         3.5098    5.0941    6.7032 N.3       1 RES1    0.0000
      2 C1         3.6445    3.6655    2.8030 C.ar      1 RES1    0.0000
      3 H1         4.4211    4.0238    3.1684 H         1 RES1    0.0000
      4 C2         3.2253    2.3955    3.1754 C.ar      1 RES1    0.0000
      5 C3         2.9110    4.3976    1.8922 C.ar      1 RES1    0.0000
      6 H2         3.2017    5.2418    1.6324 H         1 RES1    0.0000
      7 C4         1.7510    3.8788    1.3684 C.ar      1 RES1    0.0000
      8 H3         1.2559    4.3774    0.7593 H         1 RES1    0.0000
      9 C5         1.3198    2.6343    1.7375 C.ar      1 RES1    0.0000
     10 H4         0.5280    2.2939    1.3879 H         1 RES1    0.0000
     11 C6         2.0565    1.8856    2.6248 C.ar      1 RES1    0.0000
     12 H5         1.7701    1.0323    2.8582 H         1 RES1    0.0000
     13 C7         6.7639   -0.2610    4.0403 C.ar      1 RES1    0.0000
     14 H6         6.0718   -0.0529    3.4549 H         1 RES1    0.0000
     15 C8         7.5505   -1.3687    3.8051 C.ar      1 RES1    0.0000
     16 H7         7.3816   -1.9046    3.0641 H         1 RES1    0.0000
     17 C9         8.5763   -1.6857    4.6508 C.ar      1 RES1    0.0000
     18 H8         9.0828   -2.4518    4.5037 H         1 RES1    0.0000
     19 C10        8.8546   -0.8734    5.7131 C.ar      1 RES1    0.0000
     20 H9         9.5704   -1.0736    6.2721 H         1 RES1    0.0000
     21 C11        8.0840    0.2381    5.9622 C.ar      1 RES1    0.0000
     22 H10        8.2908    0.7885    6.6826 H         1 RES1    0.0000
     23 C12        6.9994    0.5481    5.1496 C.ar      1 RES1    0.0000
     24 C13        6.1500    1.6825    5.4888 C.2       1 RES1    0.0000
     25 C14        4.9443    2.1606    5.0735 C.2       1 RES1    0.0000
     26 C15        4.0010    1.5425    4.1021 C.2       1 RES1    0.0000
     27 C16        4.6667    3.3351    5.8731 C.2       1 RES1    0.0000
     28 C17        5.8206    3.5045    6.7765 C.2       1 RES1    0.0000
     29 C18        2.4824    5.9770    6.5692 C.ar      1 RES1    0.0000
     30 C19        2.4256    7.1917    7.2817 C.ar      1 RES1    0.0000
     31 C20        1.4060    8.0995    7.0771 C.ar      1 RES1    0.0000
     32 H11        1.3871    8.8994    7.5505 H         1 RES1    0.0000
     33 C21        0.4314    7.8111    6.1775 C.ar      1 RES1    0.0000
     34 C22        0.4376    6.6213    5.4706 C.ar      1 RES1    0.0000
     35 H12       -0.2428    6.4353    4.8644 H         1 RES1    0.0000
     36 C23        1.4426    5.7230    5.6652 C.ar      1 RES1    0.0000
     37 H13        1.4386    4.9244    5.1884 H         1 RES1    0.0000
     38 N2         3.5843    4.0462    5.8448 N.2       1 RES1    0.0000
     39 N3        -0.6338    8.7889    5.9401 N.pl3     1 RES1    0.0000
     40 N4         3.4409    7.5794    8.2363 N.pl3     1 RES1    0.0000
     41 O1         3.8457    0.3326    4.0938 O.2       1 RES1    0.0000
     42 O2         6.6907    2.4811    6.5047 O.3       1 RES1    0.0000
     43 O3         6.0336    4.3232    7.6239 O.2       1 RES1    0.0000
     44 O4        -1.3991    8.5826    5.0150 O.2       1 RES1    0.0000
     45 O5        -0.7024    9.7521    6.6761 O.2       1 RES1    0.0000
     46 O6         3.3751    8.6909    8.7445 O.2       1 RES1    0.0000
     47 O7         4.3410    6.7951    8.5005 O.2       1 RES1    0.0000
     48 H14        4.1759    5.2647    7.2304 H         1 RES1    0.0000
@<TRIPOS>BOND
     1    1   29 1
     2    2    3 1
     3    4    2 ar
     4    5    2 ar
     5    6    5 1
     6    7    5 ar
     7    8    7 1
     8    9    7 ar
     9   10    9 1
    10   11    4 ar
    11   12   11 1
    12   13   14 1
    13   15   13 ar
    14   16   15 1
    15   17   15 ar
    16   18   17 1
    17   19   17 ar
    18   20   19 1
    19   21   19 ar
    20   22   21 1
    21   23   13 ar
    22   24   23 1
    23   25   24 2
    24   26    4 1
    25   27   25 1
    26   28   27 1
    27   29   30 ar
    28   30   31 ar
    29   31   32 1
    30   33   31 ar
    31   34   33 ar
    32   35   34 1
    33   36   29 ar
    34   37   36 1
    35   38    1 1
    36   39   33 1
    37   40   30 1
    38   41   26 2
    39   42   24 1
    40   43   28 2
    41   44   39 2
    42   45   39 2
    43   46   40 2
    44   47   40 2
    45   48    1 1
    46    9   11 ar
    47   21   23 ar
    48   25   26 1
    49   27   38 2
    50   28   42 1
    51   34   36 ar
@<TRIPOS>SUBSTRUCTURE
     1 RES1 1

@<TRIPOS>CRYSIN
  20.7156    6.3660   16.0288  90.0000 105.1830  90.0000  14 1

