# MOL2 file generated by ConQuest
# Please check atom types

@<TRIPOS>MOLECULE
EBOKOY
    86    68     3
SMALL
NO_CHARGES
****
Generated from CSD

@<TRIPOS>ATOM
      1 C1         5.8426    8.3326    4.8693 C.2       1 RES1    0.0000
      2 C2         4.5970    8.5896    5.6370 C.3       1 RES1    0.0000
      3 H1         4.8122    9.0755    6.4486 H         1 RES1    0.0000
      4 H2         4.1787    7.7447    5.8668 H         1 RES1    0.0000
      5 H3         3.9873    9.1160    5.0964 H         1 RES1    0.0000
      6 C3         9.6154   11.5054    4.9074 C.2       1 RES1    0.0000
      7 C4         8.9812   12.8468    4.7403 C.3       1 RES1    0.0000
      8 H4         8.8017   13.2298    5.6129 H         1 RES1    0.0000
      9 H5         8.1497   12.7525    4.2508 H         1 RES1    0.0000
     10 H6         9.5817   13.4290    4.2480 H         1 RES1    0.0000
     11 O1         6.9330    8.5934    5.6146 O.3       1 RES1    0.0000
     12 O2         5.9072    7.9160    3.7497 O.2       1 RES1    0.0000
     13 O3        10.7172   11.2023    4.5594 O.2       1 RES1    0.0000
     14 O4         9.6344    6.7545    6.1222 O.3       1 RES1    0.0000
     15 O5         8.7295   10.6470    5.4455 O.3       1 RES1    0.0000
     16 C5         8.6172    6.9007    5.1248 C.3       1 RES1    0.0000
     17 H7         7.8045    6.3224    5.4057 H         1 RES1    0.0000
     18 H8         9.1044    6.5630    4.2990 H         1 RES1    0.0000
     19 C6         8.1934    8.3586    4.9489 C.3       1 RES1    0.0000
     20 H9         8.0905    8.5934    4.0295 H         1 RES1    0.0000
     21 C7         9.1650    9.2863    5.6384 C.3       1 RES1    0.0000
     22 H10       10.0516    9.2093    5.2355 H         1 RES1    0.0000
     23 C8         9.1934    8.9543    7.1197 C.3       1 RES1    0.0000
     24 H11        8.3844    9.4114    7.6333 H         1 RES1    0.0000
     25 C9        10.5121    9.0630    7.8518 C.2       1 RES1    0.0000
     26 C10       10.5425    7.6061    8.2292 C.3       1 RES1    0.0000
     27 H12       10.3617    7.4771    9.1940 H         1 RES1    0.0000
     28 H13       11.2537    7.0922    7.9738 H         1 RES1    0.0000
     29 C11        9.2909    7.4088    7.3467 C.3       1 RES1    0.0000
     30 H14        8.5256    6.9767    7.7326 H         1 RES1    0.0000
     31 N1        11.2830   10.0763    7.9624 N.2       1 RES1    0.0000
     32 O6        12.4334    9.7318    8.7089 O.3       1 RES1    0.0000
     33 H15       13.0358   10.3737    8.5271 H         1 RES1    0.0000
     34 O7         9.5847    6.6592    6.3138 Du        3 SUP3    0.0000
     35 O8         8.9890   10.6788    5.8924 Du        3 SUP3    0.0000
     36 C12        8.7957    7.0249    5.1787 Du        3 SUP3    0.0000
     37 H16        7.9936    6.4552    5.1617 Du        3 SUP3    0.0000
     38 H17        9.3058    6.8420    4.3686 Du        3 SUP3    0.0000
     39 C13        8.3416    8.5068    5.1574 Du        3 SUP3    0.0000
     40 H18        8.3741    8.8225    4.2182 Du        3 SUP3    0.0000
     41 C14        9.3566    9.2767    5.9406 Du        3 SUP3    0.0000
     42 H19       10.2525    9.1593    5.5277 Du        3 SUP3    0.0000
     43 C15        9.4115    8.8436    7.3637 Du        3 SUP3    0.0000
     44 H20        8.7503    9.3488    7.9014 Du        3 SUP3    0.0000
     45 C16       10.6588    8.6290    8.1455 Du        3 SUP3    0.0000
     46 C17       10.3430    7.2366    8.5484 Du        3 SUP3    0.0000
     47 H21       10.0573    7.1452    9.4820 Du        3 SUP3    0.0000
     48 H22       11.0415    6.5860    8.3242 Du        3 SUP3    0.0000
     49 C18        9.1722    7.2943    7.5198 Du        3 SUP3    0.0000
     50 H23        8.2854    7.0277    7.8716 Du        3 SUP3    0.0000
     51 N2        11.7184    9.3286    8.3810 Du        3 SUP3    0.0000
     52 O9        11.6068   10.6133    7.8021 Du        3 SUP3    0.0000
     53 H24       12.2705   10.7615    7.3254 Du        3 SUP3    0.0000
     54 C19        2.6156    3.8252    0.0643 C.3       2 RES2    0.0000
     55 H25        3.3740    3.3450   -0.3533 H         2 RES2    0.0000
     56 C20        6.1441    4.8943    2.3723 C.2       2 RES2    0.0000
     57 C21        3.3106    3.6346    2.3181 C.3       2 RES2    0.0000
     58 H26        4.0726    3.0476    2.1297 H         2 RES2    0.0000
     59 H27        2.9869    3.4229    3.2179 H         2 RES2    0.0000
     60 C22        3.7850    5.0906    2.2893 C.3       2 RES2    0.0000
     61 H28        3.8443    5.4457    3.2108 H         2 RES2    0.0000
     62 C23        2.8079    5.9192    1.4752 C.3       2 RES2    0.0000
     63 H29        1.9089    5.8662    1.8856 H         2 RES2    0.0000
     64 C24        2.7514    5.3764    0.0596 C.3       2 RES2    0.0000
     65 H30        3.5087    5.6882   -0.4952 H         2 RES2    0.0000
     66 C25        1.4397    5.4207   -0.6802 C.2       2 RES2    0.0000
     67 C26        1.3535    3.9291   -0.8233 C.3       2 RES2    0.0000
     68 H31        1.4848    3.6087   -1.7409 H         2 RES2    0.0000
     69 H32        0.5506    3.5355   -0.4214 H         2 RES2    0.0000
     70 C27        7.4116    5.0887    1.6160 C.3       2 RES2    0.0000
     71 H33        7.2182    5.5111    0.7647 H         2 RES2    0.0000
     72 H34        7.8319    4.2284    1.4628 H         2 RES2    0.0000
     73 H35        8.0101    5.6545    2.1282 H         2 RES2    0.0000
     74 C28        2.7577    8.1200    2.3608 C.2       2 RES2    0.0000
     75 C29        3.3049    9.4980    2.1985 C.3       2 RES2    0.0000
     76 H36        3.1761    9.7915    1.2826 H         2 RES2    0.0000
     77 H37        4.2525    9.4961    2.4063 H         2 RES2    0.0000
     78 H38        2.8434   10.1023    2.8008 H         2 RES2    0.0000
     79 N3         0.7083    6.4340   -0.9552 N.2       2 RES2    0.0000
     80 O10        2.2677    3.3633    1.3704 O.3       2 RES2    0.0000
     81 O11        5.0683    5.2153    1.6265 O.3       2 RES2    0.0000
     82 O12        6.0600    4.4642    3.4861 O.2       2 RES2    0.0000
     83 O13        3.2225    7.2960    1.4053 O.3       2 RES2    0.0000
     84 O14        2.0292    7.7533    3.2318 O.2       2 RES2    0.0000
     85 O15       -0.4533    5.9894   -1.6302 O.3       2 RES2    0.0000
     86 H39       -0.9853    6.7073   -1.5749 H         2 RES2    0.0000
@<TRIPOS>BOND
     1    1    2 1
     2    2    3 1
     3    4    2 1
     4    5    2 1
     5    6    7 1
     6    7    8 1
     7    9    7 1
     8   10    7 1
     9   11    1 1
    10   12    1 2
    11   13    6 2
    12   14   16 1
    13   15    6 1
    14   16   17 1
    15   18   16 1
    16   19   11 1
    17   20   19 1
    18   21   15 1
    19   22   21 1
    20   23   21 1
    21   24   23 1
    22   25   23 1
    23   26   25 1
    24   27   26 1
    25   28   26 1
    26   29   14 1
    27   30   29 1
    28   31   25 2
    29   32   31 1
    30   33   32 1
    31   54   55 1
    32   56   70 1
    33   57   58 1
    34   59   57 1
    35   60   57 1
    36   61   60 1
    37   62   60 1
    38   63   62 1
    39   64   54 1
    40   65   64 1
    41   66   64 1
    42   67   54 1
    43   68   67 1
    44   69   67 1
    45   70   71 1
    46   72   70 1
    47   73   70 1
    48   74   75 1
    49   75   76 1
    50   77   75 1
    51   78   75 1
    52   79   66 2
    53   80   54 1
    54   81   56 1
    55   82   56 2
    56   83   62 1
    57   84   74 2
    58   85   79 1
    59   86   85 1
    60   16   19 1
    61   19   21 1
    62   23   29 1
    63   26   29 1
    64   57   80 1
    65   60   81 1
    66   62   64 1
    67   66   67 1
    68   74   83 1
@<TRIPOS>SUBSTRUCTURE
     1 RES1 1
     2 RES2 54
     3 SUP3 34

@<TRIPOS>CRYSIN
   8.9910    9.6231   14.4915  90.0000 101.7420  90.0000   4 1

