# MOL2 file generated by ConQuest
# Please check atom types

@<TRIPOS>MOLECULE
EBOWIC
    38    42     1
SMALL
NO_CHARGES
****
Generated from CSD

@<TRIPOS>ATOM
      1 N1        -1.7315   -2.4812   -1.0706 N.3       1 RES1    0.0000
      2 O1         0.1105   -2.6817   -4.0207 O.3       1 RES1    0.0000
      3 O2        -1.3095   -3.7298   -5.3994 O.2       1 RES1    0.0000
      4 C1        -0.9589   -3.4782   -4.2766 C.2       1 RES1    0.0000
      5 C2        -1.5134   -3.9206   -2.9855 C.2       1 RES1    0.0000
      6 O3        -2.6342   -3.4623   -0.4854 O.3       1 RES1    0.0000
      7 C3        -2.5325   -4.6826   -2.5991 C.2       1 RES1    0.0000
      8 H1        -3.1814   -5.1077   -3.1736 H         1 RES1    0.0000
      9 C4        -2.5756   -4.8095   -1.1011 C.3       1 RES1    0.0000
     10 C5        -1.2307   -5.3984   -0.6390 C.3       1 RES1    0.0000
     11 H2        -1.0358   -6.3276   -1.1024 H         1 RES1    0.0000
     12 H3        -1.2858   -5.5416    0.3120 H         1 RES1    0.0000
     13 C6        -0.1526   -4.3571   -0.9550 C.3       1 RES1    0.0000
     14 H4         0.1196   -3.9004   -0.1423 H         1 RES1    0.0000
     15 C7         1.1001   -4.7672   -1.7306 C.3       1 RES1    0.0000
     16 H5         1.7679   -5.2602   -1.1779 H         1 RES1    0.0000
     17 H6         0.8393   -5.3646   -2.4758 H         1 RES1    0.0000
     18 C8         1.6462   -3.4165   -2.2155 C.3       1 RES1    0.0000
     19 H7         2.2778   -3.4756   -2.9661 H         1 RES1    0.0000
     20 H8         2.0912   -2.9673   -1.5088 H         1 RES1    0.0000
     21 C9         0.4093   -2.5823   -2.5857 C.3       1 RES1    0.0000
     22 H9         0.5000   -1.6248   -2.3626 H         1 RES1    0.0000
     23 C10       -0.7573   -3.2824   -1.8714 C.3       1 RES1    0.0000
     24 C11       -3.7799   -5.5299   -0.5495 C.3       1 RES1    0.0000
     25 H10       -4.6431   -5.1013   -0.9018 H         1 RES1    0.0000
     26 H11       -3.8127   -6.4266   -0.8624 H         1 RES1    0.0000
     27 H12       -3.7413   -5.5461    0.4081 H         1 RES1    0.0000
     28 C12       -2.5298   -1.5372   -1.8174 C.ar      1 RES1    0.0000
     29 C13       -3.8671   -1.7469   -2.1209 C.ar      1 RES1    0.0000
     30 H13       -4.3306   -2.5779   -1.8757 H         1 RES1    0.0000
     31 C14       -4.6075   -0.7469   -2.7443 C.ar      1 RES1    0.0000
     32 H14       -5.5806   -0.9032   -2.8890 H         1 RES1    0.0000
     33 C15       -4.0121    0.4578   -3.0904 C.ar      1 RES1    0.0000
     34 H15       -4.5359    1.1619   -3.4994 H         1 RES1    0.0000
     35 C16       -2.6744    0.6581   -2.7995 C.ar      1 RES1    0.0000
     36 H16       -2.2501    1.4796   -3.0296 H         1 RES1    0.0000
     37 C17       -1.9363   -0.3128   -2.1490 C.ar      1 RES1    0.0000
     38 H17       -1.0000   -0.1997   -1.8894 H         1 RES1    0.0000
@<TRIPOS>BOND
     1    1    6 1
     2    2    4 1
     3    3    4 2
     4    4    5 1
     5    5    7 2
     6    6    9 1
     7    7    8 1
     8    9    7 1
     9   10    9 1
    10   11   10 1
    11   12   10 1
    12   13   10 1
    13   14   13 1
    14   15   13 1
    15   16   15 1
    16   17   15 1
    17   18   15 1
    18   19   18 1
    19   20   18 1
    20   21    2 1
    21   22   21 1
    22   23    1 1
    23   24    9 1
    24   25   24 1
    25   26   24 1
    26   27   24 1
    27   28    1 1
    28   29   28 ar
    29   30   29 1
    30   31   29 ar
    31   32   31 1
    32   33   31 ar
    33   34   33 1
    34   35   33 ar
    35   36   35 1
    36   37   28 ar
    37   38   37 1
    38    5   23 1
    39   13   23 1
    40   18   21 1
    41   21   23 1
    42   35   37 ar
@<TRIPOS>SUBSTRUCTURE
     1 RES1 1

@<TRIPOS>CRYSIN
   8.9290    9.0771   17.1453  90.0000  90.0000  90.0000  19 1

