# MOL2 file generated by ConQuest
# Please check atom types

@<TRIPOS>MOLECULE
EBUDOX
    53    48     2
SMALL
NO_CHARGES
****
Generated from CSD

@<TRIPOS>ATOM
      1 N1         2.6573    5.1843    6.7260 N.pl3     1 RES1    0.0000
      2 O1         2.1024    6.2511    7.0596 O.2       1 RES1    0.0000
      3 O2         3.6296    4.7198    7.1811 O.2       1 RES1    0.0000
      4 O3        -1.5768    0.6914   -2.1675 O.2       1 RES1    0.0000
      5 O4         0.8851    3.9288   -1.5363 O.2       1 RES1    0.0000
      6 C1         0.4077    4.4335    3.8655 C.ar      1 RES1    0.0000
      7 H1        -0.2673    4.8545    3.3835 H         1 RES1    0.0000
      8 C2         0.9859    5.0825    4.9099 C.ar      1 RES1    0.0000
      9 H2         0.6942    5.9319    5.1530 H         1 RES1    0.0000
     10 C3         1.9766    4.4834    5.5883 C.ar      1 RES1    0.0000
     11 C4         2.4328    3.2279    5.2647 C.ar      1 RES1    0.0000
     12 H3         3.1329    2.8398    5.7381 H         1 RES1    0.0000
     13 C5         1.8306    2.5524    4.2188 C.ar      1 RES1    0.0000
     14 H4         2.1162    1.6945    3.9983 H         1 RES1    0.0000
     15 C6         0.8083    3.1409    3.4980 C.ar      1 RES1    0.0000
     16 C7         0.1903    2.4135    2.3843 C.2       1 RES1    0.0000
     17 H5         0.4785    1.5386    2.2486 H         1 RES1    0.0000
     18 C8        -0.7219    2.8620    1.5617 C.2       1 RES1    0.0000
     19 H6        -1.0182    3.7358    1.6804 H         1 RES1    0.0000
     20 C9        -1.3227    2.0699    0.4438 C.3       1 RES1    0.0000
     21 H7        -2.2700    1.9448    0.6134 H         1 RES1    0.0000
     22 H8        -0.9060    1.1940    0.4141 H         1 RES1    0.0000
     23 C10       -1.1412    2.7592   -0.9173 C.3       1 RES1    0.0000
     24 C11       -1.8887    4.1080   -1.0303 C.3       1 RES1    0.0000
     25 H9        -2.4134    4.2766   -0.2332 H         1 RES1    0.0000
     26 H10       -1.2620    4.8386   -1.1533 H         1 RES1    0.0000
     27 C12       -2.7788    3.9606   -2.2331 C.ar      1 RES1    0.0000
     28 C13       -3.6620    4.8842   -2.7616 C.ar      1 RES1    0.0000
     29 H11       -3.7845    5.7134   -2.3588 H         1 RES1    0.0000
     30 C14       -4.3555    4.5396   -3.8980 C.ar      1 RES1    0.0000
     31 H12       -4.9510    5.1525   -4.2654 H         1 RES1    0.0000
     32 C15       -4.1953    3.3106   -4.5113 C.ar      1 RES1    0.0000
     33 H13       -4.6639    3.1144   -5.2901 H         1 RES1    0.0000
     34 C16       -3.3477    2.3848   -3.9771 C.ar      1 RES1    0.0000
     35 H14       -3.2367    1.5524   -4.3757 H         1 RES1    0.0000
     36 C17       -2.6578    2.7157   -2.8238 C.ar      1 RES1    0.0000
     37 C18       -1.7669    1.8833   -2.0380 C.2       1 RES1    0.0000
     38 C19        0.3351    2.9182   -1.2141 C.2       1 RES1    0.0000
     39 O5         0.9760    1.7836   -1.0402 O.3       1 RES1    0.0000
     40 C20        2.6061    1.8186   -0.6417 C.3       1 RES1    0.0000
     41 H15        2.9749    2.7125   -0.5667 H         1 RES1    0.0000
     42 H16        2.8366    1.2778    0.1300 H         1 RES1    0.0000
     43 C21        2.8836    1.1251   -2.0140 C.3       1 RES1    0.0000
     44 H17        2.7945    1.7687   -2.7207 H         1 RES1    0.0000
     45 H18        2.2532    0.4136   -2.1468 H         1 RES1    0.0000
     46 H19        3.7743    0.7677   -2.0168 H         1 RES1    0.0000
     47 C22        2.3664    1.8281   -1.6578 Du        2 SUP2    0.0000
     48 H20        2.4110    1.2619   -2.4436 Du        2 SUP2    0.0000
     49 H21        2.6025    2.7348   -1.9108 Du        2 SUP2    0.0000
     50 C23        3.1155    1.4103   -0.7773 Du        2 SUP2    0.0000
     51 H22        3.9952    1.2820   -1.1420 Du        2 SUP2    0.0000
     52 H23        2.7812    0.5790   -0.4410 Du        2 SUP2    0.0000
     53 H24        3.1549    2.0540   -0.0650 Du        2 SUP2    0.0000
@<TRIPOS>BOND
     1    1    2 2
     2    3    1 2
     3    4   37 2
     4    5   38 2
     5    6    7 1
     6    8    6 ar
     7    9    8 1
     8   10    1 1
     9   11   10 ar
    10   12   11 1
    11   13   11 ar
    12   14   13 1
    13   15    6 ar
    14   16   15 1
    15   17   16 1
    16   18   16 2
    17   19   18 1
    18   20   18 1
    19   21   20 1
    20   22   20 1
    21   23   20 1
    22   24   23 1
    23   25   24 1
    24   26   24 1
    25   27   24 1
    26   28   27 ar
    27   29   28 1
    28   30   28 ar
    29   31   30 1
    30   32   30 ar
    31   33   32 1
    32   34   32 ar
    33   35   34 1
    34   36   27 ar
    35   37   23 1
    36   38   23 1
    37   39   38 1
    38   40   39 1
    39   41   40 1
    40   42   40 1
    41   43   40 1
    42   44   43 1
    43   45   43 1
    44   46   43 1
    45    8   10 ar
    46   13   15 ar
    47   34   36 ar
    48   36   37 1
@<TRIPOS>SUBSTRUCTURE
     1 RES1 1
     2 SUP2 47

@<TRIPOS>CRYSIN
  24.9150   10.6040   15.3900  90.0000 113.3150  90.0000  15 1

