# MOL2 file generated by ConQuest
# Please check atom types

@<TRIPOS>MOLECULE
EBUDIR
    65    60     2
SMALL
NO_CHARGES
****
Generated from CSD

@<TRIPOS>ATOM
      1 N1         5.4815    4.6296    8.4843 N.3       1 RES1    0.0000
      2 C1         5.3730    6.1162    8.6762 C.3       1 RES1    0.0000
      3 C2         6.7058    6.6021    9.2706 C.3       1 RES1    0.0000
      4 C3         7.9145    6.1911    8.4569 C.3       1 RES1    0.0000
      5 C4         7.9154    4.6848    8.2995 C.3       1 RES1    0.0000
      6 C5         4.2909    6.3726    9.7303 C.3       1 RES1    0.0000
      7 C6         5.0065    6.9270    7.4245 C.3       1 RES1    0.0000
      8 C7         6.6701    2.6242    7.7323 C.3       1 RES1    0.0000
      9 C8         6.5707    4.5348    6.1617 C.3       1 RES1    0.0000
     10 O1         4.2678    4.1954    7.8003 O.3       1 RES1    0.0000
     11 C9         3.3446    3.5155    8.6730 C.3       1 RES1    0.0000
     12 C10        3.6842    2.0499    8.8991 C.3       1 RES1    0.0000
     13 C11        2.0039    3.6482    7.9473 C.3       1 RES1    0.0000
     14 O2         1.6550    5.0619    7.9289 O.3       1 RES1    0.0000
     15 C12        0.8666    2.9070    8.6012 C.ar      1 RES1    0.0000
     16 C13        0.1992    1.8991    7.9137 C.ar      1 RES1    0.0000
     17 C14       -0.8476    1.2103    8.5058 C.ar      1 RES1    0.0000
     18 C15       -1.2418    1.5194    9.8028 C.ar      1 RES1    0.0000
     19 C16       -0.5968    2.5341   10.5014 C.ar      1 RES1    0.0000
     20 C17        0.4508    3.2143    9.8915 C.ar      1 RES1    0.0000
     21 O3        -2.2685    0.7662   10.2971 O.3       1 RES1    0.0000
     22 C18       -2.7662    1.0964   11.5833 C.3       1 RES1    0.0000
     23 C19        6.6276    4.1470    7.6477 C.3       1 RES1    0.0000
     24 C20        1.4786    5.6754    6.7534 C.2       1 RES1    0.0000
     25 O4         1.6563    5.1540    5.6968 O.2       1 RES1    0.0000
     26 C21        1.0085    7.0818    6.9608 C.3       1 RES1    0.0000
     27 H1         6.6457    7.5972    9.3379 H         1 RES1    0.0000
     28 H2         6.7893    6.2521   10.1864 H         1 RES1    0.0000
     29 H3         7.9039    6.6312    7.5781 H         1 RES1    0.0000
     30 H4         8.7193    6.4668    8.9271 H         1 RES1    0.0000
     31 H5         8.6749    4.3796    7.7644 H         1 RES1    0.0000
     32 H6         7.9936    4.2927    9.1988 H         1 RES1    0.0000
     33 H7         4.3501    7.3025    9.9956 H         1 RES1    0.0000
     34 H8         3.3817    6.2010    9.3649 H         1 RES1    0.0000
     35 H9         4.4197    5.7904   10.4984 H         1 RES1    0.0000
     36 H10        4.6696    7.8111    7.6903 H         1 RES1    0.0000
     37 H11        4.3172    6.4651    6.9271 H         1 RES1    0.0000
     38 H12        5.7873    7.0605    6.8373 H         1 RES1    0.0000
     39 H13        7.4854    2.3180    7.2908 H         1 RES1    0.0000
     40 H14        5.9192    2.2209    7.2391 H         1 RES1    0.0000
     41 H15        6.6565    2.3265    8.6578 H         1 RES1    0.0000
     42 H16        7.2079    4.0022    5.6723 H         1 RES1    0.0000
     43 H17        5.6998    4.3583    5.8182 H         1 RES1    0.0000
     44 H18        6.8026    5.4769    6.0090 H         1 RES1    0.0000
     45 H19        3.3022    3.9775    9.5444 H         1 RES1    0.0000
     46 H20        3.0077    1.6680    9.4928 H         1 RES1    0.0000
     47 H21        3.6909    1.5513    8.0607 H         1 RES1    0.0000
     48 H22        4.5442    1.9662    9.3155 H         1 RES1    0.0000
     49 H23        2.1049    3.3667    7.0192 H         1 RES1    0.0000
     50 H24        0.4769    1.6791    7.0236 H         1 RES1    0.0000
     51 H25       -1.3214    0.5393    8.0472 H         1 RES1    0.0000
     52 H26       -0.8667    2.7644   11.3761 H         1 RES1    0.0000
     53 H27        0.8975    3.9094   10.3862 H         1 RES1    0.0000
     54 H28       -3.4737    0.4617   11.7802 H         1 RES1    0.0000
     55 H29       -3.1333    1.9815   11.5894 H         1 RES1    0.0000
     56 H30       -2.0598    1.0129   12.2673 H         1 RES1    0.0000
     57 H31        0.9493    7.5385    6.1213 H         1 RES1    0.0000
     58 H32        0.1343    7.0495    7.3716 H         1 RES1    0.0000
     59 H33        1.6278    7.5487    7.5467 H         1 RES1    0.0000
     60 C22        1.2304    5.5578    6.7543 Du        2 SUP2    0.0000
     61 O5         1.1206    4.9104    5.7576 Du        2 SUP2    0.0000
     62 C23        0.9574    7.0231    6.8733 Du        2 SUP2    0.0000
     63 H34        0.3668    7.2573    6.1482 Du        2 SUP2    0.0000
     64 H35        0.5447    7.2088    7.7195 Du        2 SUP2    0.0000
     65 H36        1.7788    7.5257    6.7880 Du        2 SUP2    0.0000
@<TRIPOS>BOND
     1    1    2 1
     2    2    3 1
     3    3    4 1
     4    4    5 1
     5    5   23 1
     6    6    2 1
     7    7    2 1
     8    8   23 1
     9    9   23 1
    10   10    1 1
    11   11   10 1
    12   12   11 1
    13   13   11 1
    14   14   13 1
    15   15   13 1
    16   16   15 ar
    17   17   16 ar
    18   18   17 ar
    19   19   18 ar
    20   20   15 ar
    21   21   18 1
    22   22   21 1
    23   23    1 1
    24   24   14 1
    25   25   24 2
    26   26   24 1
    27   27    3 1
    28   28    3 1
    29   29    4 1
    30   30    4 1
    31   31    5 1
    32   32    5 1
    33   33    6 1
    34   34    6 1
    35   35    6 1
    36   36    7 1
    37   37    7 1
    38   38    7 1
    39   39    8 1
    40   40    8 1
    41   41    8 1
    42   42    9 1
    43   43    9 1
    44   44    9 1
    45   45   11 1
    46   46   12 1
    47   47   12 1
    48   48   12 1
    49   49   13 1
    50   50   16 1
    51   51   17 1
    52   52   19 1
    53   53   20 1
    54   54   22 1
    55   55   22 1
    56   56   22 1
    57   57   26 1
    58   58   26 1
    59   59   26 1
    60   19   20 ar
@<TRIPOS>SUBSTRUCTURE
     1 RES1 1
     2 SUP2 60

@<TRIPOS>CRYSIN
  10.7863    8.5190   22.5231  90.0000  94.7132  90.0000 231 1

