# MOL2 file generated by ConQuest
# Please check atom types

@<TRIPOS>MOLECULE
ECEGEY
    25    27     1
SMALL
NO_CHARGES
****
Generated from CSD

@<TRIPOS>ATOM
      1 N1        -1.5906    4.6533    1.1255 N.pl3     1 RES1    0.0000
      2 C1        -0.8071    5.0182    2.2021 C.2       1 RES1    0.0000
      3 C2        -0.7432    4.2055    3.2826 C.2       1 RES1    0.0000
      4 C3        -1.4284    2.8525    3.2689 C.3       1 RES1    0.0000
      5 C4        -2.5528    2.8159    2.2441 C.2       1 RES1    0.0000
      6 C5        -2.5416    3.6509    1.1793 C.2       1 RES1    0.0000
      7 C6        -0.4076    1.7466    3.0020 C.2       1 RES1    0.0000
      8 C7         0.1307    1.6159    1.6653 C.2       1 RES1    0.0000
      9 C8         1.0565    0.6837    1.3338 C.2       1 RES1    0.0000
     10 C9         1.4909   -0.1865    2.3683 C.2       1 RES1    0.0000
     11 C10        0.9701   -0.0622    3.6796 C.2       1 RES1    0.0000
     12 C11       -0.0050    0.9227    3.9964 C.2       1 RES1    0.0000
     13 N2         1.5342   -0.9641    4.4629 N.2       1 RES1    0.0000
     14 O1         2.4039   -1.6446    3.6337 O.3       1 RES1    0.0000
     15 N3         2.3760   -1.1681    2.3400 N.2       1 RES1    0.0000
     16 C12       -0.1389    6.3441    2.0417 C.3       1 RES1    0.0000
     17 C13        0.0459    4.5768    4.4619 C.2       1 RES1    0.0000
     18 O2         0.8666    5.4501    4.5411 O.2       1 RES1    0.0000
     19 O3        -0.2496    3.7784    5.5101 O.3       1 RES1    0.0000
     20 C14        0.4885    4.0127    6.7246 C.3       1 RES1    0.0000
     21 C15       -3.5968    1.8406    2.5414 C.2       1 RES1    0.0000
     22 O4        -3.7779    1.3832    3.6493 O.2       1 RES1    0.0000
     23 O5        -4.3437    1.4693    1.5078 O.3       1 RES1    0.0000
     24 C16       -5.4423    0.5673    1.7806 C.3       1 RES1    0.0000
     25 C17       -3.4558    3.6446   -0.0088 C.3       1 RES1    0.0000
@<TRIPOS>BOND
     1    1    2 1
     2    2    3 2
     3    3    4 1
     4    4    5 1
     5    5    6 2
     6    6    1 1
     7    7    4 1
     8    8    7 1
     9    9    8 2
    10   10    9 1
    11   11   10 1
    12   12    7 2
    13   13   11 2
    14   14   13 1
    15   15   10 2
    16   16    2 1
    17   17    3 1
    18   18   17 2
    19   19   17 1
    20   20   19 1
    21   21    5 1
    22   22   21 2
    23   23   21 1
    24   24   23 1
    25   25    6 1
    26   11   12 1
    27   14   15 1
@<TRIPOS>SUBSTRUCTURE
     1 RES1 1

@<TRIPOS>CRYSIN
  10.5370   15.9360   11.0220  90.0000 117.4800  90.0000  14 1

