# MOL2 file generated by ConQuest
# Please check atom types

@<TRIPOS>MOLECULE
ECEGIC
    26    28     1
SMALL
USER_CHARGES
****
Generated from CSD

@<TRIPOS>ATOM
      1 N1         3.0867    4.8741    8.7633 N.pl3     1 RES1    0.0000
      2 C1         2.0853    4.8741    9.6632 C.2       1 RES1    0.0000
      3 C2         0.8157    4.4579    9.2196 C.2       1 RES1    0.0000
      4 C3         0.5146    4.5234    7.7202 C.3       1 RES1    0.0000
      5 C4         1.5986    5.2975    6.9855 C.2       1 RES1    0.0000
      6 C5         2.8339    5.4030    7.5110 C.2       1 RES1    0.0000
      7 C6         0.3340    3.1007    7.1963 C.2       1 RES1    0.0000
      8 C7         1.4957    2.2524    7.0610 C.2       1 RES1    0.0000
      9 C8         1.4180    0.9723    6.6677 C.2       1 RES1    0.0000
     10 C9         0.1188    0.4690    6.4270 C.2       1 RES1    0.0000
     11 C10       -1.0348    1.2674    6.5229 C.2       1 RES1    0.0000
     12 C11       -0.8993    2.6203    6.9336 C.2       1 RES1    0.0000
     13 N2        -2.2086    0.5988    6.2397 N.2       1 RES1    0.0000
     14 O1        -1.7374   -0.6800    5.9613 O.3       1 RES1    0.0000
     15 N3        -0.3269   -0.7499    6.0887 N.pl3     1 RES1    1.0000
     16 O2         0.2092   -1.7977    5.9628 O.2       1 RES1   -1.0000
     17 C12        2.5799    4.4350   11.0776 C.3       1 RES1    0.0000
     18 C13        4.0322    6.0959    6.9084 C.3       1 RES1    0.0000
     19 C14       -0.3736    4.3495   10.0629 C.2       1 RES1    0.0000
     20 O3        -1.4713    4.6674    9.6947 O.2       1 RES1    0.0000
     21 O4        -0.1460    3.8862   11.2885 O.3       1 RES1    0.0000
     22 C15       -1.2931    3.7650   12.1538 C.3       1 RES1    0.0000
     23 C16        1.2407    5.9305    5.7017 C.2       1 RES1    0.0000
     24 O5         1.9745    6.5007    4.9370 O.2       1 RES1    0.0000
     25 O6        -0.0736    5.7879    5.4515 O.3       1 RES1    0.0000
     26 C17       -0.5716    6.3724    4.2338 C.3       1 RES1    0.0000
@<TRIPOS>BOND
     1    1    2 1
     2    2    3 2
     3    3    4 1
     4    4    5 1
     5    5    6 2
     6    6    1 1
     7    7    4 1
     8    8    7 1
     9    9    8 2
    10   10    9 1
    11   11   10 1
    12   12    7 2
    13   13   11 2
    14   14   13 1
    15   15   10 2
    16   16   15 1
    17   17    2 1
    18   18    6 1
    19   19    3 1
    20   20   19 2
    21   21   19 1
    22   22   21 1
    23   23    5 1
    24   24   23 2
    25   25   23 1
    26   26   25 1
    27   11   12 1
    28   14   15 1
@<TRIPOS>SUBSTRUCTURE
     1 RES1 1

@<TRIPOS>CRYSIN
   7.3470   14.2560   16.0010  90.0000 100.5000  90.0000  14 1

