# MOL2 file generated by ConQuest
# Please check atom types

@<TRIPOS>MOLECULE
ECEMII
    56    45     2
SMALL
NO_CHARGES
****
Generated from CSD

@<TRIPOS>ATOM
      1 O1         1.3541    1.2144   -2.3857 O.2       1 RES1    0.0000
      2 O2        -0.3102    0.2268   -3.3395 O.2       1 RES1    0.0000
      3 O3        -3.8066   -1.6610   -0.6338 O.2       1 RES1    0.0000
      4 O4        -3.6520   -1.5796    1.5132 O.2       1 RES1    0.0000
      5 O5         1.4905    1.8171    2.4481 O.2       1 RES1    0.0000
      6 O6        -0.2310    0.9876    3.6252 O.3       1 RES1    0.0000
      7 O7        -2.0531   -1.0062    5.0471 O.2       1 RES1    0.0000
      8 O8         0.0325   -1.7877    4.9715 O.3       1 RES1    0.0000
      9 N1         0.2497    0.6734   -2.3640 N.pl3     1 RES1    0.0000
     10 N2        -3.2659   -1.2890    0.4054 N.pl3     1 RES1    0.0000
     11 C1        -1.5053    0.0609    1.4301 C.ar      1 RES1    0.0000
     12 H1        -1.8837   -0.1021    2.2648 H         1 RES1    0.0000
     13 C2        -2.0702   -0.4369    0.2854 C.ar      1 RES1    0.0000
     14 C3        -1.5538   -0.2307   -0.9733 C.ar      1 RES1    0.0000
     15 H2        -1.9586   -0.5851   -1.7324 H         1 RES1    0.0000
     16 C4        -0.4010    0.5311   -1.0521 C.ar      1 RES1    0.0000
     17 C5         0.2019    1.0642    0.0573 C.ar      1 RES1    0.0000
     18 H3         0.9691    1.5835   -0.0252 H         1 RES1    0.0000
     19 C6        -0.3498    0.8148    1.3000 C.ar      1 RES1    0.0000
     20 C7         0.4136    1.2811    2.5089 C.2       1 RES1    0.0000
     21 C8         0.4862    1.1829    4.8808 C.3       1 RES1    0.0000
     22 H4         1.4223    0.9041    4.8036 H         1 RES1    0.0000
     23 C9        -0.2601    0.3348    5.9102 C.3       1 RES1    0.0000
     24 H5         0.4153    0.0049    6.5392 H         1 RES1    0.0000
     25 C10       -1.1407    1.1162    6.6526 C.3       1 RES1    0.0000
     26 H6        -1.8958    1.2379    6.1801 H         1 RES1    0.0000
     27 C11       -0.3602    2.4484    6.7093 C.3       1 RES1    0.0000
     28 H7        -0.9267    3.1365    6.8321 H         1 RES1    0.0000
     29 H8         0.2288    2.4366    7.3897 H         1 RES1    0.0000
     30 C12       -1.4894    0.5556    7.9755 C.3       1 RES1    0.0000
     31 H9        -0.7348    0.4801    8.4606 H         1 RES1    0.0000
     32 H10       -1.8172   -0.2739    7.8559 H         1 RES1    0.0000
     33 C13       -2.5025    1.3597    8.7819 C.3       1 RES1    0.0000
     34 H11       -2.6625    0.9405    9.5631 H         1 RES1    0.0000
     35 H12       -3.2670    1.4323    8.3157 H         1 RES1    0.0000
     36 H13       -2.1697    2.1804    8.9457 H         1 RES1    0.0000
     37 C14        0.3768    2.6015    5.3718 C.3       1 RES1    0.0000
     38 H14       -0.1320    3.1483    4.7532 H         1 RES1    0.0000
     39 H15        1.2535    2.9971    5.4997 H         1 RES1    0.0000
     40 C15       -0.8800   -0.8816    5.2770 C.2       1 RES1    0.0000
     41 C16       -0.4053   -2.9284    4.2448 C.3       1 RES1    0.0000
     42 H16        0.3421   -3.5076    4.0791 H         1 RES1    0.0000
     43 H17       -0.7859   -2.6486    3.4082 H         1 RES1    0.0000
     44 H18       -1.0670   -3.3986    4.7563 H         1 RES1    0.0000
     45 C17       -1.4190    1.6394    6.4888 Du        2 SUP2    0.0000
     46 H19       -2.2478    1.4294    6.2053 Du        2 SUP2    0.0000
     47 C18       -1.0175    2.8901    5.8147 Du        2 SUP2    0.0000
     48 H20       -1.5499    3.0678    5.1123 Du        2 SUP2    0.0000
     49 H21       -1.0378    3.5881    6.3848 Du        2 SUP2    0.0000
     50 C19       -1.4520    1.7631    7.9881 Du        2 SUP2    0.0000
     51 H22       -0.6237    1.9585    8.2779 Du        2 SUP2    0.0000
     52 H23       -1.9904    2.4484    8.2118 Du        2 SUP2    0.0000
     53 C20       -1.9030    0.5988    8.6433 Du        2 SUP2    0.0000
     54 H24       -1.9046    0.7363    9.5316 Du        2 SUP2    0.0000
     55 H25       -1.3524   -0.0884    8.4480 Du        2 SUP2    0.0000
     56 H26       -2.7357    0.4005    8.3693 Du        2 SUP2    0.0000
@<TRIPOS>BOND
     1    1    9 2
     2    2    9 2
     3    3   10 2
     4    4   10 2
     5    5   20 2
     6    6   20 1
     7    7   40 2
     8    8   40 1
     9    9   16 1
    10   10   13 1
    11   11   12 1
    12   13   11 ar
    13   14   13 ar
    14   15   14 1
    15   16   14 ar
    16   17   16 ar
    17   18   17 1
    18   19   11 ar
    19   20   19 1
    20   21    6 1
    21   22   21 1
    22   23   21 1
    23   24   23 1
    24   25   23 1
    25   26   25 1
    26   27   25 1
    27   28   27 1
    28   29   27 1
    29   30   25 1
    30   31   30 1
    31   32   30 1
    32   33   30 1
    33   34   33 1
    34   35   33 1
    35   36   33 1
    36   37   21 1
    37   38   37 1
    38   39   37 1
    39   40   23 1
    40   41    8 1
    41   42   41 1
    42   43   41 1
    43   44   41 1
    44   17   19 ar
    45   27   37 1
@<TRIPOS>SUBSTRUCTURE
     1 RES1 1
     2 SUP2 45

@<TRIPOS>CRYSIN
   5.5000    9.8170   31.4990  90.0000  90.0000  90.0000  19 1

