# MOL2 file generated by ConQuest
# Please check atom types

@<TRIPOS>MOLECULE
ECETUE
    56    54     2
SMALL
NO_CHARGES
****
Generated from CSD

@<TRIPOS>ATOM
      1 O1         4.5509    1.0786   14.9491 O.3       1 RES1    0.0000
      2 O2         8.2880    2.8839   13.7919 O.3       1 RES1    0.0000
      3 H1         8.8547    2.5174   14.2568 H         1 RES1    0.0000
      4 O3         7.2936    0.4209   14.9184 O.3       1 RES1    0.0000
      5 H2         7.6125   -0.2897   14.6617 H         1 RES1    0.0000
      6 O4         1.1112    3.9738   14.4972 O.2       1 RES1    0.0000
      7 N1         3.4565    1.7813   15.5077 N.2       1 RES1    0.0000
      8 N2         1.7423    3.8084   16.6525 N.am      1 RES1    0.0000
      9 O5         3.3767    2.5071   19.6793 O.3       1 RES1    0.0000
     10 C1         5.5476    1.9463   14.3700 C.3       1 RES1    0.0000
     11 H3         5.9053    2.5438   15.0598 H         1 RES1    0.0000
     12 C2         3.1029    2.8227   14.8473 C.2       1 RES1    0.0000
     13 C3         1.9093    3.5930   15.3460 C.2       1 RES1    0.0000
     14 C4         4.9014    2.7567   13.2882 C.2       1 RES1    0.0000
     15 C5         3.6760    3.2020   13.5783 C.2       1 RES1    0.0000
     16 H4         3.2068    3.7394   12.9803 H         1 RES1    0.0000
     17 C6         6.6533    1.0673   13.8363 C.3       1 RES1    0.0000
     18 H5         6.2562    0.3847   13.2571 H         1 RES1    0.0000
     19 C7         7.6159    1.9071   13.0050 C.3       1 RES1    0.0000
     20 H6         8.2842    1.3140   12.6005 H         1 RES1    0.0000
     21 O6         1.3278    2.2453   18.9319 O.2       1 RES1    0.0000
     22 C8         2.7608    3.5774   17.6318 C.2       1 RES1    0.0000
     23 C9         5.0181    3.7345   18.4515 C.ar      1 RES1    0.0000
     24 C10        5.6317    3.0298   12.0714 C.2       1 RES1    0.0000
     25 H7         5.2086    3.4903   11.3835 H         1 RES1    0.0000
     26 C11        6.8966    2.6373   11.9128 C.2       1 RES1    0.0000
     27 H8         7.3374    2.8198   11.1135 H         1 RES1    0.0000
     28 C12        4.0015    4.0809   17.5195 C.2       1 RES1    0.0000
     29 H9         4.1973    4.6648   16.8236 H         1 RES1    0.0000
     30 C13        2.4017    2.7361   18.7461 C.2       1 RES1    0.0000
     31 C14        4.6711    2.9431   19.5251 C.ar      1 RES1    0.0000
     32 C15        6.3556    4.1402   18.3318 C.ar      1 RES1    0.0000
     33 H10        6.6112    4.6702   17.6105 H         1 RES1    0.0000
     34 O7         7.7536    2.6099   21.3202 O.3       1 RES1    0.0000
     35 C16        7.2912    3.7672   19.2602 C.ar      1 RES1    0.0000
     36 H11        8.1756    4.0433   19.1707 H         1 RES1    0.0000
     37 C17        5.5870    2.5722   20.4916 C.ar      1 RES1    0.0000
     38 C18        6.9123    2.9735   20.3384 C.ar      1 RES1    0.0000
     39 C19        0.5120    4.5003   17.0656 C.3       1 RES1    0.0000
     40 H12        0.5657    5.4262   16.8167 H         1 RES1    0.0000
     41 H13        0.4100    4.4299   18.0177 H         1 RES1    0.0000
     42 H14       -0.2434    4.0966   16.6314 H         1 RES1    0.0000
     43 C20        9.1141    3.0195   21.2365 C.3       1 RES1    0.0000
     44 H15        9.4615    2.7948   20.3695 H         1 RES1    0.0000
     45 H16        9.6266    2.5673   21.9114 H         1 RES1    0.0000
     46 H17        9.1732    3.9664   21.3692 H         1 RES1    0.0000
     47 O8         5.1189    2.2193   21.7453 O.3       1 RES1    0.0000
     48 C21        5.0277    0.8907   21.8427 C.3       1 RES1    0.0000
     49 H18        4.7044    0.6553   22.7166 H         1 RES1    0.0000
     50 H19        5.8941    0.5001   21.7078 H         1 RES1    0.0000
     51 H20        4.4209    0.5613   21.1770 H         1 RES1    0.0000
     52 O9         5.4712    1.3150   21.1564 Du        2 SUP2    0.0000
     53 C22        4.7061    1.5954   22.2682 Du        2 SUP2    0.0000
     54 H21        4.5832    0.7899   22.7761 Du        2 SUP2    0.0000
     55 H22        3.8620    1.9433   21.9960 Du        2 SUP2    0.0000
     56 H23        5.1689    2.2433   22.8104 Du        2 SUP2    0.0000
@<TRIPOS>BOND
     1    1    7 1
     2    2    3 1
     3    4    5 1
     4    6   13 2
     5    7   12 2
     6    8   13 1
     7    9   30 1
     8   10    1 1
     9   11   10 1
    10   12   13 1
    11   14   10 1
    12   15   12 1
    13   16   15 1
    14   17    4 1
    15   18   17 1
    16   19    2 1
    17   20   19 1
    18   21   30 2
    19   22    8 1
    20   23   28 1
    21   24   14 1
    22   25   24 1
    23   26   19 1
    24   27   26 1
    25   28   22 2
    26   29   28 1
    27   30   22 1
    28   31    9 1
    29   32   23 ar
    30   33   32 1
    31   34   38 1
    32   35   32 ar
    33   36   35 1
    34   37   31 ar
    35   38   35 ar
    36   39    8 1
    37   40   39 1
    38   41   39 1
    39   42   39 1
    40   43   34 1
    41   44   43 1
    42   45   43 1
    43   46   43 1
    44   47   37 1
    45   48   47 1
    46   49   48 1
    47   50   48 1
    48   51   48 1
    49   10   17 1
    50   14   15 2
    51   17   19 1
    52   23   31 ar
    53   24   26 2
    54   37   38 ar
@<TRIPOS>SUBSTRUCTURE
     1 RES1 1
     2 SUP2 52

@<TRIPOS>CRYSIN
  18.7697    4.8938   22.9053  90.0000  92.8600  90.0000   5 1

