# MOL2 file generated by ConQuest
# Please check atom types

@<TRIPOS>MOLECULE
ECIBIB
    19    19     1
SMALL
NO_CHARGES
****
Generated from CSD

@<TRIPOS>ATOM
      1 O1         1.6188    6.4530    1.7600 O.2       1 RES1    0.0000
      2 O2         1.5236    5.9672   -0.3521 O.2       1 RES1    0.0000
      3 N1         0.3846    7.6879    0.4122 N.3       1 RES1    0.0000
      4 N2         1.2077    6.6454    0.6203 N.pl3     1 RES1    0.0000
      5 C1        -0.1588    8.3596    1.5586 C.ar      1 RES1    0.0000
      6 C2         0.2064    9.6668    1.7805 C.ar      1 RES1    0.0000
      7 C3        -0.3467   10.3406    2.8464 C.ar      1 RES1    0.0000
      8 C4        -1.2360    9.7138    3.6700 C.ar      1 RES1    0.0000
      9 C5        -1.5924    8.4055    3.4431 C.ar      1 RES1    0.0000
     10 C6        -1.0560    7.7229    2.3783 C.ar      1 RES1    0.0000
     11 C7        -0.1482    7.8936   -0.9155 C.3       1 RES1    0.0000
     12 H1         0.8204   10.0858    1.2278 H         1 RES1    0.0000
     13 H2        -0.1147   11.2234    3.0138 H         1 RES1    0.0000
     14 H3        -1.6056   10.1733    4.3852 H         1 RES1    0.0000
     15 H4        -2.1967    7.9855    4.0184 H         1 RES1    0.0000
     16 H5        -1.2968    6.8369    2.2165 H         1 RES1    0.0000
     17 H6        -0.4764    8.7950   -0.9887 H         1 RES1    0.0000
     18 H7        -0.8646    7.2744   -1.0684 H         1 RES1    0.0000
     19 H8         0.5470    7.7558   -1.5627 H         1 RES1    0.0000
@<TRIPOS>BOND
     1    1    4 2
     2    2    4 2
     3    3    4 1
     4    5    3 1
     5    6    5 ar
     6    7    6 ar
     7    8    7 ar
     8    9    8 ar
     9   10    5 ar
    10   11    3 1
    11   12    6 1
    12   13    7 1
    13   14    8 1
    14   15    9 1
    15   16   10 1
    16   17   11 1
    17   18   11 1
    18   19   11 1
    19    9   10 ar
@<TRIPOS>SUBSTRUCTURE
     1 RES1 1

@<TRIPOS>CRYSIN
   8.8220   10.9390   15.9460  90.0000  90.0000  90.0000  61 1

