# MOL2 file generated by ConQuest
# Please check atom types

@<TRIPOS>MOLECULE
ECIHUW
    53    58     1
SMALL
NO_CHARGES
****
Generated from CSD

@<TRIPOS>ATOM
      1 O1         5.0274    7.7718   10.2057 O.2       1 RES1    0.0000
      2 O2         6.7180    3.6400    9.8484 O.2       1 RES1    0.0000
      3 O3         6.1683    5.9426    8.7354 O.3       1 RES1    0.0000
      4 O4         3.7337    5.8369    6.1092 O.3       1 RES1    0.0000
      5 N1         5.2912    8.2023    5.4328 N.3       1 RES1    0.0000
      6 N2         6.0264    5.7649   10.0899 N.am      1 RES1    0.0000
      7 C1         4.8433    9.4325    5.9008 C.ar      1 RES1    0.0000
      8 C2         4.8805    9.9396    7.1891 C.ar      1 RES1    0.0000
      9 C3         4.4379   11.2035    7.3578 C.ar      1 RES1    0.0000
     10 C4         3.9275   11.9588    6.3242 C.ar      1 RES1    0.0000
     11 C5         3.8982   11.4640    5.0640 C.ar      1 RES1    0.0000
     12 C6         4.3677   10.1893    4.8341 C.ar      1 RES1    0.0000
     13 C7         4.5590    9.3896    3.6533 C.ar      1 RES1    0.0000
     14 C8         4.3436    9.6164    2.3104 C.ar      1 RES1    0.0000
     15 C9         4.6866    8.6481    1.4090 C.ar      1 RES1    0.0000
     16 C10        5.2628    7.4670    1.8291 C.ar      1 RES1    0.0000
     17 C11        5.4681    7.1989    3.1604 C.ar      1 RES1    0.0000
     18 C12        5.1264    8.1855    4.0651 C.ar      1 RES1    0.0000
     19 C13        5.7722    7.1391    6.2630 C.3       1 RES1    0.0000
     20 C14        4.6272    6.4482    7.0188 C.3       1 RES1    0.0000
     21 C15        5.0744    5.4202    7.9548 C.3       1 RES1    0.0000
     22 C16        5.4873    6.8205   10.7928 C.2       1 RES1    0.0000
     23 C17        5.5506    6.6979   12.2580 C.ar      1 RES1    0.0000
     24 C18        5.0936    7.7044   13.0519 C.ar      1 RES1    0.0000
     25 C19        5.2181    7.6692   14.4163 C.ar      1 RES1    0.0000
     26 C20        5.8050    6.5983   15.0067 C.ar      1 RES1    0.0000
     27 C21        6.2739    5.5014   14.2310 C.ar      1 RES1    0.0000
     28 C22        6.1308    5.5765   12.8336 C.ar      1 RES1    0.0000
     29 C23        6.8809    4.3754   14.7834 C.ar      1 RES1    0.0000
     30 C24        7.3324    3.3627   14.0160 C.ar      1 RES1    0.0000
     31 C25        7.1726    3.4164   12.6368 C.ar      1 RES1    0.0000
     32 C26        6.5785    4.4980   12.0463 C.ar      1 RES1    0.0000
     33 C27        6.4577    4.5485   10.6026 C.2       1 RES1    0.0000
     34 H1         5.1950    9.4325    7.9036 H         1 RES1    0.0000
     35 H2         4.4788   11.5804    8.2079 H         1 RES1    0.0000
     36 H3         3.4616    6.3961    5.5766 H         1 RES1    0.0000
     37 H4         3.6018   12.8121    6.4929 H         1 RES1    0.0000
     38 H5         3.5667   11.9787    4.3627 H         1 RES1    0.0000
     39 H6         3.9708   10.4176    2.0210 H         1 RES1    0.0000
     40 H7         4.5304    8.7876    0.5028 H         1 RES1    0.0000
     41 H8         5.5189    6.8358    1.1957 H         1 RES1    0.0000
     42 H9         5.8225    6.3854    3.4416 H         1 RES1    0.0000
     43 H10        6.4082    7.4961    6.9030 H         1 RES1    0.0000
     44 H11        6.2343    6.4865    5.7139 H         1 RES1    0.0000
     45 H12        4.1349    7.1284    7.5215 H         1 RES1    0.0000
     46 H13        4.3434    5.1659    8.5403 H         1 RES1    0.0000
     47 H14        5.3625    4.6328    7.4669 H         1 RES1    0.0000
     48 H15        4.6856    8.4398   12.6549 H         1 RES1    0.0000
     49 H16        4.9011    8.3739   14.9339 H         1 RES1    0.0000
     50 H17        5.9030    6.5815   15.9328 H         1 RES1    0.0000
     51 H18        6.9774    4.3202   15.7079 H         1 RES1    0.0000
     52 H19        7.7494    2.6304   14.4096 H         1 RES1    0.0000
     53 H20        7.4720    2.7101   12.1108 H         1 RES1    0.0000
@<TRIPOS>BOND
     1    1   22 2
     2    2   33 2
     3    3    6 1
     4    4   20 1
     5    5    7 1
     6    6   22 1
     7    7    8 ar
     8    8    9 ar
     9    9   10 ar
    10   10   11 ar
    11   11   12 ar
    12   12    7 ar
    13   13   12 1
    14   14   13 ar
    15   15   14 ar
    16   16   15 ar
    17   17   16 ar
    18   18    5 1
    19   19    5 1
    20   20   19 1
    21   21    3 1
    22   22   23 1
    23   23   24 ar
    24   24   25 ar
    25   25   26 ar
    26   26   27 ar
    27   27   28 ar
    28   28   23 ar
    29   29   27 ar
    30   30   29 ar
    31   31   30 ar
    32   32   28 ar
    33   33    6 1
    34   34    8 1
    35   35    9 1
    36   36    4 1
    37   37   10 1
    38   38   11 1
    39   39   14 1
    40   40   15 1
    41   41   16 1
    42   42   17 1
    43   43   19 1
    44   44   19 1
    45   45   20 1
    46   46   21 1
    47   47   21 1
    48   48   24 1
    49   49   25 1
    50   50   26 1
    51   51   29 1
    52   52   30 1
    53   53   31 1
    54   13   18 ar
    55   17   18 ar
    56   20   21 1
    57   31   32 ar
    58   32   33 1
@<TRIPOS>SUBSTRUCTURE
     1 RES1 1

@<TRIPOS>CRYSIN
   7.9560   15.3200   16.6000  90.0000  94.9500  90.0000  14 1

