# MOL2 file generated by ConQuest
# Please check atom types

@<TRIPOS>MOLECULE
ECIJUV
    43    43     1
SMALL
NO_CHARGES
****
Generated from CSD

@<TRIPOS>ATOM
      1 N1         1.9308    9.3119   19.8055 N.3       1 RES1    0.0000
      2 C1         1.5410    7.9987   19.2733 C.3       1 RES1    0.0000
      3 H1         2.0102    7.2936   19.7664 H         1 RES1    0.0000
      4 H2         1.7792    7.9471   18.3244 H         1 RES1    0.0000
      5 H3         0.5736    7.8794   19.3749 H         1 RES1    0.0000
      6 C2         3.3327    9.6205   19.5693 C.3       1 RES1    0.0000
      7 C3         3.6792   11.0554   20.0869 C.3       1 RES1    0.0000
      8 H4         3.1325   11.6927   19.5437 H         1 RES1    0.0000
      9 N2         3.2178   12.7826   21.8141 N.pl3     1 RES1    0.0000
     10 O1         3.2047   13.5525   20.8778 O.2       1 RES1    0.0000
     11 O2         3.1476   13.1422   22.9739 O.2       1 RES1    0.0000
     12 C4         3.2526   11.2510   21.5525 C.3       1 RES1    0.0000
     13 C5         1.8002   10.8146   21.7367 C.3       1 RES1    0.0000
     14 H5         1.5620   10.8576   22.6975 H         1 RES1    0.0000
     15 H6         1.2043   11.4326   21.2443 H         1 RES1    0.0000
     16 C6         1.5955    9.3970   21.2252 C.3       1 RES1    0.0000
     17 H7         2.1671    8.7736   21.7392 H         1 RES1    0.0000
     18 H8         0.6517    9.1304   21.3590 H         1 RES1    0.0000
     19 O3         4.7431    9.2124   17.6680 O.2       1 RES1    0.0000
     20 C7         3.6779    9.5958   18.0628 C.2       1 RES1    0.0000
     21 O4         2.7046   10.0824   17.3283 O.3       1 RES1    0.0000
     22 C8         2.9730   10.1407   15.8891 C.3       1 RES1    0.0000
     23 H9         3.2710    9.2573   15.5575 H         1 RES1    0.0000
     24 H10        3.6799   10.8060   15.6948 H         1 RES1    0.0000
     25 C9         1.6913   10.5373   15.2392 C.3       1 RES1    0.0000
     26 H11        1.4530   11.4466   15.5148 H         1 RES1    0.0000
     27 H12        0.9825    9.9172   15.5103 H         1 RES1    0.0000
     28 H13        1.7963   10.5072   14.2663 H         1 RES1    0.0000
     29 N3         4.8028    7.7547   20.7138 N.1       1 RES1    0.0000
     30 C10        4.2148    8.5877   20.1935 C.1       1 RES1    0.0000
     31 C11        5.1454   11.4219   19.8406 C.3       1 RES1    0.0000
     32 H14        5.4591   11.9872   20.5897 H         1 RES1    0.0000
     33 H15        5.6836   10.5911   19.8473 H         1 RES1    0.0000
     34 O5         4.5226   12.4568   17.7832 O.2       1 RES1    0.0000
     35 C12        5.4112   12.1538   18.5435 C.2       1 RES1    0.0000
     36 C13        6.8472   12.4870   18.2833 C.3       1 RES1    0.0000
     37 H16        6.9154   13.0201   17.4629 H         1 RES1    0.0000
     38 H17        7.3611   11.6594   18.1782 H         1 RES1    0.0000
     39 H18        7.2055   13.0008   19.0375 H         1 RES1    0.0000
     40 C14        4.1655   10.6523   22.6070 C.3       1 RES1    0.0000
     41 H19        5.0634   11.0339   22.5152 H         1 RES1    0.0000
     42 H20        4.2089    9.6807   22.4883 H         1 RES1    0.0000
     43 H21        3.8124   10.8566   23.4983 H         1 RES1    0.0000
@<TRIPOS>BOND
     1    1    2 1
     2    2    3 1
     3    4    2 1
     4    5    2 1
     5    6    1 1
     6    7    6 1
     7    8    7 1
     8    9   10 2
     9   11    9 2
    10   12    7 1
    11   13   12 1
    12   14   13 1
    13   15   13 1
    14   16    1 1
    15   17   16 1
    16   18   16 1
    17   19   20 2
    18   20    6 1
    19   21   20 1
    20   22   21 1
    21   23   22 1
    22   24   22 1
    23   25   22 1
    24   26   25 1
    25   27   25 1
    26   28   25 1
    27   29   30 3
    28   30    6 1
    29   31    7 1
    30   32   31 1
    31   33   31 1
    32   34   35 2
    33   35   31 1
    34   36   35 1
    35   37   36 1
    36   38   36 1
    37   39   36 1
    38   40   12 1
    39   41   40 1
    40   42   40 1
    41   43   40 1
    42    9   12 1
    43   13   16 1
@<TRIPOS>SUBSTRUCTURE
     1 RES1 1

@<TRIPOS>CRYSIN
   6.5630   10.7480   22.4950  90.0000  90.0000  90.0000  19 1

