# MOL2 file generated by ConQuest
# Please check atom types

@<TRIPOS>MOLECULE
ECINEL
    80    66     2
SMALL
NO_CHARGES
****
Generated from CSD

@<TRIPOS>ATOM
      1 O1        -2.3196   -1.9497    1.4384 O.3       1 RES1    0.0000
      2 N1         2.2856    3.5186    1.8533 N.pl3     1 RES1    0.0000
      3 O2        -0.7341    3.5589    4.0773 O.2       1 RES1    0.0000
      4 O3         1.1684    3.2982    1.3958 O.2       1 RES1    0.0000
      5 O4         3.2328    3.8556    1.1840 O.2       1 RES1    0.0000
      6 C1         0.0256    2.6760    3.6706 C.2       1 RES1    0.0000
      7 C2         1.4634    2.9238    4.1091 C.ar      1 RES1    0.0000
      8 C3         2.4891    3.3991    3.3042 C.ar      1 RES1    0.0000
      9 C4         3.7361    3.7188    3.7829 C.ar      1 RES1    0.0000
     10 H1         4.4157    4.0285    3.1941 H         1 RES1    0.0000
     11 C5         3.9878    3.5834    5.1300 C.ar      1 RES1    0.0000
     12 H2         4.8469    3.7923    5.4774 H         1 RES1    0.0000
     13 C6         3.0020    3.1528    5.9645 C.ar      1 RES1    0.0000
     14 H3         3.1719    3.0764    6.8965 H         1 RES1    0.0000
     15 C7         1.7519    2.8229    5.4668 C.ar      1 RES1    0.0000
     16 H4         1.0771    2.5219    6.0641 H         1 RES1    0.0000
     17 O5         5.8771   -0.3981    3.1890 O.3       1 RES1    0.0000
     18 O6         1.5323   -0.2113    5.2169 O.3       1 RES1    0.0000
     19 O7         2.0131    0.6481    0.7858 Du        2 SUP2    0.0000
     20 H5         2.5757    0.7619    0.1737 Du        2 SUP2    0.0000
     21 C8        -1.7099   -0.8714    2.0031 C.ar      1 RES1    0.0000
     22 C9        -2.5135    0.2280    2.3269 C.ar      1 RES1    0.0000
     23 C10       -1.8841    1.3284    2.8658 C.ar      1 RES1    0.0000
     24 H6        -2.4106    2.0870    3.0861 H         1 RES1    0.0000
     25 C11       -0.5041    1.3841    3.1058 C.ar      1 RES1    0.0000
     26 C12        0.2856    0.2728    2.7830 C.ar      1 RES1    0.0000
     27 C13       -0.3292   -0.8551    2.2284 C.ar      1 RES1    0.0000
     28 C14       -3.9876    0.2123    2.0821 C.ar      1 RES1    0.0000
     29 C15       -4.6058    1.2811    1.4492 C.ar      1 RES1    0.0000
     30 H7        -4.0855    2.0207    1.1586 H         1 RES1    0.0000
     31 C16       -5.9823    1.2811    1.2359 C.ar      1 RES1    0.0000
     32 H8        -6.3952    2.0207    0.8049 H         1 RES1    0.0000
     33 C17       -6.7451    0.2124    1.6483 C.ar      1 RES1    0.0000
     34 H9        -7.6854    0.2175    1.5081 H         1 RES1    0.0000
     35 C18       -6.1435   -0.8672    2.2668 C.ar      1 RES1    0.0000
     36 H10       -6.6693   -1.6074    2.5459 H         1 RES1    0.0000
     37 C19       -4.7747   -0.8712    2.4799 C.ar      1 RES1    0.0000
     38 H11       -4.3676   -1.6189    2.9018 H         1 RES1    0.0000
     39 C20        0.4340   -2.0871    1.8707 C.ar      1 RES1    0.0000
     40 C21        0.6671   -3.0584    2.8336 C.ar      1 RES1    0.0000
     41 H12        0.4135   -2.9050    3.7363 H         1 RES1    0.0000
     42 C22        1.2737   -4.2582    2.4716 C.ar      1 RES1    0.0000
     43 H13        1.4201   -4.9315    3.1263 H         1 RES1    0.0000
     44 C23        1.6597   -4.4712    1.1779 C.ar      1 RES1    0.0000
     45 H14        2.0692   -5.2945    0.9404 H         1 RES1    0.0000
     46 C24        1.4632   -3.5094    0.2186 C.ar      1 RES1    0.0000
     47 H15        1.7503   -3.6583   -0.6757 H         1 RES1    0.0000
     48 C25        0.8387   -2.3125    0.5647 C.ar      1 RES1    0.0000
     49 H16        0.6892   -1.6477   -0.0974 H         1 RES1    0.0000
     50 C26        1.7732    0.1898    2.9552 C.ar      1 RES1    0.0000
     51 C27        2.3534   -0.0933    4.1792 C.ar      1 RES1    0.0000
     52 H17        1.7983   -0.1800    4.9457 Du        2 SUP2    0.0000
     53 C28        3.7316   -0.2548    4.3150 C.ar      1 RES1    0.0000
     54 H18        4.1176   -0.4047    5.1703 H         1 RES1    0.0000
     55 C29        4.5261   -0.1933    3.1881 C.ar      1 RES1    0.0000
     56 C30        3.9671    0.0629    1.9444 C.ar      1 RES1    0.0000
     57 H19        4.5151    0.1023    1.1692 H         1 RES1    0.0000
     58 C31        2.6082    0.2593    1.8453 C.ar      1 RES1    0.0000
     59 H20        2.2295    0.4479    0.9934 H         1 RES1    0.0000
     60 C32        6.5078   -0.6043    4.4520 C.3       1 RES1    0.0000
     61 H21        6.4208    0.2060    4.9966 H         1 RES1    0.0000
     62 H22        7.4578   -0.8051    4.3145 H         1 RES1    0.0000
     63 H23        6.0778   -1.3553    4.9140 H         1 RES1    0.0000
     64 H24        1.9234   -0.4321    5.8036 H         1 RES1    0.0000
     65 H25       -1.7471   -2.5205    1.2433 H         1 RES1    0.0000
     66 C33       -0.1234    2.6083    3.8359 Du        2 SUP2    0.0000
     67 C34        1.3207    2.8042    4.1875 Du        2 SUP2    0.0000
     68 C35        2.3176    3.2248    3.3148 Du        2 SUP2    0.0000
     69 C36        3.6047    3.4538    3.7871 Du        2 SUP2    0.0000
     70 C37        3.8948    3.2622    5.1343 Du        2 SUP2    0.0000
     71 C38        2.8979    2.8431    6.0069 Du        2 SUP2    0.0000
     72 C39        1.6108    2.6141    5.5346 Du        2 SUP2    0.0000
     73 H26        4.2859    3.7404    3.1920 Du        2 SUP2    0.0000
     74 H27        4.7731    3.4192    5.4562 Du        2 SUP2    0.0000
     75 H28        3.0950    2.7120    6.9262 Du        2 SUP2    0.0000
     76 H29        0.9296    2.3261    6.1298 Du        2 SUP2    0.0000
     77 N2         2.0131    3.6295    1.9465 Du        2 SUP2    0.0000
     78 O8        -0.9537    3.4855    3.8359 Du        2 SUP2    0.0000
     79 O9         0.8303    3.7577    1.6775 Du        2 SUP2    0.0000
     80 O10        2.8642    3.7145    1.0908 Du        2 SUP2    0.0000
@<TRIPOS>BOND
     1    1   21 1
     2    2    4 2
     3    3    6 2
     4    5    2 2
     5    6    7 1
     6    7    8 ar
     7    8    2 1
     8    9    8 ar
     9   10    9 1
    10   11    9 ar
    11   12   11 1
    12   13   11 ar
    13   14   13 1
    14   15    7 ar
    15   16   15 1
    16   17   55 1
    17   18   51 1
    18   21   22 ar
    19   22   23 ar
    20   23   24 1
    21   25    6 1
    22   26   25 ar
    23   27   21 ar
    24   28   22 1
    25   29   28 ar
    26   30   29 1
    27   31   29 ar
    28   32   31 1
    29   33   31 ar
    30   34   33 1
    31   35   33 ar
    32   36   35 1
    33   37   28 ar
    34   38   37 1
    35   39   27 1
    36   40   39 ar
    37   41   40 1
    38   42   40 ar
    39   43   42 1
    40   44   42 ar
    41   45   44 1
    42   46   44 ar
    43   47   46 1
    44   48   39 ar
    45   49   48 1
    46   50   26 1
    47   51   50 ar
    48   53   51 ar
    49   54   53 1
    50   55   53 ar
    51   56   55 ar
    52   57   56 1
    53   58   50 ar
    54   59   58 1
    55   60   17 1
    56   61   60 1
    57   62   60 1
    58   63   60 1
    59   64   18 1
    60   65    1 1
    61   13   15 ar
    62   23   25 ar
    63   26   27 ar
    64   35   37 ar
    65   46   48 ar
    66   56   58 ar
@<TRIPOS>SUBSTRUCTURE
     1 RES1 1
     2 SUP2 19

@<TRIPOS>CRYSIN
  16.0280   14.4028   21.1809  90.0000  90.0000  90.0000  61 1

