# MOL2 file generated by ConQuest
# Please check atom types

@<TRIPOS>MOLECULE
ECIQIQ
    44    41     2
SMALL
NO_CHARGES
****
Generated from CSD

@<TRIPOS>ATOM
      1 O1        -3.0394   -2.4097   13.6731 O.3       1 RES1    0.0000
      2 H1        -3.1188   -2.8833   14.3715 H         1 RES1    0.0000
      3 O2        -0.9718    0.5701   14.0946 O.3       1 RES1    0.0000
      4 H2        -0.3741    0.5861   13.4932 H         1 RES1    0.0000
      5 O3        -0.2684    1.5073    7.1001 O.2       1 RES1    0.0000
      6 O4         0.0001   -0.3017    5.7655 O.3       1 RES1    0.0000
      7 N1        -2.7135   -0.0966   11.5585 N.pl3     1 RES1    0.0000
      8 N2        -0.2207   -1.7291    5.8215 N.2       1 RES1    0.0000
      9 C1        -3.2938    0.1067   12.9127 C.3       1 RES1    0.0000
     10 H3        -4.1849   -0.2658   12.8766 H         1 RES1    0.0000
     11 H4        -3.3483    1.0924   13.0638 H         1 RES1    0.0000
     12 C2        -2.8931   -1.2853   10.9217 C.2       1 RES1    0.0000
     13 H5        -3.4325   -1.9537   11.3268 H         1 RES1    0.0000
     14 C3        -2.3124   -1.5366    9.7094 C.2       1 RES1    0.0000
     15 H6        -2.4434   -2.3803    9.2927 H         1 RES1    0.0000
     16 C4        -1.5164   -0.5543    9.0652 C.2       1 RES1    0.0000
     17 C5        -1.3901    0.6860    9.7463 C.2       1 RES1    0.0000
     18 H7        -0.8925    1.3903    9.3477 H         1 RES1    0.0000
     19 C6        -1.9753    0.8805   10.9696 C.2       1 RES1    0.0000
     20 H8        -1.8630    1.7123   11.4138 H         1 RES1    0.0000
     21 C7        -0.9025   -0.7678    7.7848 C.2       1 RES1    0.0000
     22 C8        -0.7571   -1.9614    7.0013 C.2       1 RES1    0.0000
     23 C9        -0.3908    0.2762    6.9631 C.2       1 RES1    0.0000
     24 C10       -1.0543   -3.3880    7.3305 C.ar      1 RES1    0.0000
     25 C11       -0.5527   -3.9773    8.5010 C.ar      1 RES1    0.0000
     26 H9        -0.0574   -3.4556    9.1214 H         1 RES1    0.0000
     27 C12       -0.7814   -5.3315    8.7520 C.ar      1 RES1    0.0000
     28 H10       -0.4494   -5.7274    9.5490 H         1 RES1    0.0000
     29 C13       -1.4944   -6.1044    7.8379 C.ar      1 RES1    0.0000
     30 H11       -1.6367   -7.0286    8.0081 H         1 RES1    0.0000
     31 C14       -1.9973   -5.5282    6.6786 C.ar      1 RES1    0.0000
     32 H12       -2.4849   -6.0570    6.0582 H         1 RES1    0.0000
     33 C15       -1.7855   -4.1696    6.4247 C.ar      1 RES1    0.0000
     34 H13       -2.1383   -3.7752    5.6359 H         1 RES1    0.0000
     35 C16       -1.8297   -1.6704   13.8924 C.3       1 RES1    0.0000
     36 H14       -1.2028   -1.7961   13.1366 H         1 RES1    0.0000
     37 H15       -1.3863   -1.9688   14.7263 H         1 RES1    0.0000
     38 C17       -2.2463   -0.2191   14.0024 C.3       1 RES1    0.0000
     39 H16       -2.7088   -0.1201   14.8833 H         1 RES1    0.0000
     40 C18       -1.2353   -0.8653   14.0033 Du        2 SUP2    0.0000
     41 H17       -0.8671   -1.3429   14.7875 Du        2 SUP2    0.0000
     42 H18       -0.8409   -1.2462   13.1792 Du        2 SUP2    0.0000
     43 C19       -2.7509   -0.9588   13.9731 Du        2 SUP2    0.0000
     44 H19       -3.1119   -0.7328   14.8780 Du        2 SUP2    0.0000
@<TRIPOS>BOND
     1    1    2 1
     2    3    4 1
     3    5   23 2
     4    6    8 1
     5    7    9 1
     6    8   22 2
     7    9   10 1
     8   11    9 1
     9   12    7 1
    10   13   12 1
    11   14   12 2
    12   15   14 1
    13   16   14 1
    14   17   16 1
    15   18   17 1
    16   19    7 1
    17   20   19 1
    18   21   16 2
    19   22   21 1
    20   23    6 1
    21   24   22 1
    22   25   24 ar
    23   26   25 1
    24   27   25 ar
    25   28   27 1
    26   29   27 ar
    27   30   29 1
    28   31   29 ar
    29   32   31 1
    30   33   24 ar
    31   34   33 1
    32   35    1 1
    33   36   35 1
    34   37   35 1
    35   38    3 1
    36   39   38 1
    37    9   38 1
    38   17   19 2
    39   21   23 1
    40   31   33 ar
    41   35   38 1
@<TRIPOS>SUBSTRUCTURE
     1 RES1 1
     2 SUP2 40

@<TRIPOS>CRYSIN
   7.9870   10.3000   10.8060 118.3080 106.1210  94.7520   2 1

