# MOL2 file generated by ConQuest
# Please check atom types

@<TRIPOS>MOLECULE
ECUPIE
    49    51     1
SMALL
NO_CHARGES
****
Generated from CSD

@<TRIPOS>ATOM
      1 O1         4.7273    8.7638    5.9630 O.3       1 RES1    0.0000
      2 O2         2.6807   14.2850    6.5553 O.2       1 RES1    0.0000
      3 N1         4.0890   12.5598    6.6602 N.am      1 RES1    0.0000
      4 C1         3.1016    7.6888    7.3842 C.ar      1 RES1    0.0000
      5 C2         2.5742   10.5159    3.8867 C.ar      1 RES1    0.0000
      6 C3         3.3518    8.5695    6.1846 C.3       1 RES1    0.0000
      7 H1         2.9553    8.1520    5.3920 H         1 RES1    0.0000
      8 C4         2.9884   10.8980    5.2581 C.2       1 RES1    0.0000
      9 C5         3.6268   13.7290    7.1082 C.2       1 RES1    0.0000
     10 C6         2.7195    9.9450    6.3944 C.3       1 RES1    0.0000
     11 H2         1.7605    9.8383    6.4978 H         1 RES1    0.0000
     12 H3         3.0640   10.3290    7.2162 H         1 RES1    0.0000
     13 C7         3.3686   10.8167    2.8053 C.ar      1 RES1    0.0000
     14 H4         4.1842   11.2421    2.9409 H         1 RES1    0.0000
     15 C8         3.5537   12.0792    5.4347 C.2       1 RES1    0.0000
     16 H5         3.6065   12.6413    4.6954 H         1 RES1    0.0000
     17 C9         1.9814    6.8911    7.4550 C.ar      1 RES1    0.0000
     18 H6         1.4047    6.8501    6.7264 H         1 RES1    0.0000
     19 C10        2.5814    6.1999    9.6218 C.ar      1 RES1    0.0000
     20 C11        3.9749    7.6704    8.4417 C.ar      1 RES1    0.0000
     21 H7         4.7557    8.1733    8.3960 H         1 RES1    0.0000
     22 C12        1.3862    9.8672    3.6410 C.ar      1 RES1    0.0000
     23 H8         0.8309    9.6424    4.3515 H         1 RES1    0.0000
     24 N2         2.2910    5.4661   10.8626 N.pl3     1 RES1    0.0000
     25 C13        5.3498   11.9470    7.1213 C.3       1 RES1    0.0000
     26 H9         6.0737   12.2296    6.5414 H         1 RES1    0.0000
     27 H10        5.2768   10.9823    7.0616 H         1 RES1    0.0000
     28 C14        1.0099    9.5512    2.3584 C.ar      1 RES1    0.0000
     29 H11        0.2039    9.1122    2.2095 H         1 RES1    0.0000
     30 C15        5.6031   13.8035    8.7058 C.3       1 RES1    0.0000
     31 H12        6.2777   14.2288    8.1544 H         1 RES1    0.0000
     32 H13        5.7886   14.0207    9.6324 H         1 RES1    0.0000
     33 C16        1.7003    6.1573    8.5754 C.ar      1 RES1    0.0000
     34 H14        0.9278    5.6423    8.6246 H         1 RES1    0.0000
     35 C17        1.8017    9.8718    1.3100 C.ar      1 RES1    0.0000
     36 H15        1.5388    9.6606    0.4441 H         1 RES1    0.0000
     37 C18        2.9800   10.4992    1.5316 C.ar      1 RES1    0.0000
     38 H16        3.5288   10.7180    0.8141 H         1 RES1    0.0000
     39 C19        4.2526   14.3215    8.3318 C.3       1 RES1    0.0000
     40 H17        4.3222   15.2801    8.2023 H         1 RES1    0.0000
     41 H18        3.6538   14.1726    9.0795 H         1 RES1    0.0000
     42 O3         1.1564    5.0301   11.0006 O.2       1 RES1    0.0000
     43 C20        3.7207    6.9260    9.5669 C.ar      1 RES1    0.0000
     44 H19        4.3203    6.9215   10.2768 H         1 RES1    0.0000
     45 O4         3.1440    5.3947   11.7017 O.2       1 RES1    0.0000
     46 C21        5.6684   12.3268    8.5194 C.3       1 RES1    0.0000
     47 H20        6.5586   12.0138    8.7443 H         1 RES1    0.0000
     48 H21        5.0395   11.8984    9.1209 H         1 RES1    0.0000
     49 H22        5.0661    8.1429    5.5465 H         1 RES1    0.0000
@<TRIPOS>BOND
     1    1    6 1
     2    2    9 2
     3    3    9 1
     4    4    6 1
     5    5    8 1
     6    6    7 1
     7    8   10 1
     8    9   39 1
     9   10    6 1
    10   11   10 1
    11   12   10 1
    12   13    5 ar
    13   14   13 1
    14   15    3 1
    15   16   15 1
    16   17    4 ar
    17   18   17 1
    18   19   24 1
    19   20    4 ar
    20   21   20 1
    21   22    5 ar
    22   23   22 1
    23   24   42 2
    24   25    3 1
    25   26   25 1
    26   27   25 1
    27   28   22 ar
    28   29   28 1
    29   30   31 1
    30   32   30 1
    31   33   17 ar
    32   34   33 1
    33   35   28 ar
    34   36   35 1
    35   37   13 ar
    36   38   37 1
    37   39   30 1
    38   40   39 1
    39   41   39 1
    40   43   19 ar
    41   44   43 1
    42   45   24 2
    43   46   25 1
    44   47   46 1
    45   48   46 1
    46   49    1 1
    47    8   15 2
    48   19   33 ar
    49   20   43 ar
    50   30   46 1
    51   35   37 ar
@<TRIPOS>SUBSTRUCTURE
     1 RES1 1

@<TRIPOS>CRYSIN
   5.6474   15.1920   21.7900  90.0000  92.5610  90.0000 231 1

