# MOL2 file generated by ConQuest
# Please check atom types

@<TRIPOS>MOLECULE
ECUXUW
    18    18     1
SMALL
NO_CHARGES
****
Generated from CSD

@<TRIPOS>ATOM
      1 C1         1.2826    2.1546    7.1144 C.3       1 RES1    0.0000
      2 N1         1.6933    0.7041    6.9282 N.pl3     1 RES1    0.0000
      3 O1         0.9867   -0.1126    7.4995 O.2       1 RES1    0.0000
      4 O2         2.6696    0.4489    6.2410 O.2       1 RES1    0.0000
      5 N2         2.2796    2.9432    6.3141 N.pl3     1 RES1    0.0000
      6 O3         3.3137    3.2533    6.8839 O.2       1 RES1    0.0000
      7 O4         1.9905    3.1935    5.1523 O.2       1 RES1    0.0000
      8 C2         1.0938    2.5203    8.5950 C.3       1 RES1    0.0000
      9 H1         1.3246    3.4440    8.7377 H         1 RES1    0.0000
     10 H2         1.5175    1.9615    9.2215 H         1 RES1    0.0000
     11 C3        -0.4266    2.3046    8.3663 C.3       1 RES1    0.0000
     12 H3        -0.7535    1.4939    8.6933 H         1 RES1    0.0000
     13 N3        -1.3047    3.3617    8.9719 N.pl3     1 RES1    0.0000
     14 O5        -1.6963    3.1593   10.1185 O.2       1 RES1    0.0000
     15 O6        -1.5694    4.3622    8.3182 O.2       1 RES1    0.0000
     16 C4        -0.2146    2.3780    6.8437 C.3       1 RES1    0.0000
     17 H4        -0.6537    1.7334    6.3010 H         1 RES1    0.0000
     18 H5        -0.3641    3.2672    6.5035 H         1 RES1    0.0000
@<TRIPOS>BOND
     1    1    2 1
     2    2    3 2
     3    4    2 2
     4    5    1 1
     5    6    5 2
     6    7    5 2
     7    8    1 1
     8    9    8 1
     9   10    8 1
    10   11    8 1
    11   12   11 1
    12   13   11 1
    13   14   13 2
    14   15   13 2
    15   16    1 1
    16   17   16 1
    17   18   16 1
    18   11   16 1
@<TRIPOS>SUBSTRUCTURE
     1 RES1 1

@<TRIPOS>CRYSIN
  11.5549    5.7020   11.2972  90.0000 106.6300  90.0000  14 1

