# MOL2 file generated by ConQuest
# Please check atom types

@<TRIPOS>MOLECULE
ECUZIM
    70    62     3
SMALL
NO_CHARGES
****
Generated from CSD

@<TRIPOS>ATOM
      1 C1         4.1946    3.6209    3.0286 C.ar      1 RES1    0.0000
      2 H1         4.1975    3.2715    2.1447 H         1 RES1    0.0000
      3 C2         5.3006    3.4498    3.8148 C.ar      1 RES1    0.0000
      4 H2         6.0584    2.9919    3.4706 H         1 RES1    0.0000
      5 C3         5.3239    3.9446    5.1212 C.ar      1 RES1    0.0000
      6 H3         6.0951    3.8289    5.6630 H         1 RES1    0.0000
      7 C4         4.2250    4.5978    5.6153 C.ar      1 RES1    0.0000
      8 H4         4.2362    4.9354    6.5025 H         1 RES1    0.0000
      9 C5        -0.3176    6.0457    5.3970 C.ar      1 RES1    0.0000
     10 H5        -0.2093    6.3638    6.2853 H         1 RES1    0.0000
     11 C6        -1.5429    6.1096    4.7921 C.ar      1 RES1    0.0000
     12 H6        -2.2842    6.4682    5.2645 H         1 RES1    0.0000
     13 C7        -1.7079    5.6535    3.4956 C.ar      1 RES1    0.0000
     14 H7        -2.5614    5.6884    3.0807 H         1 RES1    0.0000
     15 C8        -0.6254    5.1484    2.8125 C.ar      1 RES1    0.0000
     16 H8        -0.7468    4.8477    1.9199 H         1 RES1    0.0000
     17 C9         1.8415    4.5333    2.6844 C.2       1 RES1    0.0000
     18 N1         1.9944    5.4126    5.3492 N.pl3     1 RES1    0.0000
     19 H9         2.0817    5.6665    6.1680 H         1 RES1    0.0000
     20 C10        3.0514    4.3019    3.4934 C.ar      1 RES1    0.0000
     21 C11        3.0865    4.7700    4.8204 C.ar      1 RES1    0.0000
     22 C12        0.7784    5.5089    4.7053 C.ar      1 RES1    0.0000
     23 C13        0.6548    5.0637    3.3935 C.ar      1 RES1    0.0000
     24 N2         1.5102    4.4230    1.4171 N.2       1 RES1    0.0000
     25 O1         2.6452    3.9433    0.6711 O.3       1 RES1    0.0000
     26 C14        2.3069    4.1107   -0.7145 C.3       1 RES1    0.0000
     27 H10        3.0349    3.8028   -1.2586 H         1 RES1    0.0000
     28 H11        1.5174    3.6041   -0.9187 H         1 RES1    0.0000
     29 H12        2.1450    5.0400   -0.8926 H         1 RES1    0.0000
     30 N3         2.3617    4.1479    1.4258 Du        3 SUP3    0.0000
     31 O2         1.2962    4.2958    0.5592 Du        3 SUP3    0.0000
     32 C15        1.8959    3.9927   -0.7819 Du        3 SUP3    0.0000
     33 H13        1.2271    4.1156   -1.4606 Du        3 SUP3    0.0000
     34 H14        2.6249    4.6003   -0.9426 Du        3 SUP3    0.0000
     35 H15        2.2164    3.0928   -0.8036 Du        3 SUP3    0.0000
     36 C16        4.4037    7.9128    7.9315 C.ar      2 RES2    0.0000
     37 H16        4.8983    8.6296    7.5525 H         2 RES2    0.0000
     38 C17        3.0378    7.9379    7.8436 C.ar      2 RES2    0.0000
     39 H17        2.6032    8.6634    7.4124 H         2 RES2    0.0000
     40 C18        2.2816    6.8970    8.3865 C.ar      2 RES2    0.0000
     41 H18        1.3327    6.9094    8.3300 H         2 RES2    0.0000
     42 C19        2.9305    5.8552    9.0033 C.ar      2 RES2    0.0000
     43 H19        2.4257    5.1366    9.3671 H         2 RES2    0.0000
     44 C20        6.8302    3.6893   10.7343 C.ar      2 RES2    0.0000
     45 H20        6.2553    2.9957   11.0361 H         2 RES2    0.0000
     46 C21        8.1573    3.6414   11.0470 C.ar      2 RES2    0.0000
     47 H21        8.5003    2.9216   11.5628 H         2 RES2    0.0000
     48 C22        8.9999    4.6506   10.6072 C.ar      2 RES2    0.0000
     49 H22        9.9232    4.6331   10.8320 H         2 RES2    0.0000
     50 C23        8.4991    5.6690    9.8503 C.ar      2 RES2    0.0000
     51 H23        9.0910    6.3481    9.5506 H         2 RES2    0.0000
     52 C24        6.5605    6.8325    8.6754 C.2       2 RES2    0.0000
     53 N4         4.9495    4.7841    9.7222 N.pl3     2 RES2    0.0000
     54 H24        4.4962    4.0471    9.9470 H         2 RES2    0.0000
     55 C25        5.0982    6.8777    8.5559 C.ar      2 RES2    0.0000
     56 C26        4.3229    5.8398    9.1021 C.ar      2 RES2    0.0000
     57 C27        6.3027    4.7333    9.9828 C.ar      2 RES2    0.0000
     58 C28        7.1405    5.7576    9.4963 C.ar      2 RES2    0.0000
     59 N5         7.5831    7.4797    8.1986 Du        3 SUP3    0.0000
     60 O3         7.0794    8.5198    7.4059 Du        3 SUP3    0.0000
     61 C29        8.1969    9.2716    6.8923 Du        3 SUP3    0.0000
     62 H25        7.8850    9.9401    6.2777 Du        3 SUP3    0.0000
     63 H26        8.6556    9.6964    7.6209 Du        3 SUP3    0.0000
     64 H27        8.7993    8.6765    6.4384 Du        3 SUP3    0.0000
     65 N6         7.0597    7.8782    7.9793 N.2       2 RES2    0.0000
     66 O4         8.4735    7.9521    8.0629 O.3       2 RES2    0.0000
     67 C30        8.8895    9.0621    7.2615 C.3       2 RES2    0.0000
     68 H28        9.8418    9.1639    7.3267 H         2 RES2    0.0000
     69 H29        8.6474    8.9032    6.3461 H         2 RES2    0.0000
     70 H30        8.4602    9.8641    7.5710 H         2 RES2    0.0000
@<TRIPOS>BOND
     1    1    2 1
     2    3    1 ar
     3    4    3 1
     4    5    3 ar
     5    6    5 1
     6    7    5 ar
     7    8    7 1
     8    9   10 1
     9   11    9 ar
    10   12   11 1
    11   13   11 ar
    12   14   13 1
    13   15   13 ar
    14   16   15 1
    15   17   20 1
    16   18   19 1
    17   20    1 ar
    18   21    7 ar
    19   22    9 ar
    20   23   15 ar
    21   24   17 2
    22   25   24 1
    23   26   25 1
    24   27   26 1
    25   28   26 1
    26   29   26 1
    27   36   37 1
    28   38   36 ar
    29   39   38 1
    30   40   38 ar
    31   41   40 1
    32   42   40 ar
    33   43   42 1
    34   44   45 1
    35   46   44 ar
    36   47   46 1
    37   48   46 ar
    38   49   48 1
    39   50   48 ar
    40   51   50 1
    41   52   55 1
    42   53   54 1
    43   55   36 ar
    44   56   42 ar
    45   57   44 ar
    46   58   50 ar
    47   65   52 2
    48   66   65 1
    49   67   66 1
    50   68   67 1
    51   69   67 1
    52   70   67 1
    53   17   23 1
    54   18   21 1
    55   18   22 1
    56   20   21 ar
    57   22   23 ar
    58   52   58 1
    59   53   56 1
    60   53   57 1
    61   55   56 ar
    62   57   58 ar
@<TRIPOS>SUBSTRUCTURE
     1 RES1 1
     2 RES2 36
     3 SUP3 30

@<TRIPOS>CRYSIN
   9.7110   10.8300   11.8670 106.4900 102.6800 102.2900   2 1

