# MOL2 file generated by ConQuest
# Please check atom types

@<TRIPOS>MOLECULE
EDAMOO
    32    32     1
SMALL
NO_CHARGES
****
Generated from CSD

@<TRIPOS>ATOM
      1 O1         5.7851    2.6421    7.9708 O.2       1 RES1    0.0000
      2 O2         5.2444    1.0939    9.4098 O.2       1 RES1    0.0000
      3 N1         4.9113    2.0877    8.6721 N.pl3     1 RES1    0.0000
      4 N2         2.7594    0.7537   10.1057 N.3       1 RES1    0.0000
      5 H1         3.5719    0.4291   10.2026 H         1 RES1    0.0000
      6 C1         3.6012    2.5316    8.6652 C.2       1 RES1    0.0000
      7 C2         2.6233    1.8328    9.3710 C.2       1 RES1    0.0000
      8 H2         1.7425    2.1841    9.3125 H         1 RES1    0.0000
      9 C3         1.6711    0.0504   10.7717 C.3       1 RES1    0.0000
     10 H3         0.8106    0.4817   10.5396 H         1 RES1    0.0000
     11 H4         1.7901    0.1134   11.7521 H         1 RES1    0.0000
     12 C4         1.6390    4.9313    6.5255 C.ar      1 RES1    0.0000
     13 H5         0.8058    4.9373    6.0704 H         1 RES1    0.0000
     14 C5         2.0341    3.7834    7.1960 C.ar      1 RES1    0.0000
     15 H6         1.4723    3.0178    7.1860 H         1 RES1    0.0000
     16 C6         2.4317    6.0756    6.5032 C.ar      1 RES1    0.0000
     17 C7         1.6306   -1.3985   10.3632 C.3       1 RES1    0.0000
     18 H7         2.5233   -1.8002   10.5131 H         1 RES1    0.0000
     19 H8         1.4331   -1.4555    9.3948 H         1 RES1    0.0000
     20 C8         4.0469    4.8854    7.8685 C.ar      1 RES1    0.0000
     21 H9         4.8753    4.8884    8.3335 H         1 RES1    0.0000
     22 C9         3.6422    6.0208    7.1795 C.ar      1 RES1    0.0000
     23 H10        4.2099    6.7826    7.1714 H         1 RES1    0.0000
     24 C10        1.9937    7.3059    5.7679 C.3       1 RES1    0.0000
     25 H11        1.0284    7.4289    5.8833 H         1 RES1    0.0000
     26 H12        2.1996    7.2080    4.8154 H         1 RES1    0.0000
     27 H13        2.4662    8.0863    6.1261 H         1 RES1    0.0000
     28 C11        0.5916   -2.2026   11.1299 C.3       1 RES1    0.0000
     29 H14        0.7165   -3.1571   10.9455 H         1 RES1    0.0000
     30 H15       -0.3059   -1.9299   10.8460 H         1 RES1    0.0000
     31 H16        0.6951   -2.0388   12.0904 H         1 RES1    0.0000
     32 C12        3.2494    3.7374    7.8862 C.ar      1 RES1    0.0000
@<TRIPOS>BOND
     1    1    3 2
     2    2    3 2
     3    3    6 1
     4    4    5 1
     5    6    7 2
     6    7    4 1
     7    8    7 1
     8    9    4 1
     9   10    9 1
    10   11    9 1
    11   12   13 1
    12   14   12 ar
    13   15   14 1
    14   16   12 ar
    15   17    9 1
    16   18   17 1
    17   19   17 1
    18   20   21 1
    19   22   16 ar
    20   23   22 1
    21   24   16 1
    22   25   24 1
    23   26   24 1
    24   27   24 1
    25   28   17 1
    26   29   28 1
    27   30   28 1
    28   31   28 1
    29   32    6 1
    30   14   32 ar
    31   20   22 ar
    32   20   32 ar
@<TRIPOS>SUBSTRUCTURE
     1 RES1 1

@<TRIPOS>CRYSIN
  11.9025    7.4111   13.2657  90.0000  90.0000  90.0000  33 1

