# MOL2 file generated by ConQuest
# Please check atom types

@<TRIPOS>MOLECULE
EDASEH
    28    23     2
SMALL
NO_CHARGES
****
Generated from CSD

@<TRIPOS>ATOM
      1 C1         5.6771    1.4157    1.6625 C.3       1 RES1    0.0000
      2 H1         5.8465    1.6238    2.6050 H         1 RES1    0.0000
      3 N1         4.5653    2.1581    1.1954 N.pl3     1 RES1    0.0000
      4 C2         4.4689    2.4437   -0.2508 C.3       1 RES1    0.0000
      5 H2         4.4777    1.6171   -0.7580 H         1 RES1    0.0000
      6 H3         3.6435    2.9156   -0.4457 H         1 RES1    0.0000
      7 C3         5.6215    3.2687   -0.6053 C.3       1 RES1    0.0000
      8 H4         5.5660    4.1248   -0.1527 H         1 RES1    0.0000
      9 H5         5.6288    3.4305   -1.5616 H         1 RES1    0.0000
     10 N2         6.8618    2.5651   -0.2025 N.3       1 RES1    0.0000
     11 C4         6.9626    1.6154    0.8416 C.3       1 RES1    0.0000
     12 H6         7.7077    1.8471    1.4351 H         1 RES1    0.0000
     13 O1         7.1803    0.3017    0.2640 O.3       1 RES1    0.0000
     14 C5         6.3155   -0.5890    0.7483 C.2       1 RES1    0.0000
     15 O2         6.3754   -1.7443    0.5244 O.2       1 RES1    0.0000
     16 O3         5.4009    0.0017    1.5098 O.3       1 RES1    0.0000
     17 C6         4.5609    3.0572    0.0449 Du        2 SUP2    0.0000
     18 H7         3.6829    3.0479   -0.3676 Du        2 SUP2    0.0000
     19 H8         4.7421    3.9622    0.3434 Du        2 SUP2    0.0000
     20 C7         5.5616    2.6620   -0.9390 Du        2 SUP2    0.0000
     21 H9         5.6215    3.3235   -1.6466 Du        2 SUP2    0.0000
     22 H10        5.3308    1.8067   -1.3329 Du        2 SUP2    0.0000
     23 N3         3.7764    2.7580    2.1655 N.pl3     1 RES1    0.0000
     24 O4         2.9759    3.5973    1.7647 O.2       1 RES1    0.0000
     25 O5         3.9167    2.3915    3.3021 O.2       1 RES1    0.0000
     26 N4         7.9531    3.3504   -0.4360 N.pl3     1 RES1    0.0000
     27 O6         7.7997    4.3085   -1.1726 O.2       1 RES1    0.0000
     28 O7         8.9991    3.0437    0.0878 O.2       1 RES1    0.0000
@<TRIPOS>BOND
     1    1    2 1
     2    3    1 1
     3    4    3 1
     4    5    4 1
     5    6    4 1
     6    7    4 1
     7    8    7 1
     8    9    7 1
     9   10    7 1
    10   11    1 1
    11   12   11 1
    12   13   11 1
    13   14   13 1
    14   15   14 2
    15   16    1 1
    16   23    3 1
    17   24   23 2
    18   25   23 2
    19   26   10 1
    20   27   26 2
    21   28   26 2
    22   10   11 1
    23   14   16 1
@<TRIPOS>SUBSTRUCTURE
     1 RES1 1
     2 SUP2 17

@<TRIPOS>CRYSIN
  14.6090    8.4266    6.9097  90.0000  90.0000  90.0000  33 1

