# MOL2 file generated by ConQuest
# Please check atom types

@<TRIPOS>MOLECULE
EDETOX
    60    64     1
SMALL
NO_CHARGES
****
Generated from CSD

@<TRIPOS>ATOM
      1 O1         6.2794    7.2791    7.4845 O.2       1 RES1    0.0000
      2 O2         5.1570    5.9923   17.9998 O.3       1 RES1    0.0000
      3 O3         5.7666    7.8361   19.1098 O.2       1 RES1    0.0000
      4 O4         7.4943    2.0285   23.0218 O.2       1 RES1    0.0000
      5 O5         7.6511    3.7272   24.3234 O.2       1 RES1    0.0000
      6 N1         7.3789    3.2151   23.2647 N.pl3     1 RES1    0.0000
      7 C1         5.8940    6.7820    8.5387 C.2       1 RES1    0.0000
      8 C2         4.6954    7.2260    9.2143 C.2       1 RES1    0.0000
      9 H1         4.1870    7.8937    8.8141 H         1 RES1    0.0000
     10 C3         4.2773    6.7301   10.3796 C.2       1 RES1    0.0000
     11 C4         2.9524    7.1130   10.9605 C.3       1 RES1    0.0000
     12 H2         2.3482    6.3565   10.9041 H         1 RES1    0.0000
     13 H3         2.5736    7.8384   10.4413 H         1 RES1    0.0000
     14 C5         3.0787    7.5501   12.4184 C.3       1 RES1    0.0000
     15 H4         3.5577    8.3931   12.4588 H         1 RES1    0.0000
     16 H5         2.1926    7.6919   12.7874 H         1 RES1    0.0000
     17 C6         3.8070    6.5237   13.2542 C.3       1 RES1    0.0000
     18 H6         3.2725    5.7026   13.2662 H         1 RES1    0.0000
     19 C7         4.0117    6.9769   14.6881 C.3       1 RES1    0.0000
     20 H7         4.6039    7.7553   14.6354 H         1 RES1    0.0000
     21 C8         2.8251    7.4209   15.5258 C.3       1 RES1    0.0000
     22 H8         2.0750    6.8155   15.4163 H         1 RES1    0.0000
     23 H9         2.5442    8.3181   15.2838 H         1 RES1    0.0000
     24 C9         3.3661    7.3805   16.9807 C.3       1 RES1    0.0000
     25 H10        3.3944    8.2708   17.3632 H         1 RES1    0.0000
     26 H11        2.8087    6.8166   17.5399 H         1 RES1    0.0000
     27 C10        4.7727    6.7982   16.8502 C.3       1 RES1    0.0000
     28 H12        5.4161    7.5293   16.7396 H         1 RES1    0.0000
     29 C11        4.7411    5.9632   15.5762 C.3       1 RES1    0.0000
     30 C12        6.0900    5.6415   14.9633 C.3       1 RES1    0.0000
     31 H13        6.5189    4.9404   15.4781 H         1 RES1    0.0000
     32 H14        6.6561    6.4291   14.9994 H         1 RES1    0.0000
     33 C13        5.9408    5.1883   13.5084 C.3       1 RES1    0.0000
     34 H15        6.8215    5.0499   13.1284 H         1 RES1    0.0000
     35 H16        5.4727    4.3384   13.4888 H         1 RES1    0.0000
     36 C14        5.1777    6.1962   12.6475 C.3       1 RES1    0.0000
     37 H17        5.6970    7.0265   12.6585 H         1 RES1    0.0000
     38 C15        5.0884    5.7464   11.1806 C.3       1 RES1    0.0000
     39 H18        4.6312    4.8804   11.1550 H         1 RES1    0.0000
     40 C16        6.4873    5.5677   10.5685 C.3       1 RES1    0.0000
     41 H19        7.0643    6.2608   10.9253 H         1 RES1    0.0000
     42 H20        6.8411    4.7155   10.8688 H         1 RES1    0.0000
     43 C17        6.5788    5.6069    9.1480 C.3       1 RES1    0.0000
     44 H21        6.1890    4.7950    8.7858 H         1 RES1    0.0000
     45 H22        7.5139    5.6231    8.8936 H         1 RES1    0.0000
     46 C18        3.9268    4.6786   15.8039 C.3       1 RES1    0.0000
     47 H23        3.7864    4.2357   14.9640 H         1 RES1    0.0000
     48 H24        3.0787    4.9023   16.1937 H         1 RES1    0.0000
     49 H25        4.4080    4.0950   16.3951 H         1 RES1    0.0000
     50 C19        5.6403    6.6436   19.0518 C.2       1 RES1    0.0000
     51 C20        6.0334    5.7222   20.1507 C.ar      1 RES1    0.0000
     52 C21        6.3850    6.2562   21.3850 C.ar      1 RES1    0.0000
     53 H26        6.3436    7.1764   21.5132 H         1 RES1    0.0000
     54 C22        6.7900    5.4489   22.4150 C.ar      1 RES1    0.0000
     55 H27        7.0153    5.8087   23.2428 H         1 RES1    0.0000
     56 C23        6.8564    4.0974   22.1948 C.ar      1 RES1    0.0000
     57 C24        6.4917    3.5219   21.0039 C.ar      1 RES1    0.0000
     58 H28        6.5276    2.6005   20.8878 H         1 RES1    0.0000
     59 C25        6.0704    4.3488   19.9824 C.ar      1 RES1    0.0000
     60 H29        5.8069    3.9786   19.1706 H         1 RES1    0.0000
@<TRIPOS>BOND
     1    1    7 2
     2    2   27 1
     3    3   50 2
     4    4    6 2
     5    5    6 2
     6    6   56 1
     7    7    8 1
     8    8    9 1
     9   10    8 2
    10   11   10 1
    11   12   11 1
    12   13   11 1
    13   14   11 1
    14   15   14 1
    15   16   14 1
    16   17   14 1
    17   18   17 1
    18   19   17 1
    19   20   19 1
    20   21   19 1
    21   22   21 1
    22   23   21 1
    23   24   21 1
    24   25   24 1
    25   26   24 1
    26   27   24 1
    27   28   27 1
    28   29   19 1
    29   30   29 1
    30   31   30 1
    31   32   30 1
    32   33   30 1
    33   34   33 1
    34   35   33 1
    35   36   17 1
    36   37   36 1
    37   38   10 1
    38   39   38 1
    39   40   38 1
    40   41   40 1
    41   42   40 1
    42   43    7 1
    43   44   43 1
    44   45   43 1
    45   46   29 1
    46   47   46 1
    47   48   46 1
    48   49   46 1
    49   50    2 1
    50   51   50 1
    51   52   51 ar
    52   53   52 1
    53   54   52 ar
    54   55   54 1
    55   56   54 ar
    56   57   56 ar
    57   58   57 1
    58   59   51 ar
    59   60   59 1
    60   27   29 1
    61   33   36 1
    62   36   38 1
    63   40   43 1
    64   57   59 ar
@<TRIPOS>SUBSTRUCTURE
     1 RES1 1

@<TRIPOS>CRYSIN
  10.8866   11.5321   17.6671  90.0000  90.0000  90.0000  19 1

