# MOL2 file generated by ConQuest
# Please check atom types

@<TRIPOS>MOLECULE
EDEWUA
    47    49     1
SMALL
NO_CHARGES
****
Generated from CSD

@<TRIPOS>ATOM
      1 N1        -0.7784    9.7025    9.0828 N.pl3     1 RES1    0.0000
      2 N2        -0.0626    2.5775    3.7789 N.3       1 RES1    0.0000
      3 N3        -1.9139    0.7373    2.6996 N.am      1 RES1    0.0000
      4 O1        -0.9409    9.3191   10.2240 O.2       1 RES1    0.0000
      5 O2        -0.8217   10.8813    8.7658 O.2       1 RES1    0.0000
      6 O3        -4.0399    0.0822    2.4019 O.2       1 RES1    0.0000
      7 C1        -0.4936    8.7070    8.0423 C.ar      1 RES1    0.0000
      8 C2        -0.5777    7.3729    8.3637 C.ar      1 RES1    0.0000
      9 C3        -0.2923    6.4351    7.3985 C.ar      1 RES1    0.0000
     10 C4         0.0752    6.8210    6.1100 C.ar      1 RES1    0.0000
     11 C5         0.1399    8.1819    5.8274 C.ar      1 RES1    0.0000
     12 C6        -0.1439    9.1346    6.7854 C.ar      1 RES1    0.0000
     13 C7         0.4144    5.8646    5.0480 C.2       1 RES1    0.0000
     14 C8         0.4720    4.5529    5.1344 C.2       1 RES1    0.0000
     15 C9         0.8941    3.6629    4.0032 C.3       1 RES1    0.0000
     16 C10        0.3134    1.7380    2.6279 C.3       1 RES1    0.0000
     17 C11       -0.4752    0.4524    2.7284 C.3       1 RES1    0.0000
     18 C12       -2.3578    1.9029    3.4811 C.3       1 RES1    0.0000
     19 C13       -1.3812    3.0557    3.3269 C.3       1 RES1    0.0000
     20 C14       -1.2015    3.4568    1.8601 C.3       1 RES1    0.0000
     21 C15       -0.0769    2.5351    1.3733 C.3       1 RES1    0.0000
     22 C16       -2.8435   -0.1149    2.2207 C.2       1 RES1    0.0000
     23 C17       -2.3696   -1.3066    1.4226 C.3       1 RES1    0.0000
     24 C18       -3.4770   -2.0395    0.7188 C.3       1 RES1    0.0000
     25 H1        -0.7884    7.1333    9.2243 H         1 RES1    0.0000
     26 H2        -0.3208    5.5078    7.6149 H         1 RES1    0.0000
     27 H3         0.3640    8.4376    4.9416 H         1 RES1    0.0000
     28 H4        -0.0841   10.0599    6.5973 H         1 RES1    0.0000
     29 H5         0.5889    6.2705    4.2064 H         1 RES1    0.0000
     30 H6         0.2745    4.0990    5.9891 H         1 RES1    0.0000
     31 H7         1.0123    4.2334    3.2157 H         1 RES1    0.0000
     32 H8         1.7684    3.2354    4.2199 H         1 RES1    0.0000
     33 H9         1.2483    1.5246    2.6867 H         1 RES1    0.0000
     34 H10       -0.2618   -0.0023    3.6057 H         1 RES1    0.0000
     35 H11       -0.3059   -0.1498    1.9829 H         1 RES1    0.0000
     36 H12       -2.4203    1.6867    4.4395 H         1 RES1    0.0000
     37 H13       -3.2317    2.1310    3.1380 H         1 RES1    0.0000
     38 H14       -1.6770    3.7851    3.9016 H         1 RES1    0.0000
     39 H15       -0.9508    4.4074    1.7872 H         1 RES1    0.0000
     40 H16       -2.0501    3.3609    1.3479 H         1 RES1    0.0000
     41 H17        0.6645    3.0567    1.0236 H         1 RES1    0.0000
     42 H18       -0.3996    1.9666    0.6366 H         1 RES1    0.0000
     43 H19       -1.9339   -1.8998    2.0024 H         1 RES1    0.0000
     44 H20       -1.7763   -1.0605    0.7621 H         1 RES1    0.0000
     45 H21       -4.2489   -2.2467    1.2701 H         1 RES1    0.0000
     46 H22       -3.1783   -2.8932    0.3736 H         1 RES1    0.0000
     47 H23       -3.9679   -1.5022    0.0149 H         1 RES1    0.0000
@<TRIPOS>BOND
     1    1    4 2
     2    2   15 1
     3    3   17 1
     4    5    1 2
     5    6   22 2
     6    7    1 1
     7    8    7 ar
     8    9    8 ar
     9   10    9 ar
    10   11   10 ar
    11   12    7 ar
    12   13   10 1
    13   14   13 2
    14   15   14 1
    15   16    2 1
    16   17   16 1
    17   18    3 1
    18   19    2 1
    19   20   19 1
    20   21   16 1
    21   22    3 1
    22   23   22 1
    23   24   23 1
    24   25    8 1
    25   26    9 1
    26   27   11 1
    27   28   12 1
    28   29   13 1
    29   30   14 1
    30   31   15 1
    31   32   15 1
    32   33   16 1
    33   34   17 1
    34   35   17 1
    35   36   18 1
    36   37   18 1
    37   38   19 1
    38   39   20 1
    39   40   20 1
    40   41   21 1
    41   42   21 1
    42   43   23 1
    43   44   23 1
    44   45   24 1
    45   46   24 1
    46   47   24 1
    47   11   12 ar
    48   18   19 1
    49   20   21 1
@<TRIPOS>SUBSTRUCTURE
     1 RES1 1

@<TRIPOS>CRYSIN
   7.2570    8.1740   14.9990  93.3900  92.8000 102.3600   2 1

