# MOL2 file generated by ConQuest
# Please check atom types

@<TRIPOS>MOLECULE
EDIKOU
    98   102     2
SMALL
NO_CHARGES
****
Generated from CSD

@<TRIPOS>ATOM
      1 C1         1.1351   -0.5220    5.5711 C.2       1 RES1    0.0000
      2 C2         0.7109   -0.1271    4.2187 C.ar      1 RES1    0.0000
      3 C3         1.2086   -0.8142    3.0941 C.ar      1 RES1    0.0000
      4 C4         2.3062   -1.8817    3.2193 C.3       1 RES1    0.0000
      5 C5         3.1402   -1.5751    4.4895 C.3       1 RES1    0.0000
      6 H1         3.4990   -0.6536    4.3403 H         1 RES1    0.0000
      7 C6         2.2799   -1.4564    5.7498 C.3       1 RES1    0.0000
      8 H2         1.9331   -2.3512    5.9917 H         1 RES1    0.0000
      9 H3         2.8444   -1.1375    6.5012 H         1 RES1    0.0000
     10 C7         3.2355   -1.8056    1.9921 C.3       1 RES1    0.0000
     11 H4         2.7288   -2.0864    1.1910 H         1 RES1    0.0000
     12 H5         3.5125   -0.8644    1.8601 H         1 RES1    0.0000
     13 C8         4.4884   -2.6768    2.1143 C.3       1 RES1    0.0000
     14 H6         4.2249   -3.6310    2.1118 H         1 RES1    0.0000
     15 H7         5.0725   -2.5216    1.3322 H         1 RES1    0.0000
     16 C9         5.2602   -2.3687    3.3838 C.3       1 RES1    0.0000
     17 H8         5.6265   -1.4518    3.3212 H         1 RES1    0.0000
     18 H9         6.0244   -2.9941    3.4501 H         1 RES1    0.0000
     19 C10        4.4171   -2.4775    4.6564 C.3       1 RES1    0.0000
     20 C11       -0.2500    0.8743    4.0253 C.ar      1 RES1    0.0000
     21 H10       -0.5600    1.3613    4.7823 H         1 RES1    0.0000
     22 C12       -0.7642    1.1802    2.7779 C.ar      1 RES1    0.0000
     23 H11       -1.4053    1.8718    2.6705 H         1 RES1    0.0000
     24 C13       -0.3138    0.4444    1.6901 C.ar      1 RES1    0.0000
     25 C14        0.6636   -0.5235    1.8509 C.ar      1 RES1    0.0000
     26 H12        0.9699   -1.0021    1.0866 H         1 RES1    0.0000
     27 C15        1.6163   -3.2627    3.2653 C.3       1 RES1    0.0000
     28 H13        1.0450   -3.3685    2.4740 H         1 RES1    0.0000
     29 H14        1.0682   -3.3274    4.0763 H         1 RES1    0.0000
     30 H15        2.2964   -3.9673    3.2721 H         1 RES1    0.0000
     31 C16        4.1281   -3.9453    4.9339 C.2       1 RES1    0.0000
     32 C17        2.9525   -5.5066    6.2372 C.3       1 RES1    0.0000
     33 H16        2.4938   -5.8566    5.4453 H         1 RES1    0.0000
     34 H17        2.3497   -5.5485    7.0107 H         1 RES1    0.0000
     35 H18        3.7505   -6.0454    6.4153 H         1 RES1    0.0000
     36 C18        5.2714   -1.9616    5.8308 C.3       1 RES1    0.0000
     37 H19        6.1175   -2.4547    5.8627 H         1 RES1    0.0000
     38 H20        4.7857   -2.0948    6.6731 H         1 RES1    0.0000
     39 H21        5.4546   -1.0067    5.7093 H         1 RES1    0.0000
     40 C19       -1.7897    1.5804    0.1934 C.3       1 RES1    0.0000
     41 H22       -2.5696    1.3590    0.7428 H         1 RES1    0.0000
     42 H23       -2.0472    1.5850   -0.7551 H         1 RES1    0.0000
     43 H24       -1.4534    2.4661    0.4420 H         1 RES1    0.0000
     44 N1         0.4437   -0.0639    6.5650 N.2       1 RES1    0.0000
     45 O1         0.9294   -0.5197    7.8149 O.3       1 RES1    0.0000
     46 O2         4.5673   -4.8720    4.3065 O.2       1 RES1    0.0000
     47 O3         3.3399   -4.1317    6.0027 O.3       1 RES1    0.0000
     48 O4        -0.7695    0.6080    0.4033 O.3       1 RES1    0.0000
     49 H25        0.2477   -0.1370    8.3797 H         1 RES1    0.0000
     50 C20        5.4666    1.3445    9.8371 C.2       2 RES2    0.0000
     51 C21        5.7286    0.8644   11.2031 C.ar      2 RES2    0.0000
     52 C22        4.9539    1.3354   12.2786 C.ar      2 RES2    0.0000
     53 C23        3.9029    2.4455   12.1147 C.3       2 RES2    0.0000
     54 C24        4.2685    3.2795   10.8593 C.3       2 RES2    0.0000
     55 H26        5.1978    3.6044   11.0379 H         2 RES2    0.0000
     56 C25        4.4021    2.3786    9.6198 C.3       2 RES2    0.0000
     57 H27        3.5373    1.9319    9.4418 H         2 RES2    0.0000
     58 H28        4.6333    2.9317    8.8340 H         2 RES2    0.0000
     59 C26        3.9502    3.3890   13.3450 C.3       2 RES2    0.0000
     60 H29        3.6334    2.8922   14.1381 H         2 RES2    0.0000
     61 H30        4.8901    3.6531   13.5119 H         2 RES2    0.0000
     62 C27        3.1086    4.6453   13.1829 C.3       2 RES2    0.0000
     63 H31        3.2288    5.2251   13.9785 H         2 RES2    0.0000
     64 H32        2.1523    4.3950   13.1252 H         2 RES2    0.0000
     65 C28        3.5028    5.4153   11.9299 C.3       2 RES2    0.0000
     66 H33        4.4269    5.7516   12.0386 H         2 RES2    0.0000
     67 H34        2.9060    6.1998   11.8360 H         2 RES2    0.0000
     68 C29        3.4292    4.5852   10.6426 C.3       2 RES2    0.0000
     69 C30        6.6917   -0.1134   11.4394 C.ar      2 RES2    0.0000
     70 H35        7.2270   -0.4132   10.7126 H         2 RES2    0.0000
     71 C31        6.8989   -0.6635   12.6881 C.ar      2 RES2    0.0000
     72 H36        7.5746   -1.3171   12.8244 H         2 RES2    0.0000
     73 C32        6.0957   -0.2382   13.7379 C.ar      2 RES2    0.0000
     74 C33        5.1400    0.7495   13.5261 C.ar      2 RES2    0.0000
     75 H37        4.5980    1.0310   14.2548 H         2 RES2    0.0000
     76 C34        2.5103    1.7904   12.0263 C.3       2 RES2    0.0000
     77 H38        2.4691    1.2167   11.2344 H         2 RES2    0.0000
     78 H39        1.8250    2.4881   11.9588 H         2 RES2    0.0000
     79 H40        2.3519    1.2502   12.8305 H         2 RES2    0.0000
     80 C35        1.9623    4.3873   10.2712 C.2       2 RES2    0.0000
     81 C36        0.4444    3.6538    8.6173 C.3       2 RES2    0.0000
     82 H41       -0.1471    3.2757    9.3006 H         2 RES2    0.0000
     83 H42        0.4151    3.0931    7.8149 H         2 RES2    0.0000
     84 H43        0.1479    4.5608    8.3920 H         2 RES2    0.0000
     85 C37        4.0403    5.4207    9.5038 C.3       2 RES2    0.0000
     86 H44        3.5733    6.2797    9.4418 H         2 RES2    0.0000
     87 H45        3.9472    4.9360    8.6560 H         2 RES2    0.0000
     88 H46        4.9899    5.5774    9.6873 H         2 RES2    0.0000
     89 C38        7.1542   -1.7120   15.2818 C.3       2 RES2    0.0000
     90 H47        6.9838   -2.4950   14.7152 H         2 RES2    0.0000
     91 H48        7.1114   -1.9730   16.2254 H         2 RES2    0.0000
     92 H49        8.0445   -1.3529   15.0835 H         2 RES2    0.0000
     93 N2         6.1625    0.8271    8.8794 N.2       2 RES2    0.0000
     94 O5         5.7924    1.3377    7.6056 O.3       2 RES2    0.0000
     95 O6         1.0247    4.8660   10.8538 O.2       2 RES2    0.0000
     96 O7         1.8077    3.7010    9.1269 O.3       2 RES2    0.0000
     97 O8         6.1760   -0.7191   15.0203 O.3       2 RES2    0.0000
     98 H50        6.4110    0.8522    7.1090 H         2 RES2    0.0000
@<TRIPOS>BOND
     1    1    2 1
     2    2    3 ar
     3    3    4 1
     4    4    5 1
     5    5    6 1
     6    7    1 1
     7    8    7 1
     8    9    7 1
     9   10    4 1
    10   11   10 1
    11   12   10 1
    12   13   10 1
    13   14   13 1
    14   15   13 1
    15   16   13 1
    16   17   16 1
    17   18   16 1
    18   19    5 1
    19   20    2 ar
    20   21   20 1
    21   22   20 ar
    22   23   22 1
    23   24   22 ar
    24   25    3 ar
    25   26   25 1
    26   27    4 1
    27   28   27 1
    28   29   27 1
    29   30   27 1
    30   31   19 1
    31   32   33 1
    32   34   32 1
    33   35   32 1
    34   36   19 1
    35   37   36 1
    36   38   36 1
    37   39   36 1
    38   40   41 1
    39   42   40 1
    40   43   40 1
    41   44    1 2
    42   45   44 1
    43   46   31 2
    44   47   31 1
    45   48   24 1
    46   49   45 1
    47   50   51 1
    48   51   52 ar
    49   52   53 1
    50   53   54 1
    51   54   55 1
    52   56   50 1
    53   57   56 1
    54   58   56 1
    55   59   53 1
    56   60   59 1
    57   61   59 1
    58   62   59 1
    59   63   62 1
    60   64   62 1
    61   65   62 1
    62   66   65 1
    63   67   65 1
    64   68   54 1
    65   69   51 ar
    66   70   69 1
    67   71   69 ar
    68   72   71 1
    69   73   71 ar
    70   74   52 ar
    71   75   74 1
    72   76   53 1
    73   77   76 1
    74   78   76 1
    75   79   76 1
    76   80   68 1
    77   81   82 1
    78   83   81 1
    79   84   81 1
    80   85   68 1
    81   86   85 1
    82   87   85 1
    83   88   85 1
    84   89   90 1
    85   91   89 1
    86   92   89 1
    87   93   50 2
    88   94   93 1
    89   95   80 2
    90   96   80 1
    91   97   73 1
    92   98   94 1
    93    5    7 1
    94   16   19 1
    95   24   25 ar
    96   32   47 1
    97   40   48 1
    98   54   56 1
    99   65   68 1
   100   73   74 ar
   101   81   96 1
   102   89   97 1
@<TRIPOS>SUBSTRUCTURE
     1 RES1 1
     2 RES2 50

@<TRIPOS>CRYSIN
   7.5070    7.6090   61.3900  90.0000  90.0000  90.0000  19 1

