# MOL2 file generated by ConQuest
# Please check atom types

@<TRIPOS>MOLECULE
EDIKUA
    29    30     1
SMALL
NO_CHARGES
****
Generated from CSD

@<TRIPOS>ATOM
      1 C1        13.3638    1.4128   -1.2631 C.2       1 RES1    0.0000
      2 C2        12.4756    0.6688   -2.1934 C.ar      1 RES1    0.0000
      3 C3        11.1052    1.0011   -2.1536 C.ar      1 RES1    0.0000
      4 C4        10.6712    2.2319   -1.3936 C.3       1 RES1    0.0000
      5 H1        10.5260    2.0029   -0.4413 H         1 RES1    0.0000
      6 H2         9.8176    2.5692   -1.7643 H         1 RES1    0.0000
      7 C5        11.7385    3.3081   -1.5037 C.3       1 RES1    0.0000
      8 H3        11.4289    4.1337   -1.0551 H         1 RES1    0.0000
      9 H4        11.9028    3.5183   -2.4570 H         1 RES1    0.0000
     10 C6        13.0258    2.8235   -0.8551 C.3       1 RES1    0.0000
     11 H5        13.7688    3.4251   -1.1147 H         1 RES1    0.0000
     12 H6        12.9308    2.8646    0.1294 H         1 RES1    0.0000
     13 C7        12.9380   -0.3503   -3.0471 C.ar      1 RES1    0.0000
     14 C8        11.9929   -1.0704   -3.7710 C.ar      1 RES1    0.0000
     15 H7        12.2839   -1.7545   -4.3616 H         1 RES1    0.0000
     16 C9        10.6403   -0.8140   -3.6515 C.ar      1 RES1    0.0000
     17 H8        10.0196   -1.3594   -4.1194 H         1 RES1    0.0000
     18 C10       10.1714    0.2232   -2.8619 C.ar      1 RES1    0.0000
     19 C11       14.3944   -0.6797   -3.2726 C.3       1 RES1    0.0000
     20 H9        14.6807   -1.3558   -2.6239 H         1 RES1    0.0000
     21 H10       14.9341    0.1307   -3.1588 H         1 RES1    0.0000
     22 H11       14.5140   -1.0271   -4.1818 H         1 RES1    0.0000
     23 C12        8.6916    0.4890   -2.7478 C.3       1 RES1    0.0000
     24 H12        8.1974   -0.1936   -3.2487 H         1 RES1    0.0000
     25 H13        8.4885    1.3738   -3.1157 H         1 RES1    0.0000
     26 H14        8.4262    0.4579   -1.8056 H         1 RES1    0.0000
     27 N1        14.3432    0.7649   -0.7402 N.2       1 RES1    0.0000
     28 O1        15.0694    1.5587    0.1796 O.3       1 RES1    0.0000
     29 H15       15.6265    0.8523    0.5688 H         1 RES1    0.0000
@<TRIPOS>BOND
     1    1    2 1
     2    2    3 ar
     3    3    4 1
     4    4    5 1
     5    6    4 1
     6    7    4 1
     7    8    7 1
     8    9    7 1
     9   10    1 1
    10   11   10 1
    11   12   10 1
    12   13    2 ar
    13   14   13 ar
    14   15   14 1
    15   16   14 ar
    16   17   16 1
    17   18    3 ar
    18   19   13 1
    19   20   19 1
    20   21   19 1
    21   22   19 1
    22   23   18 1
    23   24   23 1
    24   25   23 1
    25   26   23 1
    26   27    1 2
    27   28   27 1
    28   29   28 1
    29    7   10 1
    30   16   18 ar
@<TRIPOS>SUBSTRUCTURE
     1 RES1 1

@<TRIPOS>CRYSIN
  15.4420    7.2230    9.2300  90.0000  96.2800  90.0000  14 2

