# MOL2 file generated by ConQuest
# Please check atom types

@<TRIPOS>MOLECULE
EDOCOQ
    96    98     2
SMALL
NO_CHARGES
****
Generated from CSD

@<TRIPOS>ATOM
      1 O1        -3.4970    9.1106    7.5058 O.3       1 RES1    0.0000
      2 O2        -1.7031    7.0477    6.0443 O.2       1 RES1    0.0000
      3 O3        -2.8690    9.3188    2.3805 O.2       1 RES1    0.0000
      4 O4        -1.0863    8.0902    3.1040 O.3       1 RES1    0.0000
      5 O5        -0.1271    2.1156   12.3217 O.3       2 RES2    0.0000
      6 O6         1.6621    4.1725   10.8641 O.2       2 RES2    0.0000
      7 O7         0.4993    1.9034    7.2023 O.2       2 RES2    0.0000
      8 O8         2.2814    3.1326    7.9210 O.3       2 RES2    0.0000
      9 N1        -0.6391    7.9418    1.7119 N.3       1 RES1    0.0000
     10 N2         2.7298    3.2819    6.5308 N.3       2 RES2    0.0000
     11 C1        -4.2432    9.4042    8.6108 C.2       1 RES1    0.0000
     12 C2        -5.3599    9.9855    8.2803 C.2       1 RES1    0.0000
     13 C3        -5.3716   10.1089    6.8564 C.2       1 RES1    0.0000
     14 C4        -4.2193    9.5440    6.4306 C.2       1 RES1    0.0000
     15 C5        -3.7095    9.3772    5.1021 C.2       1 RES1    0.0000
     16 C6        -2.5595    8.8354    4.7110 C.2       1 RES1    0.0000
     17 C7        -1.5570    8.1787    5.6638 C.2       1 RES1    0.0000
     18 C8        -0.4245    9.0293    6.0973 C.3       1 RES1    0.0000
     19 C9        -2.2338    8.8048    3.2514 C.2       1 RES1    0.0000
     20 C10        0.7036    8.5759    1.6532 C.3       1 RES1    0.0000
     21 C11        1.1948    8.3312    0.2139 C.3       1 RES1    0.0000
     22 C12        1.1947    6.8746   -0.1638 C.3       1 RES1    0.0000
     23 C13       -0.1847    6.3337   -0.0202 C.3       1 RES1    0.0000
     24 C14       -0.7855    6.4953    1.3911 C.3       1 RES1    0.0000
     25 C15       -0.1605    5.5033    2.3844 C.3       1 RES1    0.0000
     26 C16        1.7465    8.0530    2.6782 C.3       1 RES1    0.0000
     27 C17       -2.2869    6.2170    1.3295 C.3       1 RES1    0.0000
     28 C18        0.4795   10.0617    1.8295 C.3       1 RES1    0.0000
     29 C19       -0.8741    1.8137   13.4335 C.2       2 RES2    0.0000
     30 C20       -1.9960    1.2324   13.0934 C.2       2 RES2    0.0000
     31 C21       -2.0104    1.1157   11.6666 C.2       2 RES2    0.0000
     32 C22       -0.8554    1.6817   11.2505 C.2       2 RES2    0.0000
     33 C23       -0.3415    1.8473    9.9162 C.2       2 RES2    0.0000
     34 C24        0.8124    2.3913    9.5279 C.2       2 RES2    0.0000
     35 C25        1.8082    3.0411   10.4865 C.2       2 RES2    0.0000
     36 C26        2.9603    2.2109   10.9017 C.3       2 RES2    0.0000
     37 C27        1.1402    2.4218    8.0751 C.2       2 RES2    0.0000
     38 C28        2.5790    4.7239    6.2119 C.3       2 RES2    0.0000
     39 C29        3.1810    4.8929    4.8025 C.3       2 RES2    0.0000
     40 C30        4.5568    4.3385    4.6541 C.3       2 RES2    0.0000
     41 C31        4.5588    2.9088    5.0347 C.3       2 RES2    0.0000
     42 C32        4.0803    2.6552    6.4740 C.3       2 RES2    0.0000
     43 C33        5.1123    3.1670    7.5019 C.3       2 RES2    0.0000
     44 C34        3.8497    1.1627    6.6551 C.3       2 RES2    0.0000
     45 C35        1.0661    4.9939    6.1638 C.3       2 RES2    0.0000
     46 C36        3.2145    5.7121    7.2052 C.3       2 RES2    0.0000
     47 H1        -3.8496    9.2246    9.5279 H         1 RES1    0.0000
     48 H2        -6.1101   10.3019    9.0270 H         1 RES1    0.0000
     49 H3        -5.8762   10.4141    6.4740 H         1 RES1    0.0000
     50 H4        -4.3292    9.7632    4.4509 H         1 RES1    0.0000
     51 H5        -2.7767    6.9801    0.8478 H         1 RES1    0.0000
     52 H6        -2.7515    6.2844    2.0906 H         1 RES1    0.0000
     53 H7        -2.3731    5.2519    0.9152 H         1 RES1    0.0000
     54 H8        -0.4667    5.7233    3.2659 H         1 RES1    0.0000
     55 H9         0.8773    5.6559    2.4085 H         1 RES1    0.0000
     56 H10        0.4514   10.2345    2.6782 H         1 RES1    0.0000
     57 H11       -0.2779   10.3916    1.4451 H         1 RES1    0.0000
     58 H12        1.2901   10.5711    1.6185 H         1 RES1    0.0000
     59 H13        0.7278    8.9327   -0.3950 H         1 RES1    0.0000
     60 H14        2.1178    8.5736    0.2216 H         1 RES1    0.0000
     61 H15        1.5084    6.8454   -1.0308 H         1 RES1    0.0000
     62 H16        1.8148    6.3741    0.3661 H         1 RES1    0.0000
     63 H17       -0.2374    5.3641   -0.2408 H         1 RES1    0.0000
     64 H18       -0.7572    6.8678   -0.7707 H         1 RES1    0.0000
     65 H19       -0.3461    4.5562    2.1002 H         1 RES1    0.0000
     66 H20       -0.4436    2.0426   14.2678 H         2 RES2    0.0000
     67 H21       -2.6005    0.9429   13.7476 H         2 RES2    0.0000
     68 H22       -2.6141    0.7184   11.0886 H         2 RES2    0.0000
     69 H23       -0.9384    1.4366    9.2389 H         2 RES2    0.0000
     70 H24        5.5114    2.6934    5.0867 H         2 RES2    0.0000
     71 H25        4.1150    2.3791    4.4605 H         2 RES2    0.0000
     72 H26        4.8536    4.3766    3.8150 H         2 RES2    0.0000
     73 H27        5.0710    4.8929    5.1445 H         2 RES2    0.0000
     74 H28        3.1181    5.7457    4.6339 H         2 RES2    0.0000
     75 H29        2.5782    4.3991    4.0848 H         2 RES2    0.0000
     76 H30        2.8832    6.4864    7.1387 H         2 RES2    0.0000
     77 H31        4.2805    5.6785    7.2447 H         2 RES2    0.0000
     78 H32        2.9030    5.3867    8.0539 H         2 RES2    0.0000
     79 H33        0.9173    5.8355    5.8863 H         2 RES2    0.0000
     80 H34        0.5767    4.9827    7.0905 H         2 RES2    0.0000
     81 H35        0.5443    4.2645    5.7418 H         2 RES2    0.0000
     82 H36        3.1460    0.6959    6.0308 H         2 RES2    0.0000
     83 H37        4.7019    0.7408    6.4354 H         2 RES2    0.0000
     84 H38        3.6087    0.8979    7.5337 H         2 RES2    0.0000
     85 H39        2.8607    1.2795   10.4046 H         2 RES2    0.0000
     86 H40        3.6775    2.8057   11.2909 H         2 RES2    0.0000
     87 H41        2.6717    1.7284   11.4836 H         2 RES2    0.0000
     88 H42        4.7811    3.1647    8.4682 H         2 RES2    0.0000
     89 H43        5.8776    2.8954    7.5048 H         2 RES2    0.0000
     90 H44        5.6346    4.1747    7.1580 H         2 RES2    0.0000
     91 H45        0.1483    9.0450    6.0308 H         1 RES1    0.0000
     92 H46       -0.5637   10.0550    5.7225 H         1 RES1    0.0000
     93 H47       -0.6603    9.4715    7.1580 H         1 RES1    0.0000
     94 H48        2.1928    6.9352    2.3988 H         1 RES1    0.0000
     95 H49        2.5203    8.4839    2.6204 H         1 RES1    0.0000
     96 H50        1.4308    8.2146    3.5934 H         1 RES1    0.0000
@<TRIPOS>BOND
     1    1   11 1
     2    2   17 2
     3    3   19 2
     4    4    9 1
     5    5   29 1
     6    6   35 2
     7    7   37 2
     8    8   10 1
     9    9   20 1
    10   10   38 1
    11   11   12 2
    12   12   13 1
    13   13   14 2
    14   14    1 1
    15   15   14 1
    16   16   15 2
    17   17   16 1
    18   18   17 1
    19   19    4 1
    20   20   21 1
    21   21   22 1
    22   22   23 1
    23   23   24 1
    24   24    9 1
    25   25   24 1
    26   26   20 1
    27   27   24 1
    28   28   20 1
    29   29   30 2
    30   30   31 1
    31   31   32 2
    32   32    5 1
    33   33   32 1
    34   34   33 2
    35   35   34 1
    36   36   35 1
    37   37    8 1
    38   38   39 1
    39   39   40 1
    40   40   41 1
    41   41   42 1
    42   42   10 1
    43   43   42 1
    44   44   42 1
    45   45   38 1
    46   46   38 1
    47   47   11 1
    48   48   12 1
    49   49   13 1
    50   50   15 1
    51   51   27 1
    52   52   27 1
    53   53   27 1
    54   54   25 1
    55   55   25 1
    56   56   28 1
    57   57   28 1
    58   58   28 1
    59   59   21 1
    60   60   21 1
    61   61   22 1
    62   62   22 1
    63   63   23 1
    64   64   23 1
    65   65   25 1
    66   66   29 1
    67   67   30 1
    68   68   31 1
    69   69   33 1
    70   70   41 1
    71   71   41 1
    72   72   40 1
    73   73   40 1
    74   74   39 1
    75   75   39 1
    76   76   46 1
    77   77   46 1
    78   78   46 1
    79   79   45 1
    80   80   45 1
    81   81   45 1
    82   82   44 1
    83   83   44 1
    84   84   44 1
    85   85   36 1
    86   86   36 1
    87   87   36 1
    88   88   43 1
    89   89   43 1
    90   90   43 1
    91   91   18 1
    92   92   18 1
    93   93   18 1
    94   94   26 1
    95   95   26 1
    96   96   26 1
    97   16   19 1
    98   34   37 1
@<TRIPOS>SUBSTRUCTURE
     1 RES1 1
     2 RES2 5

@<TRIPOS>CRYSIN
   8.2680   22.4440    9.7559  89.9940  99.0710  90.0320   2 1

