# MOL2 file generated by ConQuest
# Please check atom types

@<TRIPOS>MOLECULE
EDOFOV
    23    24     1
SMALL
NO_CHARGES
****
Generated from CSD

@<TRIPOS>ATOM
      1 C1         9.9326    2.5145    7.6451 C.2       1 RES1    0.0000
      2 C2         9.1470    3.0585    6.5158 C.ar      1 RES1    0.0000
      3 C3         9.3902    2.6536    5.1926 C.ar      1 RES1    0.0000
      4 H1        10.1225    2.0779    5.0042 H         1 RES1    0.0000
      5 C4         8.5757    3.0831    4.1609 C.ar      1 RES1    0.0000
      6 H2         8.7408    2.7967    3.2710 H         1 RES1    0.0000
      7 C5         7.5122    3.9372    4.4349 C.ar      1 RES1    0.0000
      8 H3         6.9389    4.2200    3.7320 H         1 RES1    0.0000
      9 C6         7.2884    4.3760    5.7285 C.ar      1 RES1    0.0000
     10 H4         6.5727    4.9763    5.9015 H         1 RES1    0.0000
     11 C7         8.0996    3.9494    6.7866 C.ar      1 RES1    0.0000
     12 C8         7.8563    4.4159    8.1989 C.3       1 RES1    0.0000
     13 H5         7.2670    3.7706    8.6647 H         1 RES1    0.0000
     14 H6         7.3991    5.2940    8.1848 H         1 RES1    0.0000
     15 C9         9.1801    4.5393    8.9535 C.3       1 RES1    0.0000
     16 H7         9.7529    5.2139    8.5086 H         1 RES1    0.0000
     17 H8         9.0055    4.8454    9.8786 H         1 RES1    0.0000
     18 C10        9.9084    3.1967    8.9889 C.3       1 RES1    0.0000
     19 H9        10.8389    3.3412    9.2950 H         1 RES1    0.0000
     20 H10        9.4623    2.6041    9.6452 H         1 RES1    0.0000
     21 N1        10.5547    1.4110    7.4299 N.2       1 RES1    0.0000
     22 O1        11.2670    0.9688    8.5660 O.3       1 RES1    0.0000
     23 H11       11.5130    0.1501    8.2752 H         1 RES1    0.0000
@<TRIPOS>BOND
     1    1    2 1
     2    2    3 ar
     3    3    4 1
     4    5    3 ar
     5    6    5 1
     6    7    5 ar
     7    8    7 1
     8    9    7 ar
     9   10    9 1
    10   11    2 ar
    11   12   11 1
    12   13   12 1
    13   14   12 1
    14   15   12 1
    15   16   15 1
    16   17   15 1
    17   18    1 1
    18   19   18 1
    19   20   18 1
    20   21    1 2
    21   22   21 1
    22   23   22 1
    23    9   11 ar
    24   15   18 1
@<TRIPOS>SUBSTRUCTURE
     1 RES1 1

@<TRIPOS>CRYSIN
  13.6750    8.3383   15.4960  90.0000 109.6940  90.0000  15 1

