# MOL2 file generated by ConQuest
# Please check atom types

@<TRIPOS>MOLECULE
EDOREW
    20    21     1
SMALL
USER_CHARGES
****
Generated from CSD

@<TRIPOS>ATOM
      1 N1         1.9181    2.9016    4.1080 N.2       1 RES1    0.0000
      2 N2         2.4705    0.8506    4.2660 N.pl3     1 RES1    0.0000
      3 H1         2.8904    0.1313    4.4800 H         1 RES1    0.0000
      4 C1         1.0001    2.2458    3.3804 C.ar      1 RES1    0.0000
      5 C2         1.3520    0.9078    3.4858 C.ar      1 RES1    0.0000
      6 N3        -0.4674    4.0465    2.6387 N.pl3     1 RES1    0.0000
      7 C3        -0.1075    2.6468    2.6188 C.ar      1 RES1    0.0000
      8 N4        -1.2210   -0.7324    1.4384 N.pl3     1 RES1    0.0000
      9 N5         2.7988    2.0404    4.6302 N.2       1 RES1    0.0000
     10 C4        -0.4449    0.3138    2.1268 C.ar      1 RES1    0.0000
     11 C5        -0.8313    1.6623    1.9424 C.ar      1 RES1    0.0000
     12 C6         0.6343   -0.0908    2.8614 C.ar      1 RES1    0.0000
     13 H2         0.8708   -0.9872    2.9352 H         1 RES1    0.0000
     14 O1         0.2486    4.8010    3.2659 O.2       1 RES1    0.0000
     15 O2        -1.4948    4.3999    2.1075 O.2       1 RES1    0.0000
     16 O3        -0.6624   -1.4217    0.6506 O.2       1 RES1    0.0000
     17 O4        -2.3748   -0.8558    1.7091 O.2       1 RES1    0.0000
     18 N6        -1.9446    1.8483    1.0955 N.2       1 RES1    0.0000
     19 N7        -1.8109    2.7129    0.2366 N.1       1 RES1    1.0000
     20 N8        -1.8250    3.4516   -0.6153 N.2       1 RES1   -1.0000
@<TRIPOS>BOND
     1    1    4 1
     2    2    3 1
     3    4    5 ar
     4    5    2 1
     5    6    7 1
     6    7    4 ar
     7    8   10 1
     8    9    1 2
     9   10   11 ar
    10   11    7 ar
    11   12    5 ar
    12   13   12 1
    13   14    6 2
    14   15    6 2
    15   16    8 2
    16   17    8 2
    17   18   11 1
    18   19   18 2
    19   20   19 2
    20    2    9 1
    21   10   12 ar
@<TRIPOS>SUBSTRUCTURE
     1 RES1 1

@<TRIPOS>CRYSIN
   5.7213    8.8140   18.5960  90.0000  91.5510  90.0000  14 1

