# MOL2 file generated by ConQuest
# Please check atom types

@<TRIPOS>MOLECULE
EDUNOJ
    33    33     1
SMALL
NO_CHARGES
****
Generated from CSD

@<TRIPOS>ATOM
      1 O1         2.7099    2.7996    5.7677 O.3       1 RES1    0.0000
      2 C1         2.8535    4.0715    5.2987 C.ar      1 RES1    0.0000
      3 C2         3.1601    4.3307    3.9418 C.ar      1 RES1    0.0000
      4 C3         3.2975    3.1912    2.9442 C.3       1 RES1    0.0000
      5 H1         3.6815    2.4063    3.4310 H         1 RES1    0.0000
      6 C4         1.9158    2.7834    2.4243 C.3       1 RES1    0.0000
      7 H2         2.0119    2.0489    1.7822 H         1 RES1    0.0000
      8 H3         1.3577    2.4898    3.1745 H         1 RES1    0.0000
      9 H4         1.4938    3.5501    1.9836 H         1 RES1    0.0000
     10 C5         4.2330    3.5150    1.7746 C.3       1 RES1    0.0000
     11 H5         4.2788    2.7450    1.1704 H         1 RES1    0.0000
     12 H6         3.8894    4.2929    1.2870 H         1 RES1    0.0000
     13 H7         5.1290    3.7147    2.1188 H         1 RES1    0.0000
     14 C6         3.2680    5.6567    3.5451 C.ar      1 RES1    0.0000
     15 H8         3.4747    5.8674    2.6420 H         1 RES1    0.0000
     16 C7         3.0739    6.6732    4.4683 C.ar      1 RES1    0.0000
     17 N1         3.1730    8.0514    4.0138 N.pl3     1 RES1    0.0000
     18 O2         3.2373    8.2764    2.8080 O.2       1 RES1    0.0000
     19 O3         3.1857    8.9479    4.8706 O.2       1 RES1    0.0000
     20 C8         2.7963    6.4196    5.8053 C.ar      1 RES1    0.0000
     21 H9         2.6789    7.1393    6.4134 H         1 RES1    0.0000
     22 C9         2.6910    5.1087    6.2480 C.ar      1 RES1    0.0000
     23 C10        2.4236    4.7604    7.7079 C.3       1 RES1    0.0000
     24 H10        1.7788    3.9960    7.7227 H         1 RES1    0.0000
     25 C11        3.7206    4.2878    8.3877 C.3       1 RES1    0.0000
     26 H11        3.5369    4.0671    9.3249 H         1 RES1    0.0000
     27 H12        4.0612    3.4934    7.9251 H         1 RES1    0.0000
     28 H13        4.3900    5.0023    8.3457 H         1 RES1    0.0000
     29 C12        1.7990    5.9068    8.5023 C.3       1 RES1    0.0000
     30 H14        1.6525    5.6213    9.4284 H         1 RES1    0.0000
     31 H15        2.4022    6.6790    8.4902 H         1 RES1    0.0000
     32 H16        0.9415    6.1553    8.0976 H         1 RES1    0.0000
     33 H17        2.6837    2.2027    5.0919 H         1 RES1    0.0000
@<TRIPOS>BOND
     1    1    2 1
     2    2    3 ar
     3    3    4 1
     4    4    5 1
     5    6    4 1
     6    7    6 1
     7    8    6 1
     8    9    6 1
     9   10    4 1
    10   11   10 1
    11   12   10 1
    12   13   10 1
    13   14    3 ar
    14   15   14 1
    15   16   14 ar
    16   17   16 1
    17   18   17 2
    18   19   17 2
    19   20   16 ar
    20   21   20 1
    21   22    2 ar
    22   23   22 1
    23   24   23 1
    24   25   23 1
    25   26   25 1
    26   27   25 1
    27   28   25 1
    28   29   23 1
    29   30   29 1
    30   31   29 1
    31   32   29 1
    32   33    1 1
    33   20   22 ar
@<TRIPOS>SUBSTRUCTURE
     1 RES1 1

@<TRIPOS>CRYSIN
   7.1119    8.8072   10.1883  67.7231  80.3343  85.0626   2 1

