# MOL2 file generated by ConQuest
# Please check atom types

@<TRIPOS>MOLECULE
EDUSAA
    49    47     2
SMALL
NO_CHARGES
****
Generated from CSD

@<TRIPOS>ATOM
      1 C1         4.9208    7.1599    0.8227 C.2       1 RES1    0.0000
      2 C2         3.7962    7.7537    1.3605 C.2       1 RES1    0.0000
      3 H1         3.8282    8.1438    2.2259 H         1 RES1    0.0000
      4 C3         2.6347    7.7767    0.6396 C.2       1 RES1    0.0000
      5 H2         1.8669    8.1877    1.0196 H         1 RES1    0.0000
      6 C4         2.5380    7.2174   -0.6306 C.2       1 RES1    0.0000
      7 C5         3.6794    6.6171   -1.1666 C.2       1 RES1    0.0000
      8 H3         3.6404    6.2248   -2.0308 H         1 RES1    0.0000
      9 C6         4.8648    6.5869   -0.4565 C.2       1 RES1    0.0000
     10 H4         5.6371    6.1795   -0.8323 H         1 RES1    0.0000
     11 C7         1.2993    7.3916   -1.3936 C.2       1 RES1    0.0000
     12 H5         0.5746    7.7904   -0.9269 H         1 RES1    0.0000
     13 C8         1.0655    7.0562   -2.6710 C.2       1 RES1    0.0000
     14 H6         1.7508    6.6027   -3.1480 H         1 RES1    0.0000
     15 C9         6.3100    7.9106    2.7041 C.3       1 RES1    0.0000
     16 H7         6.3817    8.8802    2.5584 H         1 RES1    0.0000
     17 H8         7.1231    7.5896    3.1474 H         1 RES1    0.0000
     18 H9         5.5338    7.7271    3.2745 H         1 RES1    0.0000
     19 N1         6.1509    7.2455    1.4412 N.2       1 RES1    0.0000
     20 C10        7.3756    6.7445    0.8733 C.3       1 RES1    0.0000
     21 H10        7.2265    5.8433    0.5191 H         1 RES1    0.0000
     22 H11        8.0665    6.7100    1.5695 H         1 RES1    0.0000
     23 H12        7.6681    7.3369    0.1518 H         1 RES1    0.0000
     24 O1         6.1131    7.6443    2.6861 Du        2 SUP2    0.0000
     25 N2         6.1285    7.0634    1.6327 Du        2 SUP2    0.0000
     26 O2         7.0426    6.4624    1.1322 Du        2 SUP2    0.0000
     27 C1B       -4.0035    7.2361   -6.8452 C.2       1 RES1    0.0000
     28 C2B       -2.8790    6.6423   -7.3830 C.2       1 RES1    0.0000
     29 H1B       -2.9110    6.2522   -8.2485 H         1 RES1    0.0000
     30 C3B       -1.7174    6.6193   -6.6621 C.2       1 RES1    0.0000
     31 H2B       -0.9496    6.2083   -7.0422 H         1 RES1    0.0000
     32 C4B       -1.6208    7.1786   -5.3920 C.2       1 RES1    0.0000
     33 C5B       -2.7621    7.7789   -4.8560 C.2       1 RES1    0.0000
     34 H3B       -2.7231    8.1712   -3.9917 H         1 RES1    0.0000
     35 C6B       -3.9475    7.8091   -5.5660 C.2       1 RES1    0.0000
     36 H4B       -4.7198    8.2165   -5.1902 H         1 RES1    0.0000
     37 C7B       -0.3820    7.0044   -4.6289 C.2       1 RES1    0.0000
     38 H5B        0.3427    6.6056   -5.0957 H         1 RES1    0.0000
     39 C8B       -0.1482    7.3398   -3.3515 C.2       1 RES1    0.0000
     40 H6B       -0.8335    7.7933   -2.8746 H         1 RES1    0.0000
     41 C9B       -5.3928    6.4854   -8.7267 C.3       1 RES1    0.0000
     42 H7B       -5.4645    5.5158   -8.5809 H         1 RES1    0.0000
     43 H8B       -6.2058    6.8064   -9.1699 H         1 RES1    0.0000
     44 H9B       -4.6165    6.6689   -9.2970 H         1 RES1    0.0000
     45 N1B       -5.2336    7.1505   -7.4637 N.2       1 RES1    0.0000
     46 C10B      -6.4583    7.6515   -6.8958 C.3       1 RES1    0.0000
     47 H10B      -6.3092    8.5527   -6.5417 H         1 RES1    0.0000
     48 H11B      -7.1492    7.6860   -7.5920 H         1 RES1    0.0000
     49 H12B      -6.7508    7.0591   -6.1743 H         1 RES1    0.0000
@<TRIPOS>BOND
     1    1    2 1
     2    2    3 1
     3    4    2 1
     4    5    4 1
     5    6    4 1
     6    7    6 1
     7    8    7 1
     8    9    1 1
     9   10    9 1
    10   11    6 1
    11   12   11 1
    12   13   11 1
    13   14   13 1
    14   15   16 1
    15   17   15 1
    16   18   15 1
    17   19    1 1
    18   20   19 1
    19   21   20 1
    20   22   20 1
    21   23   20 1
    22   27   28 1
    23   28   29 1
    24   30   28 1
    25   31   30 1
    26   32   30 1
    27   33   32 1
    28   34   33 1
    29   35   27 1
    30   36   35 1
    31   37   32 1
    32   38   37 1
    33   39   13 1
    34   40   39 1
    35   41   42 1
    36   43   41 1
    37   44   41 1
    38   45   27 1
    39   46   45 1
    40   47   46 1
    41   48   46 1
    42   49   46 1
    43    7    9 1
    44   15   19 1
    45   33   35 1
    46   37   39 1
    47   41   45 1
@<TRIPOS>SUBSTRUCTURE
     1 RES1 1
     2 SUP2 24

@<TRIPOS>CRYSIN
  17.0650    7.1980    6.0920  90.0000  98.6600  90.0000  14 1

