# MOL2 file generated by ConQuest
# Please check atom types

@<TRIPOS>MOLECULE
EDUYIM
    86    93     1
SMALL
NO_CHARGES
****
Generated from CSD

@<TRIPOS>ATOM
      1 N1         2.6919   13.7201   12.7102 N.3       1 RES1    0.0000
      2 N2         3.5667   15.7107   12.0808 N.3       1 RES1    0.0000
      3 N3         1.7123   12.8114    8.9815 N.pl3     1 RES1    0.0000
      4 O1         2.5605    9.3557   10.9099 O.3       1 RES1    0.0000
      5 C1         2.1002   13.2007    7.7272 C.ar      1 RES1    0.0000
      6 C2         3.0123   14.4457   11.4602 C.3       1 RES1    0.0000
      7 N4         4.2249   15.2950   13.2526 N.2       1 RES1    0.0000
      8 N5         0.8358   12.5311   11.0088 N.3       1 RES1    0.0000
      9 C3         3.6663   14.2089   13.6306 C.2       1 RES1    0.0000
     10 C4         1.7989   14.7840   10.6010 C.3       1 RES1    0.0000
     11 H1         2.0991   15.3417    9.8675 H         1 RES1    0.0000
     12 H2         1.1928   15.3182   11.1389 H         1 RES1    0.0000
     13 C5         4.6553   12.5165   11.1547 C.ar      1 RES1    0.0000
     14 H3         4.3715   12.1671   11.9686 H         1 RES1    0.0000
     15 C6         1.6068   11.4648   10.6274 C.2       1 RES1    0.0000
     16 C7         0.9941   13.6082   10.0034 C.3       1 RES1    0.0000
     17 C8         1.3431   13.6005   13.1420 C.ar      1 RES1    0.0000
     18 N6         2.0963   11.5489    9.4433 N.2       1 RES1    0.0000
     19 N7         3.4756   14.4500    3.9359 N.pl3     1 RES1    0.0000
     20 C9         2.9713   14.0009    5.2237 C.ar      1 RES1    0.0000
     21 C10        0.9015   14.0717   14.3762 C.ar      1 RES1    0.0000
     22 H4         1.4891   14.5229   14.9392 H         1 RES1    0.0000
     23 C11        4.1060   13.7000   10.6846 C.ar      1 RES1    0.0000
     24 O2         3.2136   15.6024    3.5694 O.2       1 RES1    0.0000
     25 C12        4.2722   16.6474   11.2879 C.ar      1 RES1    0.0000
     26 C13        1.8287   14.4935    7.2409 C.ar      1 RES1    0.0000
     27 H5         1.3489   15.0909    7.7680 H         1 RES1    0.0000
     28 C14        3.2272   12.7098    5.6574 C.ar      1 RES1    0.0000
     29 H6         3.6887   12.1156    5.1097 H         1 RES1    0.0000
     30 C15        5.6422   16.6937   11.2284 C.ar      1 RES1    0.0000
     31 H7         6.1499   16.1156   11.7513 H         1 RES1    0.0000
     32 O3         4.1382   13.6719    3.2692 O.2       1 RES1    0.0000
     33 C16        2.2620   14.8826    6.0017 C.ar      1 RES1    0.0000
     34 H8         2.0765   15.7383    5.6893 H         1 RES1    0.0000
     35 C17        1.8881   10.3144   11.5305 C.2       1 RES1    0.0000
     36 C18        4.0391   13.4650   14.8336 C.ar      1 RES1    0.0000
     37 C19        6.0730   12.3506    9.2275 C.ar      1 RES1    0.0000
     38 H9         6.7165   11.8927    8.7358 H         1 RES1    0.0000
     39 C20        2.7971   12.3135    6.8958 C.ar      1 RES1    0.0000
     40 H10        2.9687   11.4468    7.1884 H         1 RES1    0.0000
     41 C21        3.6072   12.1634   15.0272 C.ar      1 RES1    0.0000
     42 H11        3.0683   11.7555   14.3889 H         1 RES1    0.0000
     43 C22       -0.3744   14.0826    9.5328 C.3       1 RES1    0.0000
     44 H12       -0.2822   14.9195    9.0722 H         1 RES1    0.0000
     45 H13       -0.9527   14.1949   10.2918 H         1 RES1    0.0000
     46 H14       -0.7521   13.4297    8.9377 H         1 RES1    0.0000
     47 O4         1.5489   10.3075   12.6714 O.2       1 RES1    0.0000
     48 C23        4.5856   14.2121    9.4843 C.ar      1 RES1    0.0000
     49 H15        4.2486   15.0159    9.1602 H         1 RES1    0.0000
     50 C24       -0.8717   12.7533   12.7190 C.ar      1 RES1    0.0000
     51 H16       -1.4723   12.3236   12.1532 H         1 RES1    0.0000
     52 C25        4.1591   18.4311    9.6915 C.ar      1 RES1    0.0000
     53 H17        3.6604   19.0223    9.1740 H         1 RES1    0.0000
     54 C26        3.5236   17.5488   10.5340 C.ar      1 RES1    0.0000
     55 H18        2.5957   17.5539   10.6006 H         1 RES1    0.0000
     56 C27        5.5610   13.5373    8.7634 C.ar      1 RES1    0.0000
     57 H19        5.8697   13.8905    7.9595 H         1 RES1    0.0000
     58 C28       -0.4151   13.8669   14.7633 C.ar      1 RES1    0.0000
     59 H20       -0.7053   14.1821   15.5896 H         1 RES1    0.0000
     60 C29        5.6273   11.8477   10.4178 C.ar      1 RES1    0.0000
     61 H21        5.9791   11.0481   10.7386 H         1 RES1    0.0000
     62 C30        5.2021   13.3225   16.9334 C.ar      1 RES1    0.0000
     63 H22        5.7530   13.7212   17.5682 H         1 RES1    0.0000
     64 C31        4.8412   14.0474   15.8104 C.ar      1 RES1    0.0000
     65 H23        5.1344   14.9237   15.7086 H         1 RES1    0.0000
     66 C32        0.4389   12.9272   12.3219 C.ar      1 RES1    0.0000
     67 C33       -1.2960   13.2089   13.9421 C.ar      1 RES1    0.0000
     68 H24       -2.1753   13.0717   14.2130 H         1 RES1    0.0000
     69 C34        3.9723   11.4713   16.1623 C.ar      1 RES1    0.0000
     70 H25        3.6709   10.5980   16.2762 H         1 RES1    0.0000
     71 C35        4.7723   12.0363   17.1353 C.ar      1 RES1    0.0000
     72 C36        6.2659   17.5968   10.3954 C.ar      1 RES1    0.0000
     73 H26        7.1941   17.6311   10.3643 H         1 RES1    0.0000
     74 C37        4.3272    8.3815   12.1705 C.3       1 RES1    0.0000
     75 H27        4.6705    7.5369   12.4741 H         1 RES1    0.0000
     76 H28        4.3497    9.0138   12.8915 H         1 RES1    0.0000
     77 H29        4.8662    8.7030   11.4442 H         1 RES1    0.0000
     78 C38        5.5268   18.4414    9.6139 C.ar      1 RES1    0.0000
     79 H30        5.9542   19.0245    9.0274 H         1 RES1    0.0000
     80 C39        2.9874    8.2164   11.7271 C.3       1 RES1    0.0000
     81 H31        2.4007    8.1328   12.4965 H         1 RES1    0.0000
     82 H32        2.9175    7.3997   11.2061 H         1 RES1    0.0000
     83 C40        5.1278   11.2775   18.3963 C.3       1 RES1    0.0000
     84 H33        5.2865   10.3557   18.1807 H         1 RES1    0.0000
     85 H34        4.4026   11.3375   19.0225 H         1 RES1    0.0000
     86 H35        5.9188   11.6548   18.7862 H         1 RES1    0.0000
@<TRIPOS>BOND
     1    1    6 1
     2    2    6 1
     3    3    5 1
     4    4   35 1
     5    5   26 ar
     6    6   10 1
     7    7    2 1
     8    8   15 1
     9    9    1 1
    10   10   11 1
    11   12   10 1
    12   13   14 1
    13   15   18 2
    14   16    3 1
    15   17    1 1
    16   18    3 1
    17   19   20 1
    18   20   28 ar
    19   21   17 ar
    20   22   21 1
    21   23    6 1
    22   24   19 2
    23   25    2 1
    24   26   27 1
    25   28   29 1
    26   30   25 ar
    27   31   30 1
    28   32   19 2
    29   33   20 ar
    30   34   33 1
    31   35   15 1
    32   36    9 1
    33   37   38 1
    34   39    5 ar
    35   40   39 1
    36   41   36 ar
    37   42   41 1
    38   43   16 1
    39   44   43 1
    40   45   43 1
    41   46   43 1
    42   47   35 2
    43   48   23 ar
    44   49   48 1
    45   50   51 1
    46   52   53 1
    47   54   25 ar
    48   55   54 1
    49   56   37 ar
    50   57   56 1
    51   58   21 ar
    52   59   58 1
    53   60   13 ar
    54   61   60 1
    55   62   63 1
    56   64   36 ar
    57   65   64 1
    58   66    8 1
    59   67   50 ar
    60   68   67 1
    61   69   41 ar
    62   70   69 1
    63   71   62 ar
    64   72   30 ar
    65   73   72 1
    66   74   75 1
    67   76   74 1
    68   77   74 1
    69   78   52 ar
    70   79   78 1
    71   80    4 1
    72   81   80 1
    73   82   80 1
    74   83   71 1
    75   84   83 1
    76   85   83 1
    77   86   83 1
    78    7    9 2
    79    8   16 1
    80   10   16 1
    81   13   23 ar
    82   17   66 ar
    83   26   33 ar
    84   28   39 ar
    85   37   60 ar
    86   48   56 ar
    87   50   66 ar
    88   52   54 ar
    89   58   67 ar
    90   62   64 ar
    91   69   71 ar
    92   72   78 ar
    93   74   80 1
@<TRIPOS>SUBSTRUCTURE
     1 RES1 1

@<TRIPOS>CRYSIN
   9.4951   21.4360   18.8850  90.0000 114.0110  90.0000  14 1

