# MOL2 file generated by ConQuest
# Please check atom types

@<TRIPOS>MOLECULE
EFAHOK
    41    45     1
SMALL
NO_CHARGES
****
Generated from CSD

@<TRIPOS>ATOM
      1 N1         2.7776    3.0680    8.8470 N.am      1 RES1    0.0000
      2 O1         1.9932    4.9569    9.8505 O.2       1 RES1    0.0000
      3 O2         3.2308    1.2368    7.5347 O.2       1 RES1    0.0000
      4 O3         3.7331    2.8015    9.8107 O.3       1 RES1    0.0000
      5 H1         3.3061    2.0908   10.2938 H         1 RES1    0.0000
      6 C1         1.9742    4.1733    8.9126 C.2       1 RES1    0.0000
      7 C2         2.5951    2.2476    7.7297 C.2       1 RES1    0.0000
      8 C3         1.4754    2.8820    6.9090 C.3       1 RES1    0.0000
      9 H2         0.6731    2.2837    6.9137 H         1 RES1    0.0000
     10 C4         1.1424    4.2115    7.6472 C.3       1 RES1    0.0000
     11 H3         0.1715    4.2279    7.8860 H         1 RES1    0.0000
     12 C5         1.4832    5.4557    6.7296 C.3       1 RES1    0.0000
     13 C6         0.6105    5.2541    5.4889 C.ar      1 RES1    0.0000
     14 C7        -0.3282    6.1604    4.9975 C.ar      1 RES1    0.0000
     15 H4        -0.4669    6.9881    5.4436 H         1 RES1    0.0000
     16 C8        -1.0665    5.8546    3.8498 C.ar      1 RES1    0.0000
     17 H5        -1.6983    6.4783    3.5101 H         1 RES1    0.0000
     18 C9        -0.8762    4.6395    3.2072 C.ar      1 RES1    0.0000
     19 H6        -1.3879    4.4280    2.4355 H         1 RES1    0.0000
     20 C10        0.0676    3.7236    3.6927 C.ar      1 RES1    0.0000
     21 H7         0.1928    2.8915    3.2515 H         1 RES1    0.0000
     22 C11        0.8213    4.0351    4.8222 C.ar      1 RES1    0.0000
     23 C12        1.9241    3.1595    5.4241 C.3       1 RES1    0.0000
     24 C13        3.1595    4.0502    5.5737 C.ar      1 RES1    0.0000
     25 C14        4.4457    3.7276    5.1451 C.ar      1 RES1    0.0000
     26 H8         4.6023    2.9183    4.6732 H         1 RES1    0.0000
     27 C15        5.5000    4.5967    5.4115 C.ar      1 RES1    0.0000
     28 H9         6.3780    4.3762    5.1227 H         1 RES1    0.0000
     29 C16        5.2769    5.7837    6.0965 C.ar      1 RES1    0.0000
     30 H10        6.0038    6.3706    6.2706 H         1 RES1    0.0000
     31 C17        3.9933    6.1218    6.5310 C.ar      1 RES1    0.0000
     32 H11        3.8435    6.9362    6.9967 H         1 RES1    0.0000
     33 C18        2.9342    5.2515    6.2739 C.ar      1 RES1    0.0000
     34 C19        1.2231    6.7799    7.4453 C.3       1 RES1    0.0000
     35 H12        0.2978    6.8001    7.7698 H         1 RES1    0.0000
     36 H13        1.3664    7.5221    6.8210 H         1 RES1    0.0000
     37 H14        1.8377    6.8673    8.2041 H         1 RES1    0.0000
     38 C20        2.1603    1.8625    4.6461 C.3       1 RES1    0.0000
     39 H15        2.4387    2.0762    3.7314 H         1 RES1    0.0000
     40 H16        1.3318    1.3404    4.6220 H         1 RES1    0.0000
     41 H17        2.8621    1.3404    5.0867 H         1 RES1    0.0000
@<TRIPOS>BOND
     1    1    4 1
     2    2    6 2
     3    3    7 2
     4    4    5 1
     5    6    1 1
     6    7    1 1
     7    8    7 1
     8    9    8 1
     9   10    6 1
    10   11   10 1
    11   12   10 1
    12   13   12 1
    13   14   13 ar
    14   15   14 1
    15   16   14 ar
    16   17   16 1
    17   18   16 ar
    18   19   18 1
    19   20   18 ar
    20   21   20 1
    21   22   13 ar
    22   23    8 1
    23   24   23 1
    24   25   24 ar
    25   26   25 1
    26   27   25 ar
    27   28   27 1
    28   29   27 ar
    29   30   29 1
    30   31   29 ar
    31   32   31 1
    32   33   12 1
    33   34   12 1
    34   35   34 1
    35   36   34 1
    36   37   34 1
    37   38   23 1
    38   39   38 1
    39   40   38 1
    40   41   38 1
    41    8   10 1
    42   20   22 ar
    43   22   23 1
    44   24   33 ar
    45   31   33 ar
@<TRIPOS>SUBSTRUCTURE
     1 RES1 1

@<TRIPOS>CRYSIN
  13.9040    8.1040   13.9460  90.0000  97.3900  90.0000 231 1

