# MOL2 file generated by ConQuest
# Please check atom types

@<TRIPOS>MOLECULE
EFAKAX
    58    60     1
SMALL
NO_CHARGES
****
Generated from CSD

@<TRIPOS>ATOM
      1 O1        -0.2561    2.2568    0.7242 O.2       1 RES1    0.0000
      2 O2         0.4175    3.2361    2.5688 O.3       1 RES1    0.0000
      3 O3         1.0407    5.5827    1.1584 O.3       1 RES1    0.0000
      4 O4        -0.8699    5.5958    2.4675 O.3       1 RES1    0.0000
      5 O5         2.3725    4.3847    3.0740 O.3       1 RES1    0.0000
      6 O6         3.7150    6.8655   -1.8130 O.2       1 RES1    0.0000
      7 O7         4.2246    4.7610   -1.5813 O.3       1 RES1    0.0000
      8 O8        -0.6105    6.3433   -4.9642 O.2       1 RES1    0.0000
      9 O9         1.0274    7.4476   -5.7289 O.2       1 RES1    0.0000
     10 N1         0.4692    6.8785   -4.8300 N.pl3     1 RES1    0.0000
     11 C1         0.2021    3.2452    1.2471 C.2       1 RES1    0.0000
     12 C2         0.5140    4.4810    0.4140 C.3       1 RES1    0.0000
     13 H1        -0.3385    4.7819   -0.0114 H         1 RES1    0.0000
     14 C3         0.5328    5.6739    2.4739 C.3       1 RES1    0.0000
     15 C4         0.9977    4.4263    3.2284 C.3       1 RES1    0.0000
     16 C5         1.0890    6.9488    3.0702 C.3       1 RES1    0.0000
     17 H2         2.0684    6.9228    3.0398 H         1 RES1    0.0000
     18 H3         0.7933    7.0295    4.0007 H         1 RES1    0.0000
     19 H4         0.7660    7.7184    2.5562 H         1 RES1    0.0000
     20 C6         0.5233    4.3443    4.6743 C.3       1 RES1    0.0000
     21 H5        -0.4560    4.3899    4.6996 H         1 RES1    0.0000
     22 H6         0.8977    5.0931    5.1832 H         1 RES1    0.0000
     23 H7         0.8215    3.4991    5.0680 H         1 RES1    0.0000
     24 C7        -1.5440    6.6610    1.7548 C.3       1 RES1    0.0000
     25 H8        -2.5134    6.5217    1.8016 H         1 RES1    0.0000
     26 H9        -1.2584    6.6584    0.8179 H         1 RES1    0.0000
     27 H10       -1.3179    7.5218    2.1637 H         1 RES1    0.0000
     28 C8         3.0643    3.2973    3.6602 C.3       1 RES1    0.0000
     29 H11        4.0227    3.3819    3.4753 H         1 RES1    0.0000
     30 H12        2.7311    2.4560    3.2816 H         1 RES1    0.0000
     31 H13        2.9166    3.2999    4.6287 H         1 RES1    0.0000
     32 C9         1.4976    4.1451   -0.7052 C.3       1 RES1    0.0000
     33 H14        1.0424    3.5070   -1.3256 H         1 RES1    0.0000
     34 C10        1.8393    5.4265   -1.5180 C.3       1 RES1    0.0000
     35 H15        1.4276    6.1896   -1.0204 H         1 RES1    0.0000
     36 C11        3.3149    5.7520   -1.6421 C.2       1 RES1    0.0000
     37 C12        2.7599    3.4523   -0.1697 C.3       1 RES1    0.0000
     38 H16        3.1212    3.9536    0.6026 H         1 RES1    0.0000
     39 H17        2.5429    2.5329    0.1279 H         1 RES1    0.0000
     40 C13        3.7760    3.4093   -1.2800 C.3       1 RES1    0.0000
     41 H18        4.5485    2.8545   -1.0065 H         1 RES1    0.0000
     42 H19        3.3730    3.0030   -2.0877 H         1 RES1    0.0000
     43 C14        1.1567    5.4108   -2.9347 C.3       1 RES1    0.0000
     44 H20        0.2031    5.1387   -2.8018 H         1 RES1    0.0000
     45 C15        1.1495    6.8368   -3.4956 C.3       1 RES1    0.0000
     46 H21        0.6776    7.4371   -2.8651 H         1 RES1    0.0000
     47 H22        2.0806    7.1611   -3.5880 H         1 RES1    0.0000
     48 C16        1.7832    4.4042   -3.8881 C.ar      1 RES1    0.0000
     49 C17        1.1377    3.2179   -4.1628 C.ar      1 RES1    0.0000
     50 H23        0.2613    3.0733   -3.8260 H         1 RES1    0.0000
     51 C18        1.7511    2.2347   -4.9224 C.ar      1 RES1    0.0000
     52 H24        1.2925    1.4208   -5.0971 H         1 RES1    0.0000
     53 C19        3.0142    2.4235   -5.4263 C.ar      1 RES1    0.0000
     54 H25        3.4402    1.7411   -5.9327 H         1 RES1    0.0000
     55 C20        3.6564    3.6268   -5.1858 C.ar      1 RES1    0.0000
     56 H26        4.5298    3.7661   -5.5314 H         1 RES1    0.0000
     57 C21        3.0519    4.6230   -4.4540 C.ar      1 RES1    0.0000
     58 H27        3.4909    5.4564   -4.3299 H         1 RES1    0.0000
@<TRIPOS>BOND
     1    1   11 2
     2    2   11 1
     3    3   12 1
     4    4   14 1
     5    5   15 1
     6    6   36 2
     7    7   36 1
     8    8   10 2
     9    9   10 2
    10   10   45 1
    11   11   12 1
    12   12   13 1
    13   14    3 1
    14   15    2 1
    15   16   14 1
    16   17   16 1
    17   18   16 1
    18   19   16 1
    19   20   15 1
    20   21   20 1
    21   22   20 1
    22   23   20 1
    23   24    4 1
    24   25   24 1
    25   26   24 1
    26   27   24 1
    27   28    5 1
    28   29   28 1
    29   30   28 1
    30   31   28 1
    31   32   12 1
    32   33   32 1
    33   34   32 1
    34   35   34 1
    35   36   34 1
    36   37   32 1
    37   38   37 1
    38   39   37 1
    39   40    7 1
    40   41   40 1
    41   42   40 1
    42   43   34 1
    43   44   43 1
    44   45   43 1
    45   46   45 1
    46   47   45 1
    47   48   43 1
    48   49   48 ar
    49   50   49 1
    50   51   49 ar
    51   52   51 1
    52   53   51 ar
    53   54   53 1
    54   55   53 ar
    55   56   55 1
    56   57   48 ar
    57   58   57 1
    58   14   15 1
    59   37   40 1
    60   55   57 ar
@<TRIPOS>SUBSTRUCTURE
     1 RES1 1

@<TRIPOS>CRYSIN
   6.4142   13.0225   12.6626  90.0000  91.0310  90.0000   4 1

