# MOL2 file generated by ConQuest
# Please check atom types

@<TRIPOS>MOLECULE
EFAWIT01
    76    78     2
SMALL
NO_CHARGES
****
Generated from CSD

@<TRIPOS>ATOM
      1 O1         3.1242    2.2368   10.7130 O.2       1 RES1    0.0000
      2 O2         2.8011    0.2726   14.8604 O.3       1 RES1    0.0000
      3 H1         2.0916   -0.1942   15.3192 H         1 RES1    0.0000
      4 N1         0.3816    1.9437   10.3826 N.2       1 RES1    0.0000
      5 H2         0.6817    1.2071   12.1760 H         1 RES1    0.0000
      6 N2         1.0726    1.5740   11.5056 N.am      1 RES1    0.0000
      7 N3         2.2055    0.6644   13.7005 N.2       1 RES1    0.0000
      8 N4         4.3759    1.4205   13.0931 N.pl3     1 RES1    0.0000
      9 N5         4.8540    2.6512   13.4600 N.2       1 RES1    0.0000
     10 N6        -2.8895    1.7229    9.0825 N.ar      1 RES1    0.0000
     11 C1        -1.0200    2.9677    8.2340 C.ar      1 RES1    0.0000
     12 H3        -0.1351    3.2897    8.3634 H         1 RES1    0.0000
     13 C2        -1.7234    3.2913    7.0869 C.ar      1 RES1    0.0000
     14 H4        -1.3203    3.8148    6.4041 H         1 RES1    0.0000
     15 C3        -3.0305    2.8355    6.9522 C.ar      1 RES1    0.0000
     16 H5        -3.5434    3.0411    6.1783 H         1 RES1    0.0000
     17 C4        -3.5625    2.0739    7.9772 C.ar      1 RES1    0.0000
     18 H6        -4.4620    1.7804    7.8922 H         1 RES1    0.0000
     19 C5        -1.6288    2.1611    9.1970 C.ar      1 RES1    0.0000
     20 C6        -0.8926    1.7352   10.4168 C.2       1 RES1    0.0000
     21 C7        -1.6482    1.1171   11.5582 C.3       1 RES1    0.0000
     22 H7        -1.6083    1.7120   12.3370 H         1 RES1    0.0000
     23 H8        -1.2453    0.2532   11.7873 H         1 RES1    0.0000
     24 H9        -2.5823    0.9834   11.2965 H         1 RES1    0.0000
     25 C8         2.4187    1.7456   11.5735 C.2       1 RES1    0.0000
     26 C9         2.9936    1.2429   12.8687 C.2       1 RES1    0.0000
     27 C10        6.1513    2.4637   13.6924 C.2       1 RES1    0.0000
     28 C11        7.0085    3.5964   14.1524 C.3       1 RES1    0.0000
     29 H10        6.4392    4.3391   14.4436 H         1 RES1    0.0000
     30 H11        7.5824    3.8933   13.4148 H         1 RES1    0.0000
     31 H12        7.5665    3.3006   14.9010 H         1 RES1    0.0000
     32 C12        6.5053    1.1214   13.4690 C.2       1 RES1    0.0000
     33 H13        7.3711    0.7395   13.5542 H         1 RES1    0.0000
     34 C13        5.3531    0.4721   13.1033 C.2       1 RES1    0.0000
     35 C14        5.0947   -0.9500   12.7550 C.3       1 RES1    0.0000
     36 H14        4.7679   -1.0067   11.8325 H         1 RES1    0.0000
     37 H15        4.4208   -1.3182   13.3638 H         1 RES1    0.0000
     38 H16        5.9255   -1.4635   12.8396 H         1 RES1    0.0000
     39 O3         8.2799    1.4684    5.1013 O.2       2 RES2    0.0000
     40 O4         4.0184   -0.2170    4.9992 O.3       2 RES2    0.0000
     41 H17        3.4740   -0.6758    5.6698 H         2 RES2    0.0000
     42 N7         8.1442    1.7400    7.8628 N.2       2 RES2    0.0000
     43 H18        6.3554    1.0176    7.4230 H         2 RES2    0.0000
     44 N8         7.1179    1.2892    7.0741 N.am      2 RES2    0.0000
     45 N9         5.1067    0.1700    5.7258 N.2       2 RES2    0.0000
     46 N10        5.9719    0.8927    3.6324 N.pl3     2 RES2    0.0000
     47 N11        5.7251    2.1366    3.1186 N.2       2 RES2    0.0000
     48 N12        8.9162    1.9762   11.3036 N.ar      2 RES2    0.0000
     49 C15       10.1012    2.9248    9.4406 C.ar      2 RES2    0.0000
     50 H19       10.1393    3.1002    8.5087 H         2 RES2    0.0000
     51 C16       11.1110    3.3612   10.2817 C.ar      2 RES2    0.0000
     52 H20       11.8628    3.8249    9.9320 H         2 RES2    0.0000
     53 C17       11.0089    3.1102   11.6467 C.ar      2 RES2    0.0000
     54 H21       11.6842    3.4008   12.2487 H         2 RES2    0.0000
     55 C18        9.8951    2.4247   12.0997 C.ar      2 RES2    0.0000
     56 H22        9.8200    2.2628   13.0320 H         2 RES2    0.0000
     57 C19        9.0248    2.2218    9.9882 C.ar      2 RES2    0.0000
     58 C20        7.9290    1.6911    9.1359 C.2       2 RES2    0.0000
     59 C21        6.6916    1.1336    9.7771 C.3       2 RES2    0.0000
     60 H23        5.9133    1.6561    9.4942 H         2 RES2    0.0000
     61 H24        6.7786    1.1807   10.7527 H         2 RES2    0.0000
     62 H25        6.5741    0.1996    9.5041 H         2 RES2    0.0000
     63 C22        7.2703    1.2058    5.7250 C.2       2 RES2    0.0000
     64 C23        6.0306    0.7226    5.0300 C.2       2 RES2    0.0000
     65 C24        5.7227    1.9711    1.7962 C.2       2 RES2    0.0000
     66 C25        5.4164    3.1240    0.8988 C.3       2 RES2    0.0000
     67 H26        5.0374    3.8575    1.4273 H         2 RES2    0.0000
     68 H27        4.7694    2.8446    0.2179 H         2 RES2    0.0000
     69 H28        6.2402    3.4264    0.4633 H         2 RES2    0.0000
     70 C26        5.9927    0.6273    1.4632 C.2       2 RES2    0.0000
     71 H29        6.0655    0.2587    0.5909 H         2 RES2    0.0000
     72 C27        6.1311   -0.0416    2.6561 C.2       2 RES2    0.0000
     73 C28        6.3782   -1.4748    2.9727 C.3       2 RES2    0.0000
     74 H30        7.1573   -1.5497    3.5633 H         2 RES2    0.0000
     75 H31        6.5490   -1.9676    2.1439 H         2 RES2    0.0000
     76 H32        5.5911   -1.8511    3.4200 H         2 RES2    0.0000
@<TRIPOS>BOND
     1    1   25 2
     2    2    3 1
     3    4    6 1
     4    5    6 1
     5    6   25 1
     6    7    2 1
     7    8    9 1
     8    9   27 2
     9   10   17 ar
    10   11   12 1
    11   13   11 ar
    12   14   13 1
    13   15   13 ar
    14   16   15 1
    15   17   15 ar
    16   18   17 1
    17   19   10 ar
    18   20    4 2
    19   21   20 1
    20   22   21 1
    21   23   21 1
    22   24   21 1
    23   25   26 1
    24   26    7 2
    25   27   28 1
    26   28   29 1
    27   30   28 1
    28   31   28 1
    29   32   27 1
    30   33   32 1
    31   34    8 1
    32   35   34 1
    33   36   35 1
    34   37   35 1
    35   38   35 1
    36   39   63 2
    37   40   41 1
    38   42   44 1
    39   43   44 1
    40   44   63 1
    41   45   40 1
    42   46   47 1
    43   47   65 2
    44   48   55 ar
    45   49   50 1
    46   51   49 ar
    47   52   51 1
    48   53   51 ar
    49   54   53 1
    50   55   53 ar
    51   56   55 1
    52   57   48 ar
    53   58   42 2
    54   59   58 1
    55   60   59 1
    56   61   59 1
    57   62   59 1
    58   63   64 1
    59   64   45 2
    60   65   66 1
    61   66   67 1
    62   68   66 1
    63   69   66 1
    64   70   65 1
    65   71   70 1
    66   72   46 1
    67   73   72 1
    68   74   73 1
    69   75   73 1
    70   76   73 1
    71    8   26 1
    72   11   19 ar
    73   19   20 1
    74   32   34 2
    75   46   64 1
    76   49   57 ar
    77   57   58 1
    78   70   72 2
@<TRIPOS>SUBSTRUCTURE
     1 RES1 1
     2 RES2 39

@<TRIPOS>CRYSIN
  19.4734    7.7679   19.8042  90.0000  97.5520  90.0000 231 1

