# MOL2 file generated by ConQuest
# Please check atom types

@<TRIPOS>MOLECULE
EFAXAN
    17    18     1
SMALL
NO_CHARGES
****
Generated from CSD

@<TRIPOS>ATOM
      1 O1         4.2819   12.2938    2.8709 O.2       1 RES1    0.0000
      2 O2         2.1888   12.9018    2.8856 O.2       1 RES1    0.0000
      3 N1         1.2283    9.3971    4.7323 N.pl3     1 RES1    0.0000
      4 N2         3.7616   10.1493    4.2657 N.2       1 RES1    0.0000
      5 N3         0.2530   11.3104    3.8822 N.pl3     1 RES1    0.0000
      6 H1        -0.5339   10.9696    4.0800 H         1 RES1    0.0000
      7 H2         0.3077   12.1055    3.5070 H         1 RES1    0.0000
      8 N4         0.0515    8.7795    5.0255 N.2       1 RES1    0.0000
      9 N5         1.8655    7.4552    5.5882 N.2       1 RES1    0.0000
     10 N6         3.1056   12.1262    3.1837 N.pl3     1 RES1    0.0000
     11 N7         3.6001    8.9722    4.8462 N.2       1 RES1    0.0000
     12 N8        -1.1045    5.7728    6.3435 N.1       1 RES1    0.0000
     13 C1         2.3082    8.6006    5.0639 C.2       1 RES1    0.0000
     14 C2         2.7273   10.9240    3.9217 C.2       1 RES1    0.0000
     15 C3         1.3463   10.6330    4.1469 C.2       1 RES1    0.0000
     16 C4         0.5128    7.6297    5.5309 C.2       1 RES1    0.0000
     17 C5        -0.4062    6.6088    5.9863 C.1       1 RES1    0.0000
@<TRIPOS>BOND
     1    1   10 2
     2    2   10 2
     3    3    8 1
     4    4   11 2
     5    5    6 1
     6    7    5 1
     7    8   16 2
     8    9   13 2
     9   10   14 1
    10   11   13 1
    11   12   17 3
    12   13    3 1
    13   14    4 1
    14   15    3 1
    15   16    9 1
    16   17   16 1
    17    5   15 1
    18   14   15 2
@<TRIPOS>SUBSTRUCTURE
     1 RES1 1

@<TRIPOS>CRYSIN
   6.5936   17.1320    6.7823  90.0000  97.9460  90.0000  14 1

