# MOL2 file generated by ConQuest
# Please check atom types

@<TRIPOS>MOLECULE
EFAXIS
    47    48     1
SMALL
NO_CHARGES
****
Generated from CSD

@<TRIPOS>ATOM
      1 O1         4.2418    0.9217    5.1437 O.3       1 RES1    0.0000
      2 O2         5.6935   -0.9936    3.6690 O.2       1 RES1    0.0000
      3 O3         7.4377   -0.1002    2.7446 O.2       1 RES1    0.0000
      4 O4        10.3569    2.1866    5.8604 O.2       1 RES1    0.0000
      5 O5         9.5648    2.9255    7.7339 O.2       1 RES1    0.0000
      6 O6         4.0140    1.8439    7.9771 O.2       1 RES1    0.0000
      7 O7         4.2574    3.7502    7.0461 O.2       1 RES1    0.0000
      8 N1         6.5807   -0.1489    3.6229 N.pl3     1 RES1    0.0000
      9 N2         9.4378    2.4082    6.6276 N.pl3     1 RES1    0.0000
     10 N3         4.5841    2.5997    7.2313 N.pl3     1 RES1    0.0000
     11 C1         3.6537    1.1586    3.7882 C.3       1 RES1    0.0000
     12 H1         4.3428    0.9939    3.0818 H         1 RES1    0.0000
     13 C2         3.1696    2.5841    3.7153 C.3       1 RES1    0.0000
     14 H2         2.9205    2.7892    2.7788 H         1 RES1    0.0000
     15 H3         3.9143    3.1867    3.9668 H         1 RES1    0.0000
     16 C3         1.9766    2.8787    4.6139 C.3       1 RES1    0.0000
     17 H4         1.6389    3.7875    4.4160 H         1 RES1    0.0000
     18 H5         2.2721    2.8635    5.5589 H         1 RES1    0.0000
     19 C4         0.8381    1.8696    4.4286 C.3       1 RES1    0.0000
     20 H6         0.5536    1.9278    3.4711 H         1 RES1    0.0000
     21 C5         1.3974    0.4558    4.6399 C.3       1 RES1    0.0000
     22 H7         1.7299    0.3698    5.5682 H         1 RES1    0.0000
     23 H8         0.6726   -0.2068    4.5130 H         1 RES1    0.0000
     24 C6         2.5345    0.1567    3.6630 C.3       1 RES1    0.0000
     25 H9         2.8873   -0.7512    3.8392 H         1 RES1    0.0000
     26 H10        2.1837    0.1728    2.7376 H         1 RES1    0.0000
     27 C7        -0.4153    2.1893    5.2880 C.3       1 RES1    0.0000
     28 C8        -1.5631    1.2733    4.8731 C.3       1 RES1    0.0000
     29 H11       -1.3042    0.3394    5.0180 H         1 RES1    0.0000
     30 H12       -1.7673    1.4138    3.9256 H         1 RES1    0.0000
     31 H13       -2.3556    1.4801    5.4114 H         1 RES1    0.0000
     32 C9        -0.8641    3.6362    5.0455 C.3       1 RES1    0.0000
     33 H14       -0.1450    4.2487    5.3037 H         1 RES1    0.0000
     34 H15       -1.6616    3.8251    5.5815 H         1 RES1    0.0000
     35 H16       -1.0718    3.7589    4.0957 H         1 RES1    0.0000
     36 C10       -0.1272    2.0227    6.7926 C.3       1 RES1    0.0000
     37 H17        0.6112    2.6137    7.0512 H         1 RES1    0.0000
     38 H18        0.1200    1.0924    6.9768 H         1 RES1    0.0000
     39 H19       -0.9278    2.2564    7.3064 H         1 RES1    0.0000
     40 C11        5.5122    1.2604    5.3935 C.ar      1 RES1    0.0000
     41 C12        6.6606    0.8325    4.7102 C.ar      1 RES1    0.0000
     42 C13        7.9315    1.2328    5.0843 C.ar      1 RES1    0.0000
     43 H20        8.6898    0.9599    4.5821 H         1 RES1    0.0000
     44 C14        8.0824    2.0332    6.1965 C.ar      1 RES1    0.0000
     45 C15        7.0021    2.4797    6.9294 C.ar      1 RES1    0.0000
     46 H21        7.1146    3.0273    7.6971 H         1 RES1    0.0000
     47 C16        5.7548    2.0953    6.4962 C.ar      1 RES1    0.0000
@<TRIPOS>BOND
     1    1   11 1
     2    2    8 2
     3    3    8 2
     4    4    9 2
     5    5    9 2
     6    6   10 2
     7    7   10 2
     8    8   41 1
     9    9   44 1
    10   10   47 1
    11   11   12 1
    12   13   11 1
    13   14   13 1
    14   15   13 1
    15   16   13 1
    16   17   16 1
    17   18   16 1
    18   19   16 1
    19   20   19 1
    20   21   19 1
    21   22   21 1
    22   23   21 1
    23   24   11 1
    24   25   24 1
    25   26   24 1
    26   27   19 1
    27   28   27 1
    28   29   28 1
    29   30   28 1
    30   31   28 1
    31   32   27 1
    32   33   32 1
    33   34   32 1
    34   35   32 1
    35   36   27 1
    36   37   36 1
    37   38   36 1
    38   39   36 1
    39   40    1 1
    40   41   40 ar
    41   42   41 ar
    42   43   42 1
    43   44   42 ar
    44   45   44 ar
    45   46   45 1
    46   47   40 ar
    47   21   24 1
    48   45   47 ar
@<TRIPOS>SUBSTRUCTURE
     1 RES1 1

@<TRIPOS>CRYSIN
  15.2570    8.9540   13.6230  90.0000 102.7100  90.0000  14 1

