# MOL2 file generated by ConQuest
# Please check atom types

@<TRIPOS>MOLECULE
EFAXOY
    47    48     1
SMALL
NO_CHARGES
****
Generated from CSD

@<TRIPOS>ATOM
      1 O1        12.2619    0.9935    5.7798 O.3       1 RES1    0.0000
      2 O2        12.2582    3.4081    7.5139 O.2       1 RES1    0.0000
      3 O3        12.8495    1.9712    9.0152 O.2       1 RES1    0.0000
      4 O4        17.9442    2.5540    7.8444 O.2       1 RES1    0.0000
      5 O5        18.5141    1.6798    5.9378 O.2       1 RES1    0.0000
      6 O6        15.1310   -0.0167    2.9469 O.2       1 RES1    0.0000
      7 O7        13.4261   -0.8733    3.9856 O.2       1 RES1    0.0000
      8 N1        12.9468    2.4855    7.9130 N.pl3     1 RES1    0.0000
      9 N2        17.6870    2.0246    6.7746 N.pl3     1 RES1    0.0000
     10 N3        14.3594   -0.0768    3.9028 N.pl3     1 RES1    0.0000
     11 C1        11.5419    1.2782    4.5039 C.3       1 RES1    0.0000
     12 H1        12.1891    1.2223    3.7429 H         1 RES1    0.0000
     13 C2        10.9615    2.6642    4.5569 C.3       1 RES1    0.0000
     14 H2        11.6885    3.3287    4.6523 H         1 RES1    0.0000
     15 H3        10.3611    2.7468    5.3393 H         1 RES1    0.0000
     16 C3        10.1753    2.9363    3.2694 C.3       1 RES1    0.0000
     17 H4        10.8035    2.9547    2.5043 H         1 RES1    0.0000
     18 H5         9.7467    3.8263    3.3324 H         1 RES1    0.0000
     19 C4         9.0929    1.8735    3.0086 C.3       1 RES1    0.0000
     20 H6         8.4677    1.9094    3.7885 H         1 RES1    0.0000
     21 C5         9.7293    0.4884    3.0287 C.3       1 RES1    0.0000
     22 H7        10.3546    0.4074    2.2663 H         1 RES1    0.0000
     23 H8         9.0223   -0.1954    2.9176 H         1 RES1    0.0000
     24 C6        10.4876    0.2212    4.3318 C.3       1 RES1    0.0000
     25 H9         9.8602    0.2421    5.0970 H         1 RES1    0.0000
     26 H10       10.9088   -0.6738    4.2988 H         1 RES1    0.0000
     27 C7         8.2272    2.1524    1.7355 C.3       1 RES1    0.0000
     28 C8         9.0515    2.0046    0.4552 C.3       1 RES1    0.0000
     29 H11        9.3913    1.0879    0.3891 H         1 RES1    0.0000
     30 H12        9.8049    2.6316    0.4775 H         1 RES1    0.0000
     31 H13        8.4870    2.2000   -0.3221 H         1 RES1    0.0000
     32 C9         7.0530    1.1730    1.6876 C.3       1 RES1    0.0000
     33 H14        7.3909    0.2647    1.5451 H         1 RES1    0.0000
     34 H15        6.4523    1.4177    0.9535 H         1 RES1    0.0000
     35 H16        6.5628    1.2098    2.5357 H         1 RES1    0.0000
     36 C10        7.6641    3.5659    1.7938 C.3       1 RES1    0.0000
     37 H17        7.2250    3.7078    2.6582 H         1 RES1    0.0000
     38 H18        7.0116    3.6878    1.0733 H         1 RES1    0.0000
     39 H19        8.3925    4.2129    1.6876 H         1 RES1    0.0000
     40 C11       13.5749    1.2440    5.8845 C.ar      1 RES1    0.0000
     41 C12       13.9948    1.9645    7.0129 C.ar      1 RES1    0.0000
     42 C13       15.3016    2.2158    7.3488 C.ar      1 RES1    0.0000
     43 H20       15.5311    2.6675    8.1514 H         1 RES1    0.0000
     44 C14       16.2706    1.7758    6.4577 C.ar      1 RES1    0.0000
     45 C15       15.9435    1.0971    5.3053 C.ar      1 RES1    0.0000
     46 H21       16.6202    0.8291    4.6964 H         1 RES1    0.0000
     47 C16       14.6153    0.8124    5.0472 C.ar      1 RES1    0.0000
@<TRIPOS>BOND
     1    1   11 1
     2    2    8 2
     3    3    8 2
     4    4    9 2
     5    5    9 2
     6    6   10 2
     7    7   10 2
     8    8   41 1
     9    9   44 1
    10   10   47 1
    11   11   12 1
    12   13   11 1
    13   14   13 1
    14   15   13 1
    15   16   13 1
    16   17   16 1
    17   18   16 1
    18   19   16 1
    19   20   19 1
    20   21   19 1
    21   22   21 1
    22   23   21 1
    23   24   11 1
    24   25   24 1
    25   26   24 1
    26   27   19 1
    27   28   27 1
    28   29   28 1
    29   30   28 1
    30   31   28 1
    31   32   27 1
    32   33   32 1
    33   34   32 1
    34   35   32 1
    35   36   27 1
    36   37   36 1
    37   38   36 1
    38   39   36 1
    39   40    1 1
    40   41   40 ar
    41   42   41 ar
    42   43   42 1
    43   44   42 ar
    44   45   44 ar
    45   46   45 1
    46   47   40 ar
    47   21   24 1
    48   45   47 ar
@<TRIPOS>SUBSTRUCTURE
     1 RES1 1

@<TRIPOS>CRYSIN
  14.9500    8.3490   14.2920  90.0000  94.2200  90.0000  14 1

