# MOL2 file generated by ConQuest
# Please check atom types

@<TRIPOS>MOLECULE
EFICEC
    51    53     1
SMALL
NO_CHARGES
****
Generated from CSD

@<TRIPOS>ATOM
      1 O1         0.7226    5.2720    4.5140 O.3       1 RES1    0.0000
      2 C1        -0.2358    7.2472    5.3413 C.ar      1 RES1    0.0000
      3 C2         1.6898    4.1497    4.4861 C.3       1 RES1    0.0000
      4 O2         1.9790    6.5843    5.8506 O.2       1 RES1    0.0000
      5 C3         0.9592    3.4640    2.0877 C.3       1 RES1    0.0000
      6 C4         1.0509    3.1125    3.5785 C.3       1 RES1    0.0000
      7 H1         1.6515    2.3389    3.6178 H         1 RES1    0.0000
      8 C5        -0.2561    8.2078    6.3280 C.ar      1 RES1    0.0000
      9 H2         0.4702    8.2962    6.9024 H         1 RES1    0.0000
     10 C6         0.9501    6.3498    5.2708 C.2       1 RES1    0.0000
     11 C7        -1.3096    7.1307    4.4837 C.ar      1 RES1    0.0000
     12 H3        -1.3052    6.4746    3.8249 H         1 RES1    0.0000
     13 C8        -2.3914    7.9810    4.5972 C.ar      1 RES1    0.0000
     14 H4        -3.1039    7.9283    4.0019 H         1 RES1    0.0000
     15 C9        -2.3896    8.8990    5.6027 C.ar      1 RES1    0.0000
     16 C10        0.0058    4.5671    1.8569 C.1       1 RES1    0.0000
     17 C11       -1.3490    9.0424    6.4704 C.ar      1 RES1    0.0000
     18 H5        -1.3741    9.6843    7.1425 H         1 RES1    0.0000
     19 C12        2.3143    3.8912    1.5410 C.3       1 RES1    0.0000
     20 H6         2.2153    4.2019    0.6272 H         1 RES1    0.0000
     21 H7         2.9203    3.1342    1.5395 H         1 RES1    0.0000
     22 N1        -3.5685    9.7942    5.7425 N.pl3     1 RES1    0.0000
     23 C13        0.2559    2.1803    1.5124 C.3       1 RES1    0.0000
     24 H8        -0.2206    2.4296    0.6932 H         1 RES1    0.0000
     25 O3        -4.3666    9.8370    4.8392 O.2       1 RES1    0.0000
     26 C14       -0.3274    2.5555    3.9020 C.3       1 RES1    0.0000
     27 H9        -0.9363    3.2673    4.1535 H         1 RES1    0.0000
     28 H10       -0.2773    1.9150    4.6276 H         1 RES1    0.0000
     29 N2        -0.7542    5.3878    1.6095 N.1       1 RES1    0.0000
     30 C15        3.0064    4.5885    3.8621 C.3       1 RES1    0.0000
     31 H11        3.3611    5.3317    4.3740 H         1 RES1    0.0000
     32 H12        3.6408    3.8575    3.9254 H         1 RES1    0.0000
     33 C16        1.2292    1.0683    1.1779 C.2       1 RES1    0.0000
     34 O4        -3.6487   10.4385    6.7464 O.2       1 RES1    0.0000
     35 C17        2.8874    5.0084    2.4058 C.3       1 RES1    0.0000
     36 H13        3.7643    5.2544    2.0707 H         1 RES1    0.0000
     37 H14        2.3140    5.7879    2.3438 H         1 RES1    0.0000
     38 C18        1.8433    3.6049    5.8968 C.3       1 RES1    0.0000
     39 H15        2.3160    4.2426    6.4358 H         1 RES1    0.0000
     40 H16        2.3359    2.7813    5.8701 H         1 RES1    0.0000
     41 H17        0.9753    3.4459    6.2752 H         1 RES1    0.0000
     42 C19       -0.7873    1.8767    2.6094 C.3       1 RES1    0.0000
     43 H18       -1.6563    2.2178    2.3453 H         1 RES1    0.0000
     44 H19       -0.8610    0.9190    2.7430 H         1 RES1    0.0000
     45 C20        1.7555    1.0702   -0.1966 C.3       1 RES1    0.0000
     46 H20        2.3259    1.8333   -0.3196 H         1 RES1    0.0000
     47 H21        1.0262    1.1127   -0.8193 H         1 RES1    0.0000
     48 H22        2.2590    0.2668   -0.3481 H         1 RES1    0.0000
     49 C21        1.5738    0.1345    2.0452 C.2       1 RES1    0.0000
     50 H23        2.1607   -0.5415    1.7931 H         1 RES1    0.0000
     51 H24        1.2286    0.1510    2.9095 H         1 RES1    0.0000
@<TRIPOS>BOND
     1    1    3 1
     2    2    8 ar
     3    3    6 1
     4    4   10 2
     5    5    6 1
     6    6    7 1
     7    8    9 1
     8   10    1 1
     9   11    2 ar
    10   12   11 1
    11   13   11 ar
    12   14   13 1
    13   15   13 ar
    14   16    5 1
    15   17    8 ar
    16   18   17 1
    17   19    5 1
    18   20   19 1
    19   21   19 1
    20   22   15 1
    21   23    5 1
    22   24   23 1
    23   25   22 2
    24   26    6 1
    25   27   26 1
    26   28   26 1
    27   29   16 3
    28   30    3 1
    29   31   30 1
    30   32   30 1
    31   33   23 1
    32   34   22 2
    33   35   19 1
    34   36   35 1
    35   37   35 1
    36   38    3 1
    37   39   38 1
    38   40   38 1
    39   41   38 1
    40   42   23 1
    41   43   42 1
    42   44   42 1
    43   45   33 1
    44   46   45 1
    45   47   45 1
    46   48   45 1
    47   49   33 2
    48   50   49 1
    49   51   49 1
    50    2   10 1
    51   15   17 ar
    52   26   42 1
    53   30   35 1
@<TRIPOS>SUBSTRUCTURE
     1 RES1 1

@<TRIPOS>CRYSIN
   7.1608    9.4129   15.5648 101.5940  99.0660  94.4820   2 1

