# MOL2 file generated by ConQuest
# Please check atom types

@<TRIPOS>MOLECULE
EFIFOP
    93    97     1
SMALL
NO_CHARGES
****
Generated from CSD

@<TRIPOS>ATOM
      1 C1         9.8032   12.8917    5.2369 C.ar      1 RES1    0.0000
      2 C2        10.8694   12.3479    4.5279 C.ar      1 RES1    0.0000
      3 H1        11.1221   11.4421    4.6673 H         1 RES1    0.0000
      4 C3        11.5605   13.1317    3.6208 C.ar      1 RES1    0.0000
      5 H2        12.2875   12.7710    3.1261 H         1 RES1    0.0000
      6 C4        11.1785   14.4416    3.4461 C.ar      1 RES1    0.0000
      7 H3        11.6334   14.9759    2.8058 H         1 RES1    0.0000
      8 C5        10.1443   15.0003    4.1847 C.ar      1 RES1    0.0000
      9 H4         9.9130   15.9143    4.0596 H         1 RES1    0.0000
     10 C6         9.4484   14.2314    5.1053 C.ar      1 RES1    0.0000
     11 C7         7.7922   15.9129    5.5419 C.3       1 RES1    0.0000
     12 H5         8.4531   16.6519    5.4118 H         1 RES1    0.0000
     13 C8         6.9971   15.7108    4.2745 C.2       1 RES1    0.0000
     14 C9         5.8551   13.9594    2.9479 C.ar      1 RES1    0.0000
     15 C10        4.8588   14.6694    2.3112 C.ar      1 RES1    0.0000
     16 H6         4.6090   15.5278    2.6334 H         1 RES1    0.0000
     17 C11        4.2203   14.1338    1.1968 C.ar      1 RES1    0.0000
     18 H7         3.5457   14.6301    0.7500 H         1 RES1    0.0000
     19 C12        4.5682   12.8754    0.7418 C.ar      1 RES1    0.0000
     20 H8         4.1250   12.5079   -0.0137 H         1 RES1    0.0000
     21 C13        5.5635   12.1459    1.3832 C.ar      1 RES1    0.0000
     22 H9         5.8084   11.2848    1.0648 H         1 RES1    0.0000
     23 C14        6.1924   12.6860    2.4880 C.ar      1 RES1    0.0000
     24 C15        7.8155   10.9095    2.6717 C.3       1 RES1    0.0000
     25 H10        7.1128   10.2963    2.3377 H         1 RES1    0.0000
     26 H11        8.3054   10.4400    3.3916 H         1 RES1    0.0000
     27 C16        8.7817   11.2034    1.5379 C.2       1 RES1    0.0000
     28 C17        9.8566   13.0910    0.3378 C.ar      1 RES1    0.0000
     29 C18       10.8578   12.4428   -0.3693 C.ar      1 RES1    0.0000
     30 H12       11.0978   11.5506   -0.1478 H         1 RES1    0.0000
     31 C19       11.5109   13.1032   -1.4067 C.ar      1 RES1    0.0000
     32 H13       12.1923   12.6557   -1.8943 H         1 RES1    0.0000
     33 C20       11.1785   14.3969   -1.7295 C.ar      1 RES1    0.0000
     34 H14       11.6198   14.8349   -2.4472 H         1 RES1    0.0000
     35 C21       10.1920   15.0654   -1.0044 C.ar      1 RES1    0.0000
     36 H15        9.9655   15.9617   -1.2209 H         1 RES1    0.0000
     37 C22        9.5495   14.4226    0.0238 C.ar      1 RES1    0.0000
     38 C23        7.9176   16.1543    0.3553 C.3       1 RES1    0.0000
     39 H16        8.6096   16.8296    0.1451 H         1 RES1    0.0000
     40 H17        7.3509   16.5190    1.0813 H         1 RES1    0.0000
     41 C24        7.0574   15.9292   -0.8760 C.2       1 RES1    0.0000
     42 C25        5.9659   14.1229   -2.1688 C.ar      1 RES1    0.0000
     43 C26        5.0474   14.8430   -2.9285 C.ar      1 RES1    0.0000
     44 H18        4.8676   15.7515   -2.7155 H         1 RES1    0.0000
     45 C27        4.3952   14.2409   -3.9941 C.ar      1 RES1    0.0000
     46 H19        3.7625   14.7359   -4.5003 H         1 RES1    0.0000
     47 C28        4.6605   12.9310   -4.3202 C.ar      1 RES1    0.0000
     48 H20        4.2241   12.5283   -5.0615 H         1 RES1    0.0000
     49 C29        5.5713   12.1906   -3.5597 C.ar      1 RES1    0.0000
     50 H21        5.7559   11.2848   -3.7803 H         1 RES1    0.0000
     51 C30        6.1953   12.7818   -2.4924 C.ar      1 RES1    0.0000
     52 C31        7.5278   10.8319   -1.9895 C.3       1 RES1    0.0000
     53 H22        6.7279   10.2813   -2.1844 H         1 RES1    0.0000
     54 H23        7.9847   10.4305   -1.2072 H         1 RES1    0.0000
     55 C32        8.4648   10.7763   -3.1858 C.2       1 RES1    0.0000
     56 C33        9.8732   12.2313   -4.5695 C.ar      1 RES1    0.0000
     57 C34       10.7071   11.3282   -5.1909 C.ar      1 RES1    0.0000
     58 H24       10.8257   10.4603   -4.8233 H         1 RES1    0.0000
     59 C35       11.3690   11.6862   -6.3480 C.ar      1 RES1    0.0000
     60 H25       11.9415   11.0678   -6.7888 H         1 RES1    0.0000
     61 C36       11.1863   12.9513   -6.8523 C.ar      1 RES1    0.0000
     62 H26       11.6324   13.1941   -7.6538 H         1 RES1    0.0000
     63 C37       10.3698   13.8884   -6.2270 C.ar      1 RES1    0.0000
     64 H27       10.2629   14.7616   -6.5889 H         1 RES1    0.0000
     65 C38        9.7167   13.5168   -5.0628 C.ar      1 RES1    0.0000
     66 C39        8.6854   15.6634   -4.7253 C.3       1 RES1    0.0000
     67 H28        9.5398   16.1380   -4.6591 H         1 RES1    0.0000
     68 H29        8.0284   16.0892   -4.1362 H         1 RES1    0.0000
     69 H30        8.3627   15.6986   -5.6500 H         1 RES1    0.0000
     70 C40        6.8805   16.2424    6.7102 C.3       1 RES1    0.0000
     71 H31        6.2303   15.5183    6.8298 H         1 RES1    0.0000
     72 H32        6.4062   17.0804    6.5287 H         1 RES1    0.0000
     73 H33        7.4151   16.3387    7.5251 H         1 RES1    0.0000
     74 N1         9.0315   11.9852    6.0880 N.pl3     1 RES1    0.0000
     75 N2         6.5500   14.4453    4.0872 N.am      1 RES1    0.0000
     76 H34        6.7046   13.8694    4.7330 H         1 RES1    0.0000
     77 N3         9.1121   12.5033    1.3813 N.am      1 RES1    0.0000
     78 H35        8.8273   13.0517    2.0093 H         1 RES1    0.0000
     79 N4         6.6754   14.6546   -1.0788 N.am      1 RES1    0.0000
     80 H36        6.8980   14.0823   -0.4489 H         1 RES1    0.0000
     81 N5         9.1189   11.9332   -3.4165 N.am      1 RES1    0.0000
     82 H37        9.0713   12.5540   -2.7949 H         1 RES1    0.0000
     83 O1         7.8165   12.1631    6.1838 O.2       1 RES1    0.0000
     84 O2         9.5903   11.0394    6.5892 O.2       1 RES1    0.0000
     85 O3         8.4804   14.7082    5.9325 O.3       1 RES1    0.0000
     86 O4         6.7522   16.6472    3.5222 O.2       1 RES1    0.0000
     87 O5         7.1925   12.0619    3.2203 O.3       1 RES1    0.0000
     88 O6         9.2258   10.2792    0.8741 O.2       1 RES1    0.0000
     89 O7         8.5581   14.9656    0.8212 O.3       1 RES1    0.0000
     90 O8         6.7240   16.8719   -1.5724 O.2       1 RES1    0.0000
     91 O9         7.1079   12.1512   -1.6515 O.3       1 RES1    0.0000
     92 O10        8.6038    9.7472   -3.8140 O.2       1 RES1    0.0000
     93 O11        8.8643   14.3071   -4.3363 O.3       1 RES1    0.0000
@<TRIPOS>BOND
     1    1    2 ar
     2    2    3 1
     3    4    2 ar
     4    5    4 1
     5    6    4 ar
     6    7    6 1
     7    8    6 ar
     8    9    8 1
     9   10    1 ar
    10   11   12 1
    11   13   11 1
    12   14   15 ar
    13   15   16 1
    14   17   15 ar
    15   18   17 1
    16   19   17 ar
    17   20   19 1
    18   21   19 ar
    19   22   21 1
    20   23   14 ar
    21   24   25 1
    22   26   24 1
    23   27   24 1
    24   28   29 ar
    25   29   30 1
    26   31   29 ar
    27   32   31 1
    28   33   31 ar
    29   34   33 1
    30   35   33 ar
    31   36   35 1
    32   37   28 ar
    33   38   39 1
    34   40   38 1
    35   41   38 1
    36   42   43 ar
    37   43   44 1
    38   45   43 ar
    39   46   45 1
    40   47   45 ar
    41   48   47 1
    42   49   47 ar
    43   50   49 1
    44   51   42 ar
    45   52   53 1
    46   54   52 1
    47   55   52 1
    48   56   57 ar
    49   57   58 1
    50   59   57 ar
    51   60   59 1
    52   61   59 ar
    53   62   61 1
    54   63   61 ar
    55   64   63 1
    56   65   56 ar
    57   66   67 1
    58   68   66 1
    59   69   66 1
    60   70   11 1
    61   71   70 1
    62   72   70 1
    63   73   70 1
    64   74    1 1
    65   75   13 1
    66   76   75 1
    67   77   27 1
    68   78   77 1
    69   79   41 1
    70   80   79 1
    71   81   55 1
    72   82   81 1
    73   83   74 2
    74   84   74 2
    75   85   10 1
    76   86   13 2
    77   87   23 1
    78   88   27 2
    79   89   37 1
    80   90   41 2
    81   91   51 1
    82   92   55 2
    83   93   65 1
    84    8   10 ar
    85   11   85 1
    86   14   75 1
    87   21   23 ar
    88   24   87 1
    89   28   77 1
    90   35   37 ar
    91   38   89 1
    92   42   79 1
    93   49   51 ar
    94   52   91 1
    95   56   81 1
    96   63   65 ar
    97   66   93 1
@<TRIPOS>SUBSTRUCTURE
     1 RES1 1

@<TRIPOS>CRYSIN
   9.7196   13.5602   27.3740  90.0000  90.0000  90.0000  19 1

