# MOL2 file generated by ConQuest
# Please check atom types

@<TRIPOS>MOLECULE
EFIFUV
    42    45     1
SMALL
NO_CHARGES
****
Generated from CSD

@<TRIPOS>ATOM
      1 O1        10.6350    2.4316    4.7564 O.3       1 RES1    0.0000
      2 O2        11.5393    1.2495    3.0708 O.2       1 RES1    0.0000
      3 O3         8.2770    3.8130    3.3450 O.3       1 RES1    0.0000
      4 N1         9.2675    1.6554    3.1924 N.am      1 RES1    0.0000
      5 N2         6.9438    3.9953    2.9127 N.2       1 RES1    0.0000
      6 C1        10.5676    1.7195    3.6017 C.2       1 RES1    0.0000
      7 C2         9.2870    2.6909    5.2436 C.3       1 RES1    0.0000
      8 C3         8.4187    2.5031    3.9919 C.3       1 RES1    0.0000
      9 C4         6.9831    2.0283    4.1580 C.3       1 RES1    0.0000
     10 C5         6.2279    3.0217    3.3386 C.2       1 RES1    0.0000
     11 C6         8.8627    0.9720    1.9940 C.ar      1 RES1    0.0000
     12 C7         9.1655   -0.3700    1.8581 C.ar      1 RES1    0.0000
     13 C8         8.7385   -1.0417    0.7264 C.ar      1 RES1    0.0000
     14 C9         7.9950   -0.3938   -0.2464 C.ar      1 RES1    0.0000
     15 C10        7.7122    0.9550   -0.1033 C.ar      1 RES1    0.0000
     16 C11        8.1590    1.6462    1.0149 C.ar      1 RES1    0.0000
     17 C12        8.9893    1.7528    6.3912 C.3       1 RES1    0.0000
     18 C13        9.9150    1.9959    7.5785 C.3       1 RES1    0.0000
     19 C14        4.8021    2.9341    3.0319 C.ar      1 RES1    0.0000
     20 C15        4.1978    3.8336    2.1497 C.ar      1 RES1    0.0000
     21 C16        2.8611    3.7397    1.8589 C.ar      1 RES1    0.0000
     22 C17        2.0822    2.7412    2.4279 C.ar      1 RES1    0.0000
     23 C18        2.6677    1.8392    3.2981 C.ar      1 RES1    0.0000
     24 C19        4.0143    1.9306    3.6017 C.ar      1 RES1    0.0000
     25 H1         9.2771    3.6326    5.5710 H         1 RES1    0.0000
     26 H2         9.0711    0.7905    6.0478 H         1 RES1    0.0000
     27 H3         8.0009    1.9122    6.6757 H         1 RES1    0.0000
     28 H4        10.9238    1.7827    7.3750 H         1 RES1    0.0000
     29 H5         9.9078    2.9684    7.8519 H         1 RES1    0.0000
     30 H6         9.6584    1.3776    8.3525 H         1 RES1    0.0000
     31 H7         6.8541    1.0906    3.8226 H         1 RES1    0.0000
     32 H8         6.6930    2.0746    5.1101 H         1 RES1    0.0000
     33 H9         9.7207   -0.8134    2.5590 H         1 RES1    0.0000
     34 H10        8.9382   -1.9762    0.6040 H         1 RES1    0.0000
     35 H11        7.6658   -0.8495   -1.0014 H         1 RES1    0.0000
     36 H12        7.2013    1.4252   -0.7868 H         1 RES1    0.0000
     37 H13        7.9581    2.5912    1.1285 H         1 RES1    0.0000
     38 H14        4.7749    4.5247    1.7643 H         1 RES1    0.0000
     39 H15        2.4371    4.4083    1.2557 H         1 RES1    0.0000
     40 H16        1.1069    2.6486    2.2014 H         1 RES1    0.0000
     41 H17        2.0976    1.1398    3.6716 H         1 RES1    0.0000
     42 H18        4.4165    1.3071    4.2041 H         1 RES1    0.0000
@<TRIPOS>BOND
     1    1    6 1
     2    2    6 2
     3    3    5 1
     4    4    6 1
     5    5   10 2
     6    7    1 1
     7    8    3 1
     8    9    8 1
     9   10    9 1
    10   11    4 1
    11   12   11 ar
    12   13   12 ar
    13   14   13 ar
    14   15   14 ar
    15   16   11 ar
    16   17    7 1
    17   18   17 1
    18   19   10 1
    19   20   19 ar
    20   21   20 ar
    21   22   21 ar
    22   23   22 ar
    23   24   19 ar
    24   25    7 1
    25   26   17 1
    26   27   17 1
    27   28   18 1
    28   29   18 1
    29   30   18 1
    30   31    9 1
    31   32    9 1
    32   33   12 1
    33   34   13 1
    34   35   14 1
    35   36   15 1
    36   37   16 1
    37   38   20 1
    38   39   21 1
    39   40   22 1
    40   41   23 1
    41   42   24 1
    42    4    8 1
    43    7    8 1
    44   15   16 ar
    45   23   24 ar
@<TRIPOS>SUBSTRUCTURE
     1 RES1 1

@<TRIPOS>CRYSIN
  12.2721   16.3999    8.2479  90.0000 105.5180  90.0000  14 1

