# MOL2 file generated by ConQuest
# Please check atom types

@<TRIPOS>MOLECULE
EFIGAC
    49    53     1
SMALL
NO_CHARGES
****
Generated from CSD

@<TRIPOS>ATOM
      1 O1         5.0717    3.5290    0.5123 O.3       1 RES1    0.0000
      2 O2         6.3753    4.7809   -0.8379 O.2       1 RES1    0.0000
      3 O3         7.1891    2.6770    2.5940 O.3       1 RES1    0.0000
      4 N1         6.7259    4.6806    1.4347 N.am      1 RES1    0.0000
      5 N2         8.0899    2.8825    3.6753 N.2       1 RES1    0.0000
      6 C1         6.1031    4.3747    0.2692 C.2       1 RES1    0.0000
      7 C2         4.9047    3.3607    1.9587 C.3       1 RES1    0.0000
      8 C3         6.2871    3.8118    2.5078 C.3       1 RES1    0.0000
      9 C4         6.3677    4.4349    3.8883 C.3       1 RES1    0.0000
     10 H1         6.3905    5.4239    3.8419 H         1 RES1    0.0000
     11 H2         5.6130    4.1502    4.4615 H         1 RES1    0.0000
     12 C5         7.6711    3.8765    4.3729 C.2       1 RES1    0.0000
     13 C6         7.8900    5.5151    1.4958 C.ar      1 RES1    0.0000
     14 C7         7.7222    6.8749    1.6734 C.ar      1 RES1    0.0000
     15 H3         6.8503    7.2454    1.7513 H         1 RES1    0.0000
     16 C8         8.8377    7.6894    1.7361 C.ar      1 RES1    0.0000
     17 H4         8.7291    8.6270    1.8496 H         1 RES1    0.0000
     18 C9        10.1078    7.1544    1.6362 C.ar      1 RES1    0.0000
     19 H5        10.8697    7.7189    1.6937 H         1 RES1    0.0000
     20 C10       10.2617    5.7922    1.4516 C.ar      1 RES1    0.0000
     21 H6        11.1332    5.4212    1.3714 H         1 RES1    0.0000
     22 C11        9.1524    4.9657    1.3828 C.ar      1 RES1    0.0000
     23 H7         9.2583    4.0302    1.2588 H         1 RES1    0.0000
     24 C12        3.8130    4.3117    2.4289 C.ar      1 RES1    0.0000
     25 C13        3.6010    5.5325    1.7830 C.ar      1 RES1    0.0000
     26 H8         4.0964    5.7396    0.9994 H         1 RES1    0.0000
     27 C14        2.6812    6.4430    2.2657 C.ar      1 RES1    0.0000
     28 H9         2.5414    7.2629    1.8076 H         1 RES1    0.0000
     29 C15        1.9636    6.1633    3.4136 C.ar      1 RES1    0.0000
     30 H10        1.3427    6.7961    3.7567 H         1 RES1    0.0000
     31 C16        2.1569    4.9571    4.0580 C.ar      1 RES1    0.0000
     32 H11        1.6582    4.7587    4.8413 H         1 RES1    0.0000
     33 C17        3.0715    4.0319    3.5740 C.ar      1 RES1    0.0000
     34 H12        3.1929    3.2044    4.0253 H         1 RES1    0.0000
     35 C18        4.6061    1.8946    2.2079 C.3       1 RES1    0.0000
     36 H13        5.3499    1.3492    1.8758 H         1 RES1    0.0000
     37 H14        3.7826    1.6447    1.7395 H         1 RES1    0.0000
     38 H15        4.4934    1.7432    3.1699 H         1 RES1    0.0000
     39 C19        8.4433    4.3348    5.5377 C.ar      1 RES1    0.0000
     40 C20        9.7540    3.9064    5.7001 C.ar      1 RES1    0.0000
     41 H16       10.1584    3.3663    5.0313 H         1 RES1    0.0000
     42 C21       10.4732    4.2582    6.8206 C.ar      1 RES1    0.0000
     43 H17       11.3619    3.9425    6.9319 H         1 RES1    0.0000
     44 C22        9.9057    5.0637    7.7773 C.ar      1 RES1    0.0000
     45 H18       10.4001    5.2998    8.5535 H         1 RES1    0.0000
     46 C23        8.6261    5.5251    7.6123 C.ar      1 RES1    0.0000
     47 H19        8.2444    6.0972    8.2680 H         1 RES1    0.0000
     48 C24        7.8830    5.1674    6.4969 C.ar      1 RES1    0.0000
     49 H20        6.9962    5.4900    6.3909 H         1 RES1    0.0000
@<TRIPOS>BOND
     1    1    6 1
     2    2    6 2
     3    3    5 1
     4    4    6 1
     5    5   12 2
     6    7    1 1
     7    8    3 1
     8    9    8 1
     9   10    9 1
    10   11    9 1
    11   12    9 1
    12   13    4 1
    13   14   13 ar
    14   15   14 1
    15   16   14 ar
    16   17   16 1
    17   18   16 ar
    18   19   18 1
    19   20   18 ar
    20   21   20 1
    21   22   13 ar
    22   23   22 1
    23   24    7 1
    24   25   24 ar
    25   26   25 1
    26   27   25 ar
    27   28   27 1
    28   29   27 ar
    29   30   29 1
    30   31   29 ar
    31   32   31 1
    32   33   24 ar
    33   34   33 1
    34   35    7 1
    35   36   35 1
    36   37   35 1
    37   38   35 1
    38   39   12 1
    39   40   39 ar
    40   41   40 1
    41   42   40 ar
    42   43   42 1
    43   44   42 ar
    44   45   44 1
    45   46   44 ar
    46   47   46 1
    47   48   39 ar
    48   49   48 1
    49    4    8 1
    50    7    8 1
    51   20   22 ar
    52   31   33 ar
    53   46   48 ar
@<TRIPOS>SUBSTRUCTURE
     1 RES1 1

@<TRIPOS>CRYSIN
  11.2366   13.4923   13.5806  90.0000 105.3070  90.0000  14 1

