# MOL2 file generated by ConQuest
# Please check atom types

@<TRIPOS>MOLECULE
EFNBZE
    57    61     1
SMALL
NO_CHARGES
****
Generated from CSD

@<TRIPOS>ATOM
      1 C1         4.5924   -5.2849    1.7683 C.2       1 RES1    0.0000
      2 C2         3.5325   -4.3122    1.5138 C.ar      1 RES1    0.0000
      3 C3         2.2847   -4.7381    1.0691 C.ar      1 RES1    0.0000
      4 C4         1.3079   -3.8027    0.7340 C.ar      1 RES1    0.0000
      5 C5         1.5802   -2.4428    0.8443 C.ar      1 RES1    0.0000
      6 C6         2.8291   -2.0169    1.2889 C.ar      1 RES1    0.0000
      7 C7         3.8047   -2.9509    1.6232 C.ar      1 RES1    0.0000
      8 C8         5.9173   -5.1963    2.0280 C.2       1 RES1    0.0000
      9 C9         7.8423   -6.8261    2.4751 C.ar      1 RES1    0.0000
     10 C10        8.8271   -6.2721    1.6614 C.ar      1 RES1    0.0000
     11 C11       10.1635   -6.6070    1.8599 C.ar      1 RES1    0.0000
     12 C12       10.5160   -7.4947    2.8722 C.ar      1 RES1    0.0000
     13 C13        9.5312   -8.0488    3.6860 C.ar      1 RES1    0.0000
     14 C14        8.1948   -7.7139    3.4874 C.ar      1 RES1    0.0000
     15 C15        6.4229   -6.5169    2.1849 C.2       1 RES1    0.0000
     16 C16        6.3047   -9.6913    1.9720 C.ar      1 RES1    0.0000
     17 C17        7.2343   -9.5882    0.9410 C.ar      1 RES1    0.0000
     18 C18        8.3544  -10.4147    0.9291 C.ar      1 RES1    0.0000
     19 C19        8.5449  -11.3443    1.9482 C.ar      1 RES1    0.0000
     20 C20        7.6153  -11.4475    2.9791 C.ar      1 RES1    0.0000
     21 C21        6.4952  -10.6210    2.9910 C.ar      1 RES1    0.0000
     22 C22        5.3470   -7.3581    2.0016 C.2       1 RES1    0.0000
     23 C23        2.2190  -11.1154    2.6940 C.ar      1 RES1    0.0000
     24 C24        1.5993  -12.2935    2.2715 C.ar      1 RES1    0.0000
     25 C25        0.5147  -12.7428    2.9825 C.ar      1 RES1    0.0000
     26 C26        0.0024  -12.0810    4.0771 C.ar      1 RES1    0.0000
     27 C27        0.6209  -10.9206    4.4844 C.ar      1 RES1    0.0000
     28 C28        1.7269  -10.4382    3.7946 C.ar      1 RES1    0.0000
     29 C29        5.1212   -8.7923    2.0203 C.2       1 RES1    0.0000
     30 C30        3.8581   -9.2561    2.1230 C.2       1 RES1    0.0000
     31 C31        3.4445  -10.6623    1.9516 C.2       1 RES1    0.0000
     32 H1         2.0883   -5.7146    0.9894 H         1 RES1    0.0000
     33 H2         0.4117   -4.1091    0.4149 H         1 RES1    0.0000
     34 H3         0.8792   -1.7713    0.6041 H         1 RES1    0.0000
     35 H4         3.0243   -1.0390    1.3678 H         1 RES1    0.0000
     36 H5         4.7018   -2.6447    1.9431 H         1 RES1    0.0000
     37 H6         6.4063   -4.3887    2.1043 H         1 RES1    0.0000
     38 H7         8.5741   -5.6339    0.9342 H         1 RES1    0.0000
     39 H8        10.8711   -6.2094    1.2753 H         1 RES1    0.0000
     40 H9        11.4751   -7.7356    3.0156 H         1 RES1    0.0000
     41 H10        9.7842   -8.6870    4.4131 H         1 RES1    0.0000
     42 H11        7.4872   -8.1114    4.0720 H         1 RES1    0.0000
     43 H12        7.0973   -8.9209    0.2096 H         1 RES1    0.0000
     44 H13        8.9310   -9.9768    0.1892 H         1 RES1    0.0000
     45 H14        9.3495  -11.9377    1.9397 H         1 RES1    0.0000
     46 H15        7.7523  -12.1147    3.7106 H         1 RES1    0.0000
     47 H16        5.8354  -10.6881    3.7063 H         1 RES1    0.0000
     48 H17        1.9197  -12.7872    1.5443 H         1 RES1    0.0000
     49 H18       -0.7271  -12.4884    4.5565 H         1 RES1    0.0000
     50 H19        0.3194  -10.4599    5.2523 H         1 RES1    0.0000
     51 H20        2.1940   -9.6448    4.0983 H         1 RES1    0.0000
     52 H21        3.1274   -8.6376    2.2910 H         1 RES1    0.0000
     53 N1        -0.1100  -14.0097    2.5566 N.pl3     1 RES1    0.0000
     54 O1         4.2240   -6.6015    1.7386 O.3       1 RES1    0.0000
     55 O2         4.0281  -11.4329    1.2125 O.2       1 RES1    0.0000
     56 O3         0.4965  -14.7342    1.7819 O.2       1 RES1    0.0000
     57 O4        -1.2142  -14.2786    3.0309 O.2       1 RES1    0.0000
@<TRIPOS>BOND
     1    1    2 1
     2    2    3 ar
     3    3    4 ar
     4    4    5 ar
     5    5    6 ar
     6    6    7 ar
     7    7    2 ar
     8    8    1 2
     9    9   10 ar
    10   10   11 ar
    11   11   12 ar
    12   12   13 ar
    13   13   14 ar
    14   14    9 ar
    15   15    8 1
    16   16   17 ar
    17   17   18 ar
    18   18   19 ar
    19   19   20 ar
    20   20   21 ar
    21   21   16 ar
    22   22   15 2
    23   23   24 ar
    24   24   25 ar
    25   25   26 ar
    26   26   27 ar
    27   27   28 ar
    28   28   23 ar
    29   29   16 1
    30   30   29 2
    31   31   23 1
    32   32    3 1
    33   33    4 1
    34   34    5 1
    35   35    6 1
    36   36    7 1
    37   37    8 1
    38   38   10 1
    39   39   11 1
    40   40   12 1
    41   41   13 1
    42   42   14 1
    43   43   17 1
    44   44   18 1
    45   45   19 1
    46   46   20 1
    47   47   21 1
    48   48   24 1
    49   49   26 1
    50   50   27 1
    51   51   28 1
    52   52   30 1
    53   53   25 1
    54   54    1 1
    55   55   31 2
    56   56   53 2
    57   57   53 2
    58    9   15 1
    59   22   29 1
    60   22   54 1
    61   30   31 1
@<TRIPOS>SUBSTRUCTURE
     1 RES1 1

@<TRIPOS>CRYSIN
  11.4750   12.5050    9.2110 100.0500 107.1600 104.0400   2 1

