# MOL2 file generated by ConQuest
# Please check atom types

@<TRIPOS>MOLECULE
EFOVEC
   110   102     2
SMALL
NO_CHARGES
****
Generated from CSD

@<TRIPOS>ATOM
      1 C1        -4.1160    3.3383    8.0590 C.3       1 RES1    0.0000
      2 N1        -3.0876    4.2325    7.8526 N.2       1 RES1    0.0000
      3 C2        -3.6655    4.1721   10.0222 C.2       1 RES1    0.0000
      4 N2        -3.0876    4.2325    7.8526 N.2       1 RES1    0.0000
      5 C3        -4.2713    3.1742    9.5076 C.2       1 RES1    0.0000
      6 H1        -4.8372    2.5453    9.9405 H         1 RES1    0.0000
      7 H2        -3.3919    4.2231   11.0539 H         1 RES1    0.0000
      8 C4        -2.7425    4.7784    9.0629 C.3       1 RES1    0.0000
      9 C5        -1.6659    5.6654    9.3132 C.2       1 RES1    0.0000
     10 C6        -0.6906    6.0568    8.3761 C.3       1 RES1    0.0000
     11 N3        -0.6101    5.6569    7.0673 N.2       1 RES1    0.0000
     12 H3        -1.1649    5.0953    6.6770 H         1 RES1    0.0000
     13 C7         0.4368    6.9262    8.6197 C.2       1 RES1    0.0000
     14 H4         0.6408    7.3612    9.4393 H         1 RES1    0.0000
     15 H5         1.9728    7.4789    7.3490 H         1 RES1    0.0000
     16 N4        -0.6101    5.6569    7.0673 N.2       1 RES1    0.0000
     17 N5        -0.6101    5.6569    7.0673 N.2       1 RES1    0.0000
     18 C8         1.1761    6.8595    7.5600 C.2       1 RES1    0.0000
     19 C9         0.4576    6.2571    6.4533 C.3       1 RES1    0.0000
     20 C10        0.8392    6.1603    5.0973 C.2       1 RES1    0.0000
     21 C11       -1.5174    6.1777   10.7183 C.2       1 RES1    0.0000
     22 C12       -2.5176    6.9778   11.2820 C.2       1 RES1    0.0000
     23 H6        -3.2976    7.1844   10.7808 H         1 RES1    0.0000
     24 C13       -2.3724    7.4702   12.5723 C.2       1 RES1    0.0000
     25 H7        -3.0599    8.0045   12.9516 H         1 RES1    0.0000
     26 C14       -1.2438    7.1925   13.3052 C.2       1 RES1    0.0000
     27 H8        -1.1461    7.5442   14.1821 H         1 RES1    0.0000
     28 C15       -0.2529    6.4021   12.7613 C.2       1 RES1    0.0000
     29 H9         0.5286    6.2114   13.2662 H         1 RES1    0.0000
     30 C16       -0.3909    5.8838   11.4808 C.2       1 RES1    0.0000
     31 H10        0.2886    5.3251   11.1235 H         1 RES1    0.0000
     32 C17        1.9073    7.1031    4.6287 C.2       1 RES1    0.0000
     33 C18        1.7530    8.4825    4.8171 C.2       1 RES1    0.0000
     34 H11        0.9716    8.8140    5.2440 H         1 RES1    0.0000
     35 C19        2.7298    9.3732    4.3867 C.2       1 RES1    0.0000
     36 H12        2.6171   10.3066    4.5245 H         1 RES1    0.0000
     37 C20        3.8716    8.8953    3.7550 C.2       1 RES1    0.0000
     38 H13        4.5414    9.5018    3.4623 H         1 RES1    0.0000
     39 C21        4.0340    7.5332    3.5513 C.2       1 RES1    0.0000
     40 H14        4.8114    7.2084    3.1123 H         1 RES1    0.0000
     41 C22        3.0587    6.6424    3.9903 C.2       1 RES1    0.0000
     42 H15        3.1787    5.7099    3.8538 H         1 RES1    0.0000
     43 N6        -3.0876    4.2325    7.8526 Du        2 SUP2    0.0000
     44 H16       -2.7187    4.4216    7.0770 Du        2 SUP2    0.0000
     45 C23       -4.3877    3.2967    9.5027 Du        2 SUP2    0.0000
     46 H17       -5.0411    2.7601    9.9344 Du        2 SUP2    0.0000
     47 C24       -3.5336    4.1622   10.1064 Du        2 SUP2    0.0000
     48 H18       -3.4704    4.3325   11.0393 Du        2 SUP2    0.0000
     49 N7        -0.7889    5.9800    7.0002 Du        2 SUP2    0.0000
     50 O1        -1.9275    5.7289    6.3258 Du        2 SUP2    0.0000
     51 C25        0.5972    6.6424    8.6758 Du        2 SUP2    0.0000
     52 H19        0.9381    6.8273    9.5442 Du        2 SUP2    0.0000
     53 C26        1.2300    6.8970    7.5075 Du        2 SUP2    0.0000
     54 H20        2.0308    7.3899    7.3953 Du        2 SUP2    0.0000
     55 O2        -4.4873    3.2951    9.3027 Du        2 SUP2    0.0000
     56 O3        -3.7019    4.5806    9.9600 Du        2 SUP2    0.0000
     57 C27       -4.5693    3.6401    9.3978 Du        2 SUP2    0.0000
     58 O4        -5.4471    3.2118   10.0125 Du        2 SUP2    0.0000
     59 N8        -3.2168    4.3420    7.8612 Du        2 SUP2    0.0000
     60 O5        -3.0156    5.0041    6.7331 Du        2 SUP2    0.0000
     61 O6         1.0793    7.0970    7.3087 Du        2 SUP2    0.0000
     62 O7         0.4168    6.7607    8.7112 Du        2 SUP2    0.0000
     63 C28       -3.4695    4.0756   10.1186 Du        2 SUP2    0.0000
     64 C29        1.1555    7.0089    7.4660 Du        2 SUP2    0.0000
     65 C30        0.4142    6.9807    8.5161 Du        2 SUP2    0.0000
     66 O8        -3.7089    4.2190   11.1954 Du        2 SUP2    0.0000
     67 O9         0.8551    7.5920    9.3966 Du        2 SUP2    0.0000
     68 O10        2.2372    7.3627    7.5490 Du        2 SUP2    0.0000
     69 C1A        0.2489    5.3136    4.1364 C.3       1 RES1    0.0000
     70 N1A       -0.7795    4.4194    4.3428 N.2       1 RES1    0.0000
     71 C2A       -0.2016    4.4798    2.1732 C.2       1 RES1    0.0000
     72 N1A       -0.7795    4.4194    4.3428 N.2       1 RES1    0.0000
     73 C3A        0.4042    5.4778    2.6879 C.2       1 RES1    0.0000
     74 H1A        0.9701    6.1066    2.2549 H         1 RES1    0.0000
     75 H2A       -0.4752    4.4288    1.1415 H         1 RES1    0.0000
     76 C4A       -1.1246    3.8735    3.1325 C.3       1 RES1    0.0000
     77 C5A       -2.2012    2.9865    2.8823 C.2       1 RES1    0.0000
     78 C6A       -3.1765    2.5951    3.8194 C.3       1 RES1    0.0000
     79 N3A       -3.2570    2.9950    5.1282 N.2       1 RES1    0.0000
     80 H3A       -2.7022    3.5566    5.5184 H         1 RES1    0.0000
     81 C7A       -4.3039    1.7257    3.5757 C.2       1 RES1    0.0000
     82 H4A       -4.5079    1.2907    2.7562 H         1 RES1    0.0000
     83 H5A       -5.8399    1.1731    4.8465 H         1 RES1    0.0000
     84 N3A       -3.2570    2.9950    5.1282 N.2       1 RES1    0.0000
     85 N3A       -3.2570    2.9950    5.1282 N.2       1 RES1    0.0000
     86 C8A       -5.0432    1.7924    4.6355 C.2       1 RES1    0.0000
     87 C9A       -4.3247    2.3948    5.7421 C.3       1 RES1    0.0000
     88 C10A      -4.7063    2.4916    7.0981 C.2       1 RES1    0.0000
     89 C11A      -2.3497    2.4742    1.4771 C.2       1 RES1    0.0000
     90 C12A      -1.3495    1.6741    0.9134 C.2       1 RES1    0.0000
     91 H6A       -0.5695    1.4675    1.4147 H         1 RES1    0.0000
     92 C13A      -1.4947    1.1817   -0.3768 C.2       1 RES1    0.0000
     93 H7A       -0.8072    0.6474   -0.7561 H         1 RES1    0.0000
     94 C14A      -2.6233    1.4595   -1.1098 C.2       1 RES1    0.0000
     95 H8A       -2.7210    1.1077   -1.9866 H         1 RES1    0.0000
     96 C15A      -3.6142    2.2498   -0.5659 C.2       1 RES1    0.0000
     97 H9A       -4.3957    2.4405   -1.0708 H         1 RES1    0.0000
     98 C16A      -3.4762    2.7681    0.7147 C.2       1 RES1    0.0000
     99 H10A      -4.1557    3.3268    1.0720 H         1 RES1    0.0000
    100 C17A      -5.7744    1.5489    7.5668 C.2       1 RES1    0.0000
    101 C18A      -5.6201    0.1694    7.3784 C.2       1 RES1    0.0000
    102 H11A      -4.8387   -0.1621    6.9514 H         1 RES1    0.0000
    103 C19A      -6.5969   -0.7213    7.8087 C.2       1 RES1    0.0000
    104 H12A      -6.4842   -1.6546    7.6709 H         1 RES1    0.0000
    105 C20A      -7.7387   -0.2434    8.4405 C.2       1 RES1    0.0000
    106 H13A      -8.4085   -0.8499    8.7332 H         1 RES1    0.0000
    107 C21A      -7.9011    1.1187    8.6441 C.2       1 RES1    0.0000
    108 H14A      -8.6785    1.4435    9.0832 H         1 RES1    0.0000
    109 C22A      -6.9258    2.0095    8.2051 C.2       1 RES1    0.0000
    110 H15A      -7.0458    2.9420    8.3417 H         1 RES1    0.0000
@<TRIPOS>BOND
     1    1    2 1
     2    2    8 1
     3    3    5 1
     4    4    1 1
     5    5    1 1
     6    6    5 1
     7    7    3 1
     8    8    3 1
     9    9    8 1
    10   10    9 1
    11   11   10 1
    12   12   11 1
    13   13   10 1
    14   14   13 1
    15   15   18 1
    16   16   10 1
    17   17   10 1
    18   18   13 1
    19   19   11 1
    20   20   19 1
    21   21    9 1
    22   22   21 1
    23   23   22 1
    24   24   22 1
    25   25   24 1
    26   26   24 1
    27   27   26 1
    28   28   26 1
    29   29   28 1
    30   30   21 1
    31   31   30 1
    32   32   20 1
    33   33   32 1
    34   34   33 1
    35   35   33 1
    36   36   35 1
    37   37   35 1
    38   38   37 1
    39   39   37 1
    40   40   39 1
    41   41   32 1
    42   42   41 1
    43   69   20 1
    44   70   69 1
    45   71   73 1
    46   72   69 1
    47   73   69 1
    48   74   73 1
    49   75   71 1
    50   76   70 1
    51   77   76 1
    52   78   77 1
    53   79   78 1
    54   80   79 1
    55   81   78 1
    56   82   81 1
    57   83   86 1
    58   84   78 1
    59   85   78 1
    60   86   81 1
    61   87   79 1
    62   88    1 1
    63   89   77 1
    64   90   89 1
    65   91   90 1
    66   92   90 1
    67   93   92 1
    68   94   92 1
    69   95   94 1
    70   96   94 1
    71   97   96 1
    72   98   89 1
    73   99   98 1
    74  100   88 1
    75  101  100 1
    76  102  101 1
    77  103  101 1
    78  104  103 1
    79  105  103 1
    80  106  105 1
    81  107  105 1
    82  108  107 1
    83  109  100 1
    84  110  109 1
    85    4    8 1
    86   12   16 1
    87   12   17 1
    88   16   19 1
    89   17   19 1
    90   18   19 1
    91   28   30 1
    92   39   41 1
    93   71   76 1
    94   72   76 1
    95   80   84 1
    96   80   85 1
    97   84   87 1
    98   85   87 1
    99   86   87 1
   100   87   88 1
   101   96   98 1
   102  107  109 1
@<TRIPOS>SUBSTRUCTURE
     1 RES1 1
     2 SUP2 43

@<TRIPOS>CRYSIN
   6.3512   10.4050   12.4640  95.5480  99.3480 100.2000   2 1

