# MOL2 file generated by ConQuest
# Please check atom types

@<TRIPOS>MOLECULE
EFUPUR
    51    53     1
SMALL
NO_CHARGES
****
Generated from CSD

@<TRIPOS>ATOM
      1 O1         5.3757    1.9956   13.9068 O.3       1 RES1    0.0000
      2 O2         6.6443    0.7219   15.2737 O.2       1 RES1    0.0000
      3 C1         6.2623    1.9081   12.7184 C.3       1 RES1    0.0000
      4 C2         6.4225    0.4473   12.3144 C.3       1 RES1    0.0000
      5 H1         7.0905    0.0412   12.9048 H         1 RES1    0.0000
      6 C3         6.8793    0.2253   10.8547 C.3       1 RES1    0.0000
      7 C4         5.4628    2.7001   11.6913 C.3       1 RES1    0.0000
      8 H2         5.4683    3.6383   11.9378 H         1 RES1    0.0000
      9 H3         4.5423    2.3948   11.6986 H         1 RES1    0.0000
     10 C5         8.2987    0.5347   10.6348 C.1       1 RES1    0.0000
     11 C6         4.5804    1.6141   16.0701 C.ar      1 RES1    0.0000
     12 N1         9.3872    0.8034   10.4208 N.1       1 RES1    0.0000
     13 C7         6.0585    1.0879    9.8764 C.3       1 RES1    0.0000
     14 H4         6.4395    1.0127    8.9880 H         1 RES1    0.0000
     15 H5         5.1495    0.7517    9.8407 H         1 RES1    0.0000
     16 C8         6.0338    2.5454   10.2859 C.3       1 RES1    0.0000
     17 H6         5.4917    3.0495    9.6587 H         1 RES1    0.0000
     18 H7         6.9350    2.9045   10.2601 H         1 RES1    0.0000
     19 N2         1.6608    2.3207   19.0082 N.pl3     1 RES1    0.0000
     20 C9         2.6651    2.0401   17.9728 C.ar      1 RES1    0.0000
     21 C10        5.6641    1.3768   15.0624 C.2       1 RES1    0.0000
     22 C11        5.1384   -0.3979   12.3970 C.3       1 RES1    0.0000
     23 H8         5.0136   -0.7367   13.2965 H         1 RES1    0.0000
     24 H9         4.3654    0.1365   12.1579 H         1 RES1    0.0000
     25 C12        7.7181   -2.2437   10.9339 C.2       1 RES1    0.0000
     26 O3         1.9710    2.1229   20.1793 O.2       1 RES1    0.0000
     27 C13        2.4610    2.5258   16.7132 C.ar      1 RES1    0.0000
     28 H10        1.6831    2.9900   16.5028 H         1 RES1    0.0000
     29 C14        3.7898    1.3328   18.3096 C.ar      1 RES1    0.0000
     30 H11        3.9024    1.0092   19.1736 H         1 RES1    0.0000
     31 C15        3.4358    2.3120   15.7586 C.ar      1 RES1    0.0000
     32 H12        3.3173    2.6421   14.8979 H         1 RES1    0.0000
     33 O4         0.6144    2.8046   18.6871 O.2       1 RES1    0.0000
     34 C16        6.5910   -1.2977   10.5915 C.3       1 RES1    0.0000
     35 H13        6.3710   -1.4110    9.6431 H         1 RES1    0.0000
     36 C17        5.3123   -1.5461   11.4187 C.3       1 RES1    0.0000
     37 H14        4.5422   -1.5993   10.8303 H         1 RES1    0.0000
     38 H15        5.3871   -2.3839   11.9014 H         1 RES1    0.0000
     39 C18        4.7514    1.1079   17.3449 C.ar      1 RES1    0.0000
     40 H16        5.5136    0.6169   17.5531 H         1 RES1    0.0000
     41 C19        7.5785    2.5851   13.0593 C.3       1 RES1    0.0000
     42 H17        7.4038    3.4238   13.4941 H         1 RES1    0.0000
     43 H18        8.0766    2.7399   12.2532 H         1 RES1    0.0000
     44 H19        8.0866    2.0208   13.6466 H         1 RES1    0.0000
     45 C20        8.2335   -2.3154   12.3407 C.3       1 RES1    0.0000
     46 H20        8.8328   -3.0608   12.4248 H         1 RES1    0.0000
     47 H21        7.4968   -2.4280   12.9464 H         1 RES1    0.0000
     48 H22        8.7004   -1.5040   12.5530 H         1 RES1    0.0000
     49 C21        8.2210   -3.0151    9.9946 C.2       1 RES1    0.0000
     50 H23        8.9025   -3.6132   10.1994 H         1 RES1    0.0000
     51 H24        7.8941   -2.9624    9.1249 H         1 RES1    0.0000
@<TRIPOS>BOND
     1    1    3 1
     2    2   21 2
     3    3    4 1
     4    4    5 1
     5    6    4 1
     6    7    3 1
     7    8    7 1
     8    9    7 1
     9   10    6 1
    10   11   21 1
    11   12   10 3
    12   13    6 1
    13   14   13 1
    14   15   13 1
    15   16    7 1
    16   17   16 1
    17   18   16 1
    18   19   20 1
    19   20   27 ar
    20   21    1 1
    21   22    4 1
    22   23   22 1
    23   24   22 1
    24   25   34 1
    25   26   19 2
    26   27   28 1
    27   29   20 ar
    28   30   29 1
    29   31   11 ar
    30   32   31 1
    31   33   19 2
    32   34    6 1
    33   35   34 1
    34   36   22 1
    35   37   36 1
    36   38   36 1
    37   39   11 ar
    38   40   39 1
    39   41    3 1
    40   42   41 1
    41   43   41 1
    42   44   41 1
    43   45   25 1
    44   46   45 1
    45   47   45 1
    46   48   45 1
    47   49   25 2
    48   50   49 1
    49   51   49 1
    50   13   16 1
    51   27   31 ar
    52   29   39 ar
    53   34   36 1
@<TRIPOS>SUBSTRUCTURE
     1 RES1 1

@<TRIPOS>CRYSIN
   6.8918    8.2201   17.5912  89.3210  80.1790  80.8180   2 1

