# MOL2 file generated by ConQuest
# Please check atom types

@<TRIPOS>MOLECULE
EGABAQ
    48    50     1
SMALL
USER_CHARGES
****
Generated from CSD

@<TRIPOS>ATOM
      1 O1         7.3468    4.0176    7.6104 O.3       1 RES1    0.0000
      2 O2         6.3665    4.5396    9.5649 O.2       1 RES1   -1.0000
      3 N1         6.5073    3.6363    8.7079 N.pl3     1 RES1    1.0000
      4 C1         6.0532    2.4174    8.5996 C.2       1 RES1    0.0000
      5 C2         6.5093    1.8105    7.3061 C.3       1 RES1    0.0000
      6 H1         6.9028    0.9294    7.4754 H         1 RES1    0.0000
      7 C3         7.6081    2.7910    6.8512 C.3       1 RES1    0.0000
      8 H2         7.4836    2.9797    5.8976 H         1 RES1    0.0000
      9 C4         5.3566    1.6764    6.3077 C.3       1 RES1    0.0000
     10 H3         4.6895    1.0877    6.6670 H         1 RES1    0.0000
     11 H4         5.6889    1.3173    5.4819 H         1 RES1    0.0000
     12 H5         4.9688    2.5396    6.1488 H         1 RES1    0.0000
     13 C5         5.1804    1.7978    9.6008 C.2       1 RES1    0.0000
     14 C6         4.4943    2.5285   10.4975 C.2       1 RES1    0.0000
     15 H6         4.5386    3.4531   10.4065 H         1 RES1    0.0000
     16 C7         3.6648    2.0025   11.6277 C.3       1 RES1    0.0000
     17 H7         3.7522    1.0481   11.6709 H         1 RES1    0.0000
     18 H8         2.7450    2.2340   11.4844 H         1 RES1    0.0000
     19 H9         3.9667    2.3892   12.4525 H         1 RES1    0.0000
     20 C8         5.1641    0.3013    9.5940 C.ar      1 RES1    0.0000
     21 C9         6.3345   -0.4126    9.8309 C.ar      1 RES1    0.0000
     22 H10        7.1309    0.0459    9.9688 H         1 RES1    0.0000
     23 C10        6.3304   -1.7983    9.8646 C.ar      1 RES1    0.0000
     24 H11        7.1183   -2.2625   10.0298 H         1 RES1    0.0000
     25 C11        5.1543   -2.4864    9.6520 C.ar      1 RES1    0.0000
     26 H12        5.1472   -3.4167    9.6737 H         1 RES1    0.0000
     27 C12        3.9944   -1.7912    9.4078 C.ar      1 RES1    0.0000
     28 H13        3.2008   -2.2546    9.2616 H         1 RES1    0.0000
     29 C13        3.9977   -0.4175    9.3777 C.ar      1 RES1    0.0000
     30 H14        3.2044    0.0380    9.2092 H         1 RES1    0.0000
     31 C14        9.0218    2.3406    7.0691 C.2       1 RES1    0.0000
     32 C15        9.9123    2.4761    6.0824 C.2       1 RES1    0.0000
     33 H15        9.5890    2.8103    5.2770 H         1 RES1    0.0000
     34 C16       11.3620    2.1506    6.1293 C.3       1 RES1    0.0000
     35 H16       11.5767    1.7701    6.9840 H         1 RES1    0.0000
     36 H17       11.8743    2.9512    5.9988 H         1 RES1    0.0000
     37 H18       11.5709    1.5199    5.4355 H         1 RES1    0.0000
     38 C17        9.3634    1.7220    8.3920 C.ar      1 RES1    0.0000
     39 C18        9.3235    2.4620    9.5670 C.ar      1 RES1    0.0000
     40 H19        9.1230    3.3692    9.5335 H         1 RES1    0.0000
     41 C19        9.5799    1.8605   10.7875 C.ar      1 RES1    0.0000
     42 H20        9.5387    2.3623   11.5697 H         1 RES1    0.0000
     43 C20        9.8939    0.5269   10.8489 C.ar      1 RES1    0.0000
     44 H21       10.0695    0.1282   11.6709 H         1 RES1    0.0000
     45 C21        9.9499   -0.2199    9.6985 C.ar      1 RES1    0.0000
     46 H22       10.1666   -1.1241    9.7384 H         1 RES1    0.0000
     47 C22        9.6813    0.3775    8.4752 C.ar      1 RES1    0.0000
     48 H23        9.7153   -0.1330    7.6985 H         1 RES1    0.0000
@<TRIPOS>BOND
     1    1    3 1
     2    2    3 1
     3    3    4 2
     4    4    5 1
     5    5    6 1
     6    7    1 1
     7    8    7 1
     8    9    5 1
     9   10    9 1
    10   11    9 1
    11   12    9 1
    12   13    4 1
    13   14   13 2
    14   15   14 1
    15   16   14 1
    16   17   16 1
    17   18   16 1
    18   19   16 1
    19   20   13 1
    20   21   20 ar
    21   22   21 1
    22   23   21 ar
    23   24   23 1
    24   25   23 ar
    25   26   25 1
    26   27   25 ar
    27   28   27 1
    28   29   20 ar
    29   30   29 1
    30   31    7 1
    31   32   31 2
    32   33   32 1
    33   34   32 1
    34   35   34 1
    35   36   34 1
    36   37   34 1
    37   38   31 1
    38   39   38 ar
    39   40   39 1
    40   41   39 ar
    41   42   41 1
    42   43   41 ar
    43   44   43 1
    44   45   43 ar
    45   46   45 1
    46   47   38 ar
    47   48   47 1
    48    5    7 1
    49   27   29 ar
    50   45   47 ar
@<TRIPOS>SUBSTRUCTURE
     1 RES1 1

@<TRIPOS>CRYSIN
   9.7549   15.8328   12.3179  90.0000  98.1740  90.0000  14 1

