# MOL2 file generated by ConQuest
# Please check atom types

@<TRIPOS>MOLECULE
EGAFAU
    36    33     3
SMALL
NO_CHARGES
****
Generated from CSD

@<TRIPOS>ATOM
      1 O1         4.6573    2.0005    4.6909 O.3       1 RES1    0.0000
      2 N1         4.5625    3.3684    4.8161 N.2       1 RES1    0.0000
      3 C1         3.8673    3.7095    5.8300 C.2       1 RES1    0.0000
      4 H1         3.4781    3.0846    6.3984 H         1 RES1    0.0000
      5 C2         3.7222    5.1671    6.0409 C.2       1 RES1    0.0000
      6 O2         4.1619    6.0331    5.3134 O.2       1 RES1    0.0000
      7 O3         3.0449    5.4232    7.1565 O.3       1 RES1    0.0000
      8 C3         2.8453    6.8319    7.4406 C.3       1 RES1    0.0000
      9 H2         2.3406    7.2336    6.7288 H         1 RES1    0.0000
     10 H3         3.6976    7.2667    7.5133 H         1 RES1    0.0000
     11 H4         2.3656    6.9267    8.2669 H         1 RES1    0.0000
     12 O4        -0.2753    5.3539   11.1215 O.3       2 RES2    0.0000
     13 N2         0.0509    4.0222   10.8808 N.2       2 RES2    0.0000
     14 C4         0.7335    3.8857    9.8213 C.2       2 RES2    0.0000
     15 H5         0.9630    4.6325    9.3151 H         2 RES2    0.0000
     16 C5         1.1669    2.5313    9.3876 C.2       2 RES2    0.0000
     17 O5         1.8260    2.3507    8.3921 O.2       2 RES2    0.0000
     18 O6         0.7584    1.5697   10.2144 O.3       2 RES2    0.0000
     19 C6         1.2031    0.2321    9.8842 C.3       2 RES2    0.0000
     20 H6         2.1623    0.2009    9.8995 H         2 RES2    0.0000
     21 H7         0.8889   -0.0022    9.0075 H         2 RES2    0.0000
     22 H8         0.8524   -0.3886   10.5261 H         2 RES2    0.0000
     23 O7         2.8339    3.4006    1.9662 O.3       3 RES3    0.0000
     24 N3         2.3719    2.1520    2.3370 N.2       3 RES3    0.0000
     25 C7         2.8124    1.2367    1.5668 C.2       3 RES3    0.0000
     26 H9         3.3631    1.4529    0.8496 H         3 RES3    0.0000
     27 C8         2.4399   -0.1751    1.8243 C.2       3 RES3    0.0000
     28 O8         2.7560   -1.0676    1.0775 O.2       3 RES3    0.0000
     29 O9         1.7388   -0.3356    2.9506 O.3       3 RES3    0.0000
     30 C9         1.3726   -1.7037    3.2719 C.3       3 RES3    0.0000
     31 H10        0.8974   -2.0910    2.5326 H         3 RES3    0.0000
     32 H11        0.8118   -1.7112    4.0513 H         3 RES3    0.0000
     33 H12        2.1662   -2.2147    3.4441 H         3 RES3    0.0000
     34 H13        5.1294    1.9276    3.9927 H         1 RES1    0.0000
     35 H14        2.4260    3.9723    2.4561 H         3 RES3    0.0000
     36 H15       -0.6848    5.2927   11.8510 H         2 RES2    0.0000
@<TRIPOS>BOND
     1    1    2 1
     2    2    3 2
     3    3    4 1
     4    5    3 1
     5    6    5 2
     6    7    5 1
     7    8    7 1
     8    9    8 1
     9   10    8 1
    10   11    8 1
    11   12   13 1
    12   13   14 2
    13   14   15 1
    14   16   14 1
    15   17   16 2
    16   18   16 1
    17   19   18 1
    18   20   19 1
    19   21   19 1
    20   22   19 1
    21   23   24 1
    22   24   25 2
    23   25   26 1
    24   27   25 1
    25   28   27 2
    26   29   27 1
    27   30   29 1
    28   31   30 1
    29   32   30 1
    30   33   30 1
    31   34    1 1
    32   35   23 1
    33   36   12 1
@<TRIPOS>SUBSTRUCTURE
     1 RES1 1
     2 RES2 12
     3 RES3 23

@<TRIPOS>CRYSIN
   3.8279   22.0805   16.2767  90.0000  90.1090  90.0000 231 1

