# MOL2 file generated by ConQuest
# Please check atom types

@<TRIPOS>MOLECULE
EGAFIC
    78    82     2
SMALL
NO_CHARGES
****
Generated from CSD

@<TRIPOS>ATOM
      1 C1        10.4647    2.8425    6.3753 C.ar      1 RES1    0.0000
      2 C2        11.2411    3.7873    5.7137 C.ar      1 RES1    0.0000
      3 H1        11.2772    3.8035    4.7840 H         1 RES1    0.0000
      4 C3        11.9591    4.7016    6.4636 C.ar      1 RES1    0.0000
      5 N1        12.7782    5.7008    5.7560 N.pl3     1 RES1    0.0000
      6 O1        12.7103    5.7373    4.5362 O.2       1 RES1    0.0000
      7 O2        13.4951    6.4342    6.4284 O.2       1 RES1    0.0000
      8 C4        11.9479    4.7380    7.8482 C.ar      1 RES1    0.0000
      9 H2        12.4535    5.3498    8.3324 H         1 RES1    0.0000
     10 C5        11.1359    3.8052    8.4604 C.ar      1 RES1    0.0000
     11 N2        11.0497    3.8186    9.9346 N.pl3     1 RES1    0.0000
     12 O3        11.8451    4.5016   10.5546 O.2       1 RES1    0.0000
     13 O4        10.1681    3.1478   10.4401 O.2       1 RES1    0.0000
     14 C6        10.3900    2.8736    7.7664 C.ar      1 RES1    0.0000
     15 H3         9.8447    2.2737    8.2217 H         1 RES1    0.0000
     16 C7         9.5642    1.8324    5.7058 C.2       1 RES1    0.0000
     17 O5         8.6236    1.3521    6.3208 O.2       1 RES1    0.0000
     18 N3         9.7463    1.5510    4.3920 N.am      1 RES1    0.0000
     19 O6        10.9784    1.7829    3.7349 O.3       1 RES1    0.0000
     20 C8        11.4191    0.4263    3.3404 C.3       1 RES1    0.0000
     21 H4        11.9033   -0.0284    4.0605 H         1 RES1    0.0000
     22 C9        12.2121    0.4830    2.0791 C.2       1 RES1    0.0000
     23 H5        13.0860    0.7959    2.0203 H         1 RES1    0.0000
     24 C10       11.5097    0.0299    1.0544 C.2       1 RES1    0.0000
     25 H6        11.8488   -0.0336    0.1916 H         1 RES1    0.0000
     26 C11       10.1132   -0.3712    1.4225 C.3       1 RES1    0.0000
     27 H7         9.9135   -1.2681    1.1118 H         1 RES1    0.0000
     28 H8         9.4634    0.2454    1.0490 H         1 RES1    0.0000
     29 C12       10.1173   -0.3056    2.9661 C.3       1 RES1    0.0000
     30 H9        10.1389   -1.2151    3.3303 H         1 RES1    0.0000
     31 C13        9.0027    0.5112    3.6815 C.3       1 RES1    0.0000
     32 H10        8.5596   -0.0659    4.3380 H         1 RES1    0.0000
     33 C14        7.9592    1.0766    2.7454 C.2       1 RES1    0.0000
     34 O7         7.1241    0.3949    2.2040 O.2       1 RES1    0.0000
     35 O8         8.0802    2.3982    2.5724 O.3       1 RES1    0.0000
     36 C15        7.1098    3.0079    1.6833 C.3       1 RES1    0.0000
     37 H11        7.2175    2.6509    0.7995 H         1 RES1    0.0000
     38 H12        7.2456    3.9582    1.6635 H         1 RES1    0.0000
     39 H13        6.2229    2.8178    1.9989 H         1 RES1    0.0000
     40 C16        7.4774    4.7294    6.3957 C.ar      2 RES2    0.0000
     41 C17        6.7576    3.7617    5.7047 C.ar      2 RES2    0.0000
     42 H14        6.7886    3.7228    4.7758 H         2 RES2    0.0000
     43 C18        5.9934    2.8554    6.4249 C.ar      2 RES2    0.0000
     44 N4         5.2414    1.8301    5.6819 N.pl3     2 RES2    0.0000
     45 O9         5.4080    1.7593    4.4740 O.2       2 RES2    0.0000
     46 O10        4.4833    1.1045    6.3225 O.2       2 RES2    0.0000
     47 C19        5.8931    2.8649    7.7967 C.ar      2 RES2    0.0000
     48 H15        5.3480    2.2677    8.2548 H         2 RES2    0.0000
     49 C20        6.6535    3.8168    8.4532 C.ar      2 RES2    0.0000
     50 N5         6.6049    3.8516    9.9224 N.pl3     2 RES2    0.0000
     51 O11        5.7290    3.2071   10.4893 O.2       2 RES2    0.0000
     52 O12        7.4462    4.5221   10.4953 O.2       2 RES2    0.0000
     53 C21        7.4468    4.7334    7.7916 C.ar      2 RES2    0.0000
     54 H16        7.9561    5.3465    8.2713 H         2 RES2    0.0000
     55 C22        8.4063    5.7297    5.7607 C.2       2 RES2    0.0000
     56 O13        9.3227    6.2221    6.4072 O.2       2 RES2    0.0000
     57 N6         8.2695    6.0045    4.4411 N.am      2 RES2    0.0000
     58 O14        7.0704    5.7354    3.7408 O.3       2 RES2    0.0000
     59 C23        6.6226    7.0647    3.2794 C.3       2 RES2    0.0000
     60 H17        6.0951    7.5369    3.9564 H         2 RES2    0.0000
     61 C24        5.8978    6.9239    1.9931 C.2       2 RES2    0.0000
     62 H18        5.0261    6.6113    1.9113 H         2 RES2    0.0000
     63 C25        6.6576    7.3039    0.9746 C.2       2 RES2    0.0000
     64 H19        6.3740    7.2849    0.0892 H         2 RES2    0.0000
     65 C26        8.0173    7.7679    1.3957 C.3       2 RES2    0.0000
     66 H20        8.2113    8.6485    1.0374 H         2 RES2    0.0000
     67 H21        8.7035    7.1487    1.1002 H         2 RES2    0.0000
     68 C27        7.9285    7.8029    2.9335 C.3       2 RES2    0.0000
     69 H22        7.8746    8.7322    3.2411 H         2 RES2    0.0000
     70 C28        9.0219    7.0461    3.7445 C.3       2 RES2    0.0000
     71 H23        9.4076    7.6562    4.4074 H         2 RES2    0.0000
     72 C29       10.1318    6.5020    2.8717 C.2       2 RES2    0.0000
     73 O15       10.9869    7.1996    2.3897 O.2       2 RES2    0.0000
     74 O16       10.0265    5.1830    2.6745 O.3       2 RES2    0.0000
     75 C30       11.0323    4.6045    1.8051 C.3       2 RES2    0.0000
     76 H24       11.0221    5.0573    0.9581 H         2 RES2    0.0000
     77 H25       10.8425    3.6731    1.6718 H         2 RES2    0.0000
     78 H26       11.8983    4.7002    2.2086 H         2 RES2    0.0000
@<TRIPOS>BOND
     1    1    2 ar
     2    2    3 1
     3    4    2 ar
     4    5    4 1
     5    6    5 2
     6    7    5 2
     7    8    4 ar
     8    9    8 1
     9   10    8 ar
    10   11   10 1
    11   12   11 2
    12   13   11 2
    13   14    1 ar
    14   15   14 1
    15   16    1 1
    16   17   16 2
    17   18   16 1
    18   19   18 1
    19   20   19 1
    20   21   20 1
    21   22   20 1
    22   23   22 1
    23   24   22 2
    24   25   24 1
    25   26   24 1
    26   27   26 1
    27   28   26 1
    28   29   20 1
    29   30   29 1
    30   31   18 1
    31   32   31 1
    32   33   31 1
    33   34   33 2
    34   35   33 1
    35   36   35 1
    36   37   36 1
    37   38   36 1
    38   39   36 1
    39   40   41 ar
    40   41   42 1
    41   43   41 ar
    42   44   43 1
    43   45   44 2
    44   46   44 2
    45   47   43 ar
    46   48   47 1
    47   49   47 ar
    48   50   49 1
    49   51   50 2
    50   52   50 2
    51   53   40 ar
    52   54   53 1
    53   55   40 1
    54   56   55 2
    55   57   55 1
    56   58   57 1
    57   59   58 1
    58   60   59 1
    59   61   59 1
    60   62   61 1
    61   63   61 2
    62   64   63 1
    63   65   63 1
    64   66   65 1
    65   67   65 1
    66   68   59 1
    67   69   68 1
    68   70   57 1
    69   71   70 1
    70   72   70 1
    71   73   72 2
    72   74   72 1
    73   75   74 1
    74   76   75 1
    75   77   75 1
    76   78   75 1
    77   10   14 ar
    78   26   29 1
    79   29   31 1
    80   49   53 ar
    81   65   68 1
    82   68   70 1
@<TRIPOS>SUBSTRUCTURE
     1 RES1 1
     2 RES2 40

@<TRIPOS>CRYSIN
   8.7157   10.8269   17.0677  79.8810  77.7730  78.2810   2 1

