# MOL2 file generated by ConQuest
# Please check atom types

@<TRIPOS>MOLECULE
EGAFEY
    23    24     1
SMALL
NO_CHARGES
****
Generated from CSD

@<TRIPOS>ATOM
      1 N1         5.4781    0.2196    1.2950 N.3       1 RES1    0.0000
      2 C1         6.1926    0.8581    2.4695 C.3       1 RES1    0.0000
      3 H1         6.9788    1.4323    2.2398 H         1 RES1    0.0000
      4 C2         5.0543    1.5569    3.2244 C.3       1 RES1    0.0000
      5 H2         4.5904    2.2426    2.6818 H         1 RES1    0.0000
      6 H3         5.3385    1.9365    4.0934 H         1 RES1    0.0000
      7 C3         4.2498    0.2498    3.3669 C.3       1 RES1    0.0000
      8 H4         3.3953    0.3072    3.8838 H         1 RES1    0.0000
      9 C4         4.1245   -0.1017    1.8577 C.3       1 RES1    0.0000
     10 H5         3.4567    0.5174    1.4446 H         1 RES1    0.0000
     11 O1         5.2811    1.2517    0.2866 O.3       1 RES1    0.0000
     12 C5         6.4794   -0.3204    3.3805 C.2       1 RES1    0.0000
     13 H6         7.3264   -0.7211    3.5351 H         1 RES1    0.0000
     14 C6         5.3180   -0.6864    3.9228 C.2       1 RES1    0.0000
     15 H7         5.1815   -1.3960    4.5388 H         1 RES1    0.0000
     16 C7         3.6859   -1.5261    1.5854 C.2       1 RES1    0.0000
     17 O2         3.0410   -2.1886    2.3622 O.2       1 RES1    0.0000
     18 O3         4.0390   -1.9397    0.3659 O.3       1 RES1    0.0000
     19 C8         3.4982   -3.2272   -0.0227 C.3       1 RES1    0.0000
     20 H8         3.8803   -3.9270    0.5468 H         1 RES1    0.0000
     21 H9         3.7243   -3.4073   -0.9593 H         1 RES1    0.0000
     22 H10        2.5240   -3.2169    0.0820 H         1 RES1    0.0000
     23 H11        5.8684    0.9798   -0.3065 H         1 RES1    0.0000
@<TRIPOS>BOND
     1    1    2 1
     2    2    3 1
     3    4    2 1
     4    5    4 1
     5    6    4 1
     6    7    4 1
     7    8    7 1
     8    9    1 1
     9   10    9 1
    10   11    1 1
    11   12    2 1
    12   13   12 1
    13   14    7 1
    14   15   14 1
    15   16    9 1
    16   17   16 2
    17   18   16 1
    18   19   18 1
    19   20   19 1
    20   21   19 1
    21   22   19 1
    22   23   11 1
    23    7    9 1
    24   12   14 2
@<TRIPOS>SUBSTRUCTURE
     1 RES1 1

@<TRIPOS>CRYSIN
   6.2611   11.0092   11.5953  90.0000 100.7270  90.0000  14 1

