# MOL2 file generated by ConQuest
# Please check atom types

@<TRIPOS>MOLECULE
EGAGAV
    54    56     1
SMALL
NO_CHARGES
****
Generated from CSD

@<TRIPOS>ATOM
      1 O1         8.3419    2.0144    7.9138 O.3       1 RES1    0.0000
      2 O2         7.5285   -0.9546    6.2543 O.2       1 RES1    0.0000
      3 O3         8.1570    1.5663   10.1101 O.2       1 RES1    0.0000
      4 O4         3.0460   -1.3387    9.9122 O.2       1 RES1    0.0000
      5 O5         9.3170   -0.8570    7.6307 O.3       1 RES1    0.0000
      6 O6         4.2732   -2.1408    8.3270 O.2       1 RES1    0.0000
      7 N1         4.0467   -1.3189    9.2005 N.pl3     1 RES1    0.0000
      8 N2         7.2755   -1.0710    9.5405 N.3       1 RES1    0.0000
      9 C1         8.0304   -0.6482    7.3027 C.2       1 RES1    0.0000
     10 C2         5.3528    2.6807    8.5500 C.ar      1 RES1    0.0000
     11 C3         5.1844    1.7549    6.3385 C.ar      1 RES1    0.0000
     12 C4         4.9035    3.0155    5.8268 C.ar      1 RES1    0.0000
     13 C5         5.0712   -0.2407    9.4957 C.3       1 RES1    0.0000
     14 C6         8.8373    3.3540    8.2461 C.3       1 RES1    0.0000
     15 C7         7.9968    1.2589    8.9524 C.2       1 RES1    0.0000
     16 C8         5.7873    0.1934    8.2013 C.3       1 RES1    0.0000
     17 C9         6.0555   -3.2716   10.8819 C.ar      1 RES1    0.0000
     18 C10        5.8049   -1.9734   11.3093 C.ar      1 RES1    0.0000
     19 C11        4.8724    4.1150    6.6752 C.ar      1 RES1    0.0000
     20 C12        7.3030   -0.0376    8.5096 C.3       1 RES1    0.0000
     21 C13        5.4187    1.5722    7.7006 C.ar      1 RES1    0.0000
     22 C14        5.0950    3.9431    8.0362 C.ar      1 RES1    0.0000
     23 C15       10.0998   -1.6242    6.6577 C.3       1 RES1    0.0000
     24 C16        6.1720   -0.7790   10.4588 C.3       1 RES1    0.0000
     25 C17        4.8011   -2.8508   13.3230 C.ar      1 RES1    0.0000
     26 C18        5.6766   -4.3568   11.6701 C.ar      1 RES1    0.0000
     27 C19        8.9888    4.1222    6.9769 C.3       1 RES1    0.0000
     28 C20        5.1835   -1.7656   12.5447 C.ar      1 RES1    0.0000
     29 C21       11.5172   -1.6421    7.1485 C.3       1 RES1    0.0000
     30 C22        5.0408   -4.1365   12.8847 C.ar      1 RES1    0.0000
     31 H1         8.0803   -1.1622   10.0084 H         1 RES1    0.0000
     32 H2         6.3417    0.0233   11.0306 H         1 RES1    0.0000
     33 H3         4.5572    0.4835    9.8575 H         1 RES1    0.0000
     34 H4         5.5714   -0.4960    7.5159 H         1 RES1    0.0000
     35 H5         6.5733   -3.3808   10.0412 H         1 RES1    0.0000
     36 H6         5.9696   -5.3399   11.4033 H         1 RES1    0.0000
     37 H7         4.6828   -4.8582   13.3635 H         1 RES1    0.0000
     38 H8         4.4948   -2.6860   14.3124 H         1 RES1    0.0000
     39 H9         5.0074   -0.8363   12.8726 H         1 RES1    0.0000
     40 H10        5.5226    2.5106    9.4793 H         1 RES1    0.0000
     41 H11        5.1066    4.7221    8.6976 H         1 RES1    0.0000
     42 H12        4.6818    5.0265    6.4183 H         1 RES1    0.0000
     43 H13        4.6645    3.1606    4.7850 H         1 RES1    0.0000
     44 H14        5.2048    0.9562    5.7525 H         1 RES1    0.0000
     45 H15        8.1152    3.8411    8.7993 H         1 RES1    0.0000
     46 H16        9.6719    3.2859    8.7556 H         1 RES1    0.0000
     47 H17        8.2174    4.0989    6.4150 H         1 RES1    0.0000
     48 H18        9.3204    5.0301    7.0928 H         1 RES1    0.0000
     49 H19        9.7878    3.6691    6.5243 H         1 RES1    0.0000
     50 H20        9.9542   -1.2284    5.7656 H         1 RES1    0.0000
     51 H21        9.7503   -2.6073    6.7069 H         1 RES1    0.0000
     52 H22       11.9248   -0.6536    7.1518 H         1 RES1    0.0000
     53 H23       11.9760   -2.2473    6.4959 H         1 RES1    0.0000
     54 H24       11.6564   -1.9608    8.1467 H         1 RES1    0.0000
@<TRIPOS>BOND
     1    1   14 1
     2    2    9 2
     3    3   15 2
     4    4    7 2
     5    5    9 1
     6    6    7 2
     7    7   13 1
     8    8   20 1
     9    9   20 1
    10   10   21 ar
    11   11   12 ar
    12   12   19 ar
    13   13   16 1
    14   14   27 1
    15   15    1 1
    16   16   20 1
    17   17   18 ar
    18   18   24 1
    19   19   22 ar
    20   20   15 1
    21   21   11 ar
    22   22   10 ar
    23   23    5 1
    24   24    8 1
    25   25   28 ar
    26   26   17 ar
    27   27   47 1
    28   28   18 ar
    29   29   23 1
    30   30   25 ar
    31   31    8 1
    32   32   24 1
    33   33   13 1
    34   34   16 1
    35   35   17 1
    36   36   26 1
    37   37   30 1
    38   38   25 1
    39   39   28 1
    40   40   10 1
    41   41   22 1
    42   42   19 1
    43   43   12 1
    44   44   11 1
    45   45   14 1
    46   46   14 1
    47   48   27 1
    48   49   27 1
    49   50   23 1
    50   51   23 1
    51   52   29 1
    52   53   29 1
    53   54   29 1
    54   13   24 1
    55   16   21 1
    56   26   30 ar
@<TRIPOS>SUBSTRUCTURE
     1 RES1 1

@<TRIPOS>CRYSIN
  10.8269   17.9070   11.1352  90.0000 100.9580  90.0000  14 1

