# MOL2 file generated by ConQuest
# Please check atom types

@<TRIPOS>MOLECULE
EGAMEF
    50    51     1
SMALL
NO_CHARGES
****
Generated from CSD

@<TRIPOS>ATOM
      1 C1         1.7269    5.2651   15.2233 C.3       1 RES1    0.0000
      2 H1         2.1248    4.7710   15.9433 H         1 RES1    0.0000
      3 H2         0.9332    4.8145   14.9259 H         1 RES1    0.0000
      4 H3         1.4982    6.1473   15.5270 H         1 RES1    0.0000
      5 C2         2.0428    6.0881   12.9335 C.3       1 RES1    0.0000
      6 H4         1.2296    5.6392   12.6914 H         1 RES1    0.0000
      7 H5         2.6396    6.0933   12.1816 H         1 RES1    0.0000
      8 H6         1.8438    6.9912   13.1905 H         1 RES1    0.0000
      9 C3         3.9184    6.0864   14.5117 C.3       1 RES1    0.0000
     10 H7         4.5449    6.1020   13.7853 H         1 RES1    0.0000
     11 H8         4.3121    5.6392   15.2636 H         1 RES1    0.0000
     12 H9         3.6897    6.9859   14.7560 H         1 RES1    0.0000
     13 C4         2.6950    5.3643   14.0928 C.3       1 RES1    0.0000
     14 C5         3.7389    3.5807   12.6459 C.2       1 RES1    0.0000
     15 C6         3.7738    2.0622   12.3358 C.3       1 RES1    0.0000
     16 C7         5.1120    1.5573   12.9012 C.3       1 RES1    0.0000
     17 H10        5.2094    0.6229   12.7062 H         1 RES1    0.0000
     18 H11        5.1274    1.6878   13.8511 H         1 RES1    0.0000
     19 H12        5.8340    2.0445   12.4981 H         1 RES1    0.0000
     20 C8         3.7789    1.8416   10.8126 C.3       1 RES1    0.0000
     21 H13        4.3368    2.5264   10.4101 H         1 RES1    0.0000
     22 H14        4.1993    0.9866   10.6331 H         1 RES1    0.0000
     23 C9         2.4150    1.8612   10.1040 C.3       1 RES1    0.0000
     24 C10        1.8243    0.4517    9.9983 C.3       1 RES1    0.0000
     25 H15        1.0039    0.4854    9.5010 H         1 RES1    0.0000
     26 H16        1.6510    0.1096   10.8795 H         1 RES1    0.0000
     27 H17        2.4478   -0.1235    9.5477 H         1 RES1    0.0000
     28 C11        2.6098    2.4255    8.6973 C.3       1 RES1    0.0000
     29 H18        2.9718    3.3129    8.7555 H         1 RES1    0.0000
     30 H19        1.7638    2.4551    8.2457 H         1 RES1    0.0000
     31 H20        3.2149    1.8652    8.2074 H         1 RES1    0.0000
     32 C12        0.7783    2.3999   11.9299 C.ar      1 RES1    0.0000
     33 C13       -0.5435    2.8467   12.0871 C.ar      1 RES1    0.0000
     34 H21       -0.9168    3.3877   11.4276 H         1 RES1    0.0000
     35 C14       -1.3024    2.5139   13.1782 C.ar      1 RES1    0.0000
     36 H22       -2.1658    2.8448   13.2776 H         1 RES1    0.0000
     37 C15       -0.7527    1.6778   14.1234 C.ar      1 RES1    0.0000
     38 C16        0.5620    1.2387   14.0319 C.ar      1 RES1    0.0000
     39 H23        0.9075    0.6751   14.6859 H         1 RES1    0.0000
     40 C17        1.3598    1.6336   12.9735 C.ar      1 RES1    0.0000
     41 N1         3.0006    3.9741   13.6778 N.am      1 RES1    0.0000
     42 H24        2.5740    3.3929   14.0827 H         1 RES1    0.0000
     43 N2         1.4836    2.7745   10.8007 N.pl3     1 RES1    0.0000
     44 H25        1.0152    3.1980   10.2784 H         1 RES1    0.0000
     45 N3         2.7153    1.2794   12.9783 N.pl3     1 RES1    0.0000
     46 H26        2.9534    0.9535   13.7407 H         1 RES1    0.0000
     47 N4        -1.5516    1.2724   15.2517 N.pl3     1 RES1    0.0000
     48 O1         4.4373    4.3433   11.9928 O.2       1 RES1    0.0000
     49 O2        -1.1342    0.3866   15.9990 O.2       1 RES1    0.0000
     50 O3        -2.6232    1.8548   15.4574 O.2       1 RES1    0.0000
@<TRIPOS>BOND
     1    1    2 1
     2    3    1 1
     3    4    1 1
     4    5    6 1
     5    7    5 1
     6    8    5 1
     7    9   10 1
     8   11    9 1
     9   12    9 1
    10   13    1 1
    11   14   15 1
    12   15   16 1
    13   16   17 1
    14   18   16 1
    15   19   16 1
    16   20   15 1
    17   21   20 1
    18   22   20 1
    19   23   20 1
    20   24   23 1
    21   25   24 1
    22   26   24 1
    23   27   24 1
    24   28   23 1
    25   29   28 1
    26   30   28 1
    27   31   28 1
    28   32   33 ar
    29   33   34 1
    30   35   33 ar
    31   36   35 1
    32   37   35 ar
    33   38   37 ar
    34   39   38 1
    35   40   32 ar
    36   41   13 1
    37   42   41 1
    38   43   23 1
    39   44   43 1
    40   45   15 1
    41   46   45 1
    42   47   37 1
    43   48   14 2
    44   49   47 2
    45   50   47 2
    46    5   13 1
    47    9   13 1
    48   14   41 1
    49   32   43 1
    50   38   40 ar
    51   40   45 1
@<TRIPOS>SUBSTRUCTURE
     1 RES1 1

@<TRIPOS>CRYSIN
  10.2548   17.3996   21.2408  90.0000  90.0000  90.0000  61 1

