# MOL2 file generated by ConQuest
# Please check atom types

@<TRIPOS>MOLECULE
EGAXAL01
    44    44     2
SMALL
NO_CHARGES
****
Generated from CSD

@<TRIPOS>ATOM
      1 O1         0.7395    2.0139    4.4731 O.2       1 RES1    0.0000
      2 O2         5.3570    1.5008    1.6542 O.2       1 RES1    0.0000
      3 O3        -0.6371    3.0737    0.3964 O.2       1 RES1    0.0000
      4 N1         4.0986    1.5160    1.7529 N.3       1 RES1    0.0000
      5 N2        -0.2206    3.0125    2.6773 N.am      1 RES1    0.0000
      6 N3         0.5602    4.7353    1.3365 N.am      1 RES1    0.0000
      7 C1         3.4117    2.2407    2.8476 C.3       1 RES1    0.0000
      8 C2         1.9700    1.9724    2.4526 C.2       1 RES1    0.0000
      9 C3         1.8896    1.2203    1.3694 C.2       1 RES1    0.0000
     10 C4         3.2132    0.7780    0.8314 C.3       1 RES1    0.0000
     11 C5         3.4204   -0.7257    0.9831 C.3       1 RES1    0.0000
     12 C6         3.4722    1.2234   -0.5996 C.3       1 RES1    0.0000
     13 C7         3.8394    1.6707    4.1841 C.3       1 RES1    0.0000
     14 C8         3.7686    3.7168    2.7746 C.3       1 RES1    0.0000
     15 C9         0.7976    2.3581    3.2954 C.2       1 RES1    0.0000
     16 C10       -1.5365    3.1800    3.3641 C.3       1 RES1    0.0000
     17 C11       -1.9842    4.6358    3.3112 C.3       1 RES1    0.0000
     18 C12       -2.5762    2.2832    2.7631 C.3       1 RES1    0.0000
     19 C13       -0.1081    3.5885    1.3494 C.2       1 RES1    0.0000
     20 C14        0.6771    5.5535    0.1288 C.3       1 RES1    0.0000
     21 C15        1.7229    5.0196   -0.8042 C.3       1 RES1    0.0000
     22 C16        0.9125    6.9847    0.5108 C.3       1 RES1    0.0000
     23 O4         2.6808   -0.0327   10.4287 O.2       2 RES2    0.0000
     24 O5         2.7353   -1.3446    5.2487 O.2       2 RES2    0.0000
     25 O6        -1.6188   -2.0896    5.6951 O.2       2 RES2    0.0000
     26 N4         2.1480   -0.5915    9.4256 N.3       2 RES2    0.0000
     27 N5         0.4873   -1.3850    5.0898 N.am      2 RES2    0.0000
     28 N6        -1.0203    0.0570    6.1001 N.am      2 RES2    0.0000
     29 C17        2.5354   -0.2457    8.0390 C.3       2 RES2    0.0000
     30 C18        1.5855   -1.1559    7.2835 C.2       2 RES2    0.0000
     31 C19        0.8572   -1.9068    8.0977 C.2       2 RES2    0.0000
     32 C20        1.1443   -1.6746    9.5515 C.3       2 RES2    0.0000
     33 C21        4.0098   -0.5791    7.8330 C.3       2 RES2    0.0000
     34 C22        2.2472    1.2279    7.7857 C.3       2 RES2    0.0000
     35 C23        1.7553   -2.8865   10.2412 C.3       2 RES2    0.0000
     36 C24       -0.0616   -1.1685   10.3256 C.3       2 RES2    0.0000
     37 C25        1.6489   -1.2716    5.8010 C.2       2 RES2    0.0000
     38 C26        0.5910   -1.8561    3.6818 C.3       2 RES2    0.0000
     39 C27       -0.5288   -1.3343    2.8304 C.3       2 RES2    0.0000
     40 C28        0.6961   -3.3639    3.6332 C.3       2 RES2    0.0000
     41 C29       -0.8107   -1.1877    5.6594 C.2       2 RES2    0.0000
     42 C30       -2.1914    0.4047    6.9043 C.3       2 RES2    0.0000
     43 C31       -3.4349    0.5544    6.0657 C.3       2 RES2    0.0000
     44 C32       -1.8779    1.6621    7.6913 C.3       2 RES2    0.0000
@<TRIPOS>BOND
     1    1   15 2
     2    2    4 1
     3    3   19 2
     4    4    7 1
     5    5   15 1
     6    6   19 1
     7    7    8 1
     8    8    9 2
     9    9   10 1
    10   10    4 1
    11   11   10 1
    12   12   10 1
    13   13    7 1
    14   14    7 1
    15   15    8 1
    16   16    5 1
    17   17   16 1
    18   18   16 1
    19   19    5 1
    20   20    6 1
    21   21   20 1
    22   22   20 1
    23   23   26 1
    24   24   37 2
    25   25   41 2
    26   26   29 1
    27   27   37 1
    28   28   41 1
    29   29   30 1
    30   30   31 2
    31   31   32 1
    32   32   26 1
    33   33   29 1
    34   34   29 1
    35   35   32 1
    36   36   32 1
    37   37   30 1
    38   38   27 1
    39   39   38 1
    40   40   38 1
    41   41   27 1
    42   42   28 1
    43   43   42 1
    44   44   42 1
@<TRIPOS>SUBSTRUCTURE
     1 RES1 1
     2 RES2 23

@<TRIPOS>CRYSIN
  11.0780   11.9700   15.7460 105.4100 103.4700 106.5200   2 1

