# MOL2 file generated by ConQuest
# Please check atom types

@<TRIPOS>MOLECULE
EGAXAL
   100   100     2
SMALL
NO_CHARGES
****
Generated from CSD

@<TRIPOS>ATOM
      1 O1         0.7390    2.0141    4.4730 O.2       1 RES1    0.0000
      2 O2         5.3569    1.5007    1.6545 O.2       1 RES1    0.0000
      3 O3        -0.6367    3.0738    0.3961 O.2       1 RES1    0.0000
      4 N1         4.0986    1.5160    1.7529 N.3       1 RES1    0.0000
      5 N2        -0.2205    3.0124    2.6774 N.am      1 RES1    0.0000
      6 N3         0.5600    4.7357    1.3365 N.am      1 RES1    0.0000
      7 H1         0.9354    5.0068    2.0610 H         1 RES1    0.0000
      8 C1         3.4118    2.2408    2.8474 C.3       1 RES1    0.0000
      9 C2         1.9698    1.9721    2.4532 C.2       1 RES1    0.0000
     10 C3         1.8896    1.2203    1.3694 C.2       1 RES1    0.0000
     11 H2         1.0811    0.9860    0.9753 H         1 RES1    0.0000
     12 C4         3.2132    0.7780    0.8314 C.3       1 RES1    0.0000
     13 C5         3.4204   -0.7257    0.9831 C.3       1 RES1    0.0000
     14 H3         4.2773   -0.9692    0.6282 H         1 RES1    0.0000
     15 H4         2.7308   -1.1932    0.5051 H         1 RES1    0.0000
     16 H5         3.3807   -0.9619    1.9132 H         1 RES1    0.0000
     17 C6         3.4722    1.2234   -0.5996 C.3       1 RES1    0.0000
     18 H6         4.3333    0.9085   -0.8815 H         1 RES1    0.0000
     19 H7         3.4508    2.1819   -0.6454 H         1 RES1    0.0000
     20 H8         2.7941    0.8607   -1.1748 H         1 RES1    0.0000
     21 C7         3.8394    1.6707    4.1841 C.3       1 RES1    0.0000
     22 H9         4.7592    1.8902    4.3458 H         1 RES1    0.0000
     23 H10        3.7340    0.7163    4.1740 H         1 RES1    0.0000
     24 H11        3.2936    2.0455    4.8809 H         1 RES1    0.0000
     25 C8         3.7686    3.7168    2.7746 C.3       1 RES1    0.0000
     26 H12        3.4954    4.0716    1.9246 H         1 RES1    0.0000
     27 H13        4.7173    3.8221    2.8748 H         1 RES1    0.0000
     28 H14        3.3184    4.1899    3.4786 H         1 RES1    0.0000
     29 C9         0.7976    2.3582    3.2953 C.2       1 RES1    0.0000
     30 C10       -1.5364    3.1801    3.3640 C.3       1 RES1    0.0000
     31 H15       -1.4244    2.9307    4.3047 H         1 RES1    0.0000
     32 C11       -1.9842    4.6358    3.3112 C.3       1 RES1    0.0000
     33 H16       -1.3069    5.1939    3.6990 H         1 RES1    0.0000
     34 H17       -2.8025    4.7369    3.8020 H         1 RES1    0.0000
     35 H18       -2.1265    4.8947    2.3968 H         1 RES1    0.0000
     36 C12       -2.5762    2.2832    2.7631 C.3       1 RES1    0.0000
     37 H19       -2.2752    1.3718    2.8061 H         1 RES1    0.0000
     38 H20       -2.7207    2.5289    1.8473 H         1 RES1    0.0000
     39 H21       -3.3970    2.3722    3.2525 H         1 RES1    0.0000
     40 C13       -0.1081    3.5886    1.3492 C.2       1 RES1    0.0000
     41 C14        0.6772    5.5535    0.1286 C.3       1 RES1    0.0000
     42 H22       -0.1833    5.5115   -0.3393 H         1 RES1    0.0000
     43 C15        1.7229    5.0196   -0.8042 C.3       1 RES1    0.0000
     44 H23        1.5264    4.1041   -1.0160 H         1 RES1    0.0000
     45 H24        2.5838    5.0722   -0.3821 H         1 RES1    0.0000
     46 H25        1.7283    5.5411   -1.6098 H         1 RES1    0.0000
     47 C16        0.9125    6.9847    0.5108 C.3       1 RES1    0.0000
     48 H26        0.2175    7.2754    1.1061 H         1 RES1    0.0000
     49 H27        0.9073    7.5318   -0.2776 H         1 RES1    0.0000
     50 H28        1.7628    7.0629    0.9501 H         1 RES1    0.0000
     51 O4         2.6807   -0.0329   10.4287 O.2       2 RES2    0.0000
     52 O5         2.7350   -1.3448    5.2487 O.2       2 RES2    0.0000
     53 O6        -1.6184   -2.0895    5.6956 O.2       2 RES2    0.0000
     54 N4         2.1477   -0.5918    9.4262 N.3       2 RES2    0.0000
     55 N5         0.4873   -1.3855    5.0904 N.am      2 RES2    0.0000
     56 N6        -1.0203    0.0566    6.1007 N.am      2 RES2    0.0000
     57 H29       -0.4504    0.6704    5.9062 H         2 RES2    0.0000
     58 C17        2.5355   -0.2455    8.0386 C.3       2 RES2    0.0000
     59 C18        1.5854   -1.1560    7.2839 C.2       2 RES2    0.0000
     60 C19        0.8571   -1.9070    8.0982 C.2       2 RES2    0.0000
     61 H30        0.2267   -2.5207    7.7963 H         2 RES2    0.0000
     62 C20        1.1443   -1.6747    9.5518 C.3       2 RES2    0.0000
     63 C21        4.0098   -0.5791    7.8330 C.3       2 RES2    0.0000
     64 H31        4.5490    0.0329    8.3381 H         2 RES2    0.0000
     65 H32        4.2271   -0.5065    6.9014 H         2 RES2    0.0000
     66 H33        4.1786   -1.4757    8.1320 H         2 RES2    0.0000
     67 C22        2.2472    1.2279    7.7857 C.3       2 RES2    0.0000
     68 H34        2.8698    1.7657    8.2808 H         2 RES2    0.0000
     69 H35        1.3524    1.4327    8.0676 H         2 RES2    0.0000
     70 H36        2.3384    1.4152    6.8485 H         2 RES2    0.0000
     71 C23        1.7553   -2.8865   10.2412 C.3       2 RES2    0.0000
     72 H37        1.9168   -2.6809   11.1656 H         2 RES2    0.0000
     73 H38        2.5837   -3.1130    9.8148 H         2 RES2    0.0000
     74 H39        1.1495   -3.6284   10.1797 H         2 RES2    0.0000
     75 C24       -0.0616   -1.1685   10.3256 C.3       2 RES2    0.0000
     76 H40        0.1814   -1.0383   11.2457 H         2 RES2    0.0000
     77 H41       -0.7705   -1.8129   10.2698 H         2 RES2    0.0000
     78 H42       -0.3558   -0.3354    9.9522 H         2 RES2    0.0000
     79 C25        1.6491   -1.2713    5.8003 C.2       2 RES2    0.0000
     80 C26        0.5911   -1.8560    3.6814 C.3       2 RES2    0.0000
     81 H43        1.4255   -1.4952    3.3159 H         2 RES2    0.0000
     82 C27       -0.5288   -1.3343    2.8304 C.3       2 RES2    0.0000
     83 H44       -0.5572   -0.3760    2.8905 H         2 RES2    0.0000
     84 H45       -1.3617   -1.6994    3.1380 H         2 RES2    0.0000
     85 H46       -0.3832   -1.5924    1.9175 H         2 RES2    0.0000
     86 C28        0.6961   -3.3639    3.6332 C.3       2 RES2    0.0000
     87 H47        1.4226   -3.6529    4.1898 H         2 RES2    0.0000
     88 H48        0.8542   -3.6447    2.7288 H         2 RES2    0.0000
     89 H49       -0.1232   -3.7518    3.9494 H         2 RES2    0.0000
     90 C29       -0.8106   -1.1876    5.6591 C.2       2 RES2    0.0000
     91 C30       -2.1914    0.4047    6.9043 C.3       2 RES2    0.0000
     92 H50       -2.3446   -0.3215    7.5453 H         2 RES2    0.0000
     93 C31       -3.4349    0.5544    6.0657 C.3       2 RES2    0.0000
     94 H51       -3.5964   -0.2614    5.5864 H         2 RES2    0.0000
     95 H52       -3.3149    1.2741    5.4419 H         2 RES2    0.0000
     96 H53       -4.1836    0.7448    6.6353 H         2 RES2    0.0000
     97 C32       -1.8779    1.6621    7.6913 C.3       2 RES2    0.0000
     98 H54       -1.0816    1.5256    8.2093 H         2 RES2    0.0000
     99 H55       -2.6118    1.8649    8.2765 H         2 RES2    0.0000
    100 H56       -1.7420    2.3942    7.0831 H         2 RES2    0.0000
@<TRIPOS>BOND
     1    1   29 2
     2    2    4 1
     3    3   40 2
     4    4    8 1
     5    5   29 1
     6    6    7 1
     7    8    9 1
     8    9   10 2
     9   10   11 1
    10   12    4 1
    11   13   12 1
    12   14   13 1
    13   15   13 1
    14   16   13 1
    15   17   12 1
    16   18   17 1
    17   19   17 1
    18   20   17 1
    19   21    8 1
    20   22   21 1
    21   23   21 1
    22   24   21 1
    23   25    8 1
    24   26   25 1
    25   27   25 1
    26   28   25 1
    27   29    9 1
    28   30    5 1
    29   31   30 1
    30   32   30 1
    31   33   32 1
    32   34   32 1
    33   35   32 1
    34   36   30 1
    35   37   36 1
    36   38   36 1
    37   39   36 1
    38   40    5 1
    39   41    6 1
    40   42   41 1
    41   43   41 1
    42   44   43 1
    43   45   43 1
    44   46   43 1
    45   47   41 1
    46   48   47 1
    47   49   47 1
    48   50   47 1
    49   51   54 1
    50   52   79 2
    51   53   90 2
    52   54   58 1
    53   55   79 1
    54   56   57 1
    55   58   59 1
    56   59   60 2
    57   60   61 1
    58   62   54 1
    59   63   58 1
    60   64   63 1
    61   65   63 1
    62   66   63 1
    63   67   58 1
    64   68   67 1
    65   69   67 1
    66   70   67 1
    67   71   62 1
    68   72   71 1
    69   73   71 1
    70   74   71 1
    71   75   62 1
    72   76   75 1
    73   77   75 1
    74   78   75 1
    75   79   59 1
    76   80   55 1
    77   81   80 1
    78   82   80 1
    79   83   82 1
    80   84   82 1
    81   85   82 1
    82   86   80 1
    83   87   86 1
    84   88   86 1
    85   89   86 1
    86   90   55 1
    87   91   56 1
    88   92   91 1
    89   93   91 1
    90   94   93 1
    91   95   93 1
    92   96   93 1
    93   97   91 1
    94   98   97 1
    95   99   97 1
    96  100   97 1
    97    6   40 1
    98   10   12 1
    99   56   90 1
   100   60   62 1
@<TRIPOS>SUBSTRUCTURE
     1 RES1 1
     2 RES2 51

@<TRIPOS>CRYSIN
  11.0780   11.9700   15.7460 105.4100 103.4700 106.5200   2 1

