# MOL2 file generated by ConQuest
# Please check atom types

@<TRIPOS>MOLECULE
EGAZIX
    46    48     1
SMALL
NO_CHARGES
****
Generated from CSD

@<TRIPOS>ATOM
      1 O1        15.5864   -1.3154    8.3884 O.2       1 RES1    0.0000
      2 O2        13.9774    0.0843    8.2833 O.2       1 RES1    0.0000
      3 O3        21.9896    7.9851    8.4865 O.2       1 RES1    0.0000
      4 O4        22.0584    7.6584    6.3520 O.3       1 RES1    0.0000
      5 O5        24.3030    4.1468    2.3527 O.3       1 RES1    0.0000
      6 N1        15.1649   -0.1752    8.3055 N.pl3     1 RES1    0.0000
      7 N2        19.8689    3.0835    5.8424 N.pl3     1 RES1    0.0000
      8 H1        19.2263    2.5130    5.7998 H         1 RES1    0.0000
      9 H2        20.3834    3.1351    5.1601 H         1 RES1    0.0000
     10 C1        18.3781    1.6347    8.0582 C.ar      1 RES1    0.0000
     11 H3        19.2877    1.4382    8.0258 H         1 RES1    0.0000
     12 C2        17.4727    0.6082    8.1680 C.ar      1 RES1    0.0000
     13 H4        17.7593   -0.2759    8.2167 H         1 RES1    0.0000
     14 C3        16.1314    0.9217    8.2039 C.ar      1 RES1    0.0000
     15 C4        15.6783    2.2117    8.1651 C.ar      1 RES1    0.0000
     16 H5        14.7693    2.3959    8.2048 H         1 RES1    0.0000
     17 C5        16.5987    3.2317    8.0659 C.ar      1 RES1    0.0000
     18 H6        16.3021    4.1133    8.0455 H         1 RES1    0.0000
     19 C6        17.9640    2.9648    7.9950 C.ar      1 RES1    0.0000
     20 C7        18.9464    4.0658    7.8526 C.ar      1 RES1    0.0000
     21 C8        18.9727    5.1037    8.7702 C.ar      1 RES1    0.0000
     22 H7        18.3565    5.1103    9.4659 H         1 RES1    0.0000
     23 C9        19.8845    6.1196    8.6766 C.ar      1 RES1    0.0000
     24 H8        19.8953    6.7932    9.3184 H         1 RES1    0.0000
     25 C10       20.8005    6.1498    7.6214 C.ar      1 RES1    0.0000
     26 C11       20.8132    5.1266    6.6742 C.ar      1 RES1    0.0000
     27 C12       19.8710    4.0830    6.7872 C.ar      1 RES1    0.0000
     28 C13       21.6861    7.3343    7.5545 C.2       1 RES1    0.0000
     29 C14       22.7818    8.8781    6.1526 C.3       1 RES1    0.0000
     30 H9        22.9448    9.0042    5.2154 H         1 RES1    0.0000
     31 H10       23.6190    8.8323    6.6186 H         1 RES1    0.0000
     32 H11       22.2675    9.6140    6.4909 H         1 RES1    0.0000
     33 C15       21.8092    4.9965    5.5625 C.ar      1 RES1    0.0000
     34 C16       21.5838    5.5114    4.2921 C.ar      1 RES1    0.0000
     35 H12       20.8506    6.0639    4.1452 H         1 RES1    0.0000
     36 C17       22.4324    5.2150    3.2455 C.ar      1 RES1    0.0000
     37 H13       22.2674    5.5654    2.3997 H         1 RES1    0.0000
     38 C18       23.5270    4.3981    3.4511 C.ar      1 RES1    0.0000
     39 C19       23.7775    3.8972    4.7044 C.ar      1 RES1    0.0000
     40 H14       24.5168    3.3545    4.8521 H         1 RES1    0.0000
     41 C20       22.9203    4.2058    5.7474 C.ar      1 RES1    0.0000
     42 H15       23.1002    3.8693    6.5949 H         1 RES1    0.0000
     43 C21       25.2166    3.0598    2.4431 C.3       1 RES1    0.0000
     44 H16       25.5519    2.8494    1.5678 H         1 RES1    0.0000
     45 H17       24.7685    2.2936    2.8065 H         1 RES1    0.0000
     46 H18       25.9473    3.3037    3.0144 H         1 RES1    0.0000
@<TRIPOS>BOND
     1    1    6 2
     2    2    6 2
     3    3   28 2
     4    4   28 1
     5    5   38 1
     6    6   14 1
     7    7    8 1
     8    9    7 1
     9   10   11 1
    10   12   10 ar
    11   13   12 1
    12   14   12 ar
    13   15   14 ar
    14   16   15 1
    15   17   15 ar
    16   18   17 1
    17   19   10 ar
    18   20   19 1
    19   21   20 ar
    20   22   21 1
    21   23   21 ar
    22   24   23 1
    23   25   23 ar
    24   26   25 ar
    25   27    7 1
    26   28   25 1
    27   29    4 1
    28   30   29 1
    29   31   29 1
    30   32   29 1
    31   33   26 1
    32   34   33 ar
    33   35   34 1
    34   36   34 ar
    35   37   36 1
    36   38   36 ar
    37   39   38 ar
    38   40   39 1
    39   41   33 ar
    40   42   41 1
    41   43    5 1
    42   44   43 1
    43   45   43 1
    44   46   43 1
    45   17   19 ar
    46   20   27 ar
    47   26   27 ar
    48   39   41 ar
@<TRIPOS>SUBSTRUCTURE
     1 RES1 1

@<TRIPOS>CRYSIN
  34.0260    8.1856   13.2003  90.0000  94.2790  90.0000  15 1

