# MOL2 file generated by ConQuest
# Please check atom types

@<TRIPOS>MOLECULE
EGEHAA
    36    35     1
SMALL
NO_CHARGES
****
Generated from CSD

@<TRIPOS>ATOM
      1 C1         1.5417    3.5356    2.2087 C.3       1 RES1    0.0000
      2 H1         2.3498    2.9673    2.1504 H         1 RES1    0.0000
      3 H2         1.1229    3.5990    1.3139 H         1 RES1    0.0000
      4 N1         2.5039    5.6994    1.7835 N.pl3     1 RES1    0.0000
      5 O1         1.8595    4.8422    2.7283 O.3       1 RES1    0.0000
      6 O2         2.8019    6.7503    2.2702 O.2       1 RES1    0.0000
      7 O3         2.6455    5.2639    0.6749 O.2       1 RES1    0.0000
      8 C2         0.5494    2.9887    3.2521 C.3       1 RES1    0.0000
      9 C3        -0.7559    3.7842    3.2210 C.3       1 RES1    0.0000
     10 H3        -1.4335    3.3777    3.8173 H         1 RES1    0.0000
     11 H4        -0.6055    4.7219    3.4985 H         1 RES1    0.0000
     12 N2        -2.5431    3.9675    1.6342 N.pl3     1 RES1    0.0000
     13 N3         0.2094    1.5496    2.7961 N.pl3     1 RES1    0.0000
     14 O4        -1.1737    3.7141    1.8411 O.3       1 RES1    0.0000
     15 O5        -2.8129    4.0207    0.4659 O.2       1 RES1    0.0000
     16 O6        -3.2487    4.0943    2.6008 O.2       1 RES1    0.0000
     17 O7        -0.9230    1.1512    2.9887 O.2       1 RES1    0.0000
     18 O8         1.1174    0.8980    2.2869 O.2       1 RES1    0.0000
     19 C4         1.1752    2.8513    4.6958 C.3       1 RES1    0.0000
     20 C5         2.6190    2.3679    4.6383 C.3       1 RES1    0.0000
     21 H5         2.6882    1.5309    4.1151 H         1 RES1    0.0000
     22 H6         3.2024    3.0526    4.2247 H         1 RES1    0.0000
     23 N4         4.3759    1.9233    6.1761 N.pl3     1 RES1    0.0000
     24 N5         1.1678    4.2545    5.3487 N.pl3     1 RES1    0.0000
     25 O9         2.9907    2.1431    6.0149 O.3       1 RES1    0.0000
     26 O10        4.6892    1.7769    7.3231 O.2       1 RES1    0.0000
     27 O11        5.0527    1.9088    5.1785 O.2       1 RES1    0.0000
     28 O12        2.2189    4.8556    5.4664 O.2       1 RES1    0.0000
     29 O13        0.0768    4.6631    5.7284 O.2       1 RES1    0.0000
     30 C6         0.3090    2.0091    5.6746 C.3       1 RES1    0.0000
     31 H7         0.5410    2.2111    6.6154 H         1 RES1    0.0000
     32 H8        -0.6550    2.1857    5.5355 H         1 RES1    0.0000
     33 N6         0.0088   -0.2757    6.2134 N.pl3     1 RES1    0.0000
     34 O14        0.6339    0.6437    5.3461 O.3       1 RES1    0.0000
     35 O15        0.2982   -1.4115    5.9514 O.2       1 RES1    0.0000
     36 O16       -0.6968    0.1628    7.0849 O.2       1 RES1    0.0000
@<TRIPOS>BOND
     1    1    2 1
     2    3    1 1
     3    4    5 1
     4    5    1 1
     5    6    4 2
     6    7    4 2
     7    8    1 1
     8    9    8 1
     9   10    9 1
    10   11    9 1
    11   12   14 1
    12   13    8 1
    13   14    9 1
    14   15   12 2
    15   16   12 2
    16   17   13 2
    17   18   13 2
    18   19    8 1
    19   20   19 1
    20   21   20 1
    21   22   20 1
    22   23   25 1
    23   24   19 1
    24   25   20 1
    25   26   23 2
    26   27   23 2
    27   28   24 2
    28   29   24 2
    29   30   19 1
    30   31   30 1
    31   32   30 1
    32   33   34 1
    33   34   30 1
    34   35   33 2
    35   36   33 2
@<TRIPOS>SUBSTRUCTURE
     1 RES1 1

@<TRIPOS>CRYSIN
   8.1228   23.0560    8.5072  90.0000 113.9530  90.0000 231 1

