# MOL2 file generated by ConQuest
# Please check atom types

@<TRIPOS>MOLECULE
EGIHEH
    68    68     1
SMALL
NO_CHARGES
****
Generated from CSD

@<TRIPOS>ATOM
      1 O1        -3.7848   10.8732    9.0598 O.2       1 RES1    0.0000
      2 O2        -0.8361    7.9028    9.3679 O.3       1 RES1    0.0000
      3 O3        -1.8538    6.2717    7.5550 O.2       1 RES1    0.0000
      4 O4        -0.1323    3.9472   10.3725 O.3       1 RES1    0.0000
      5 O5         1.0725    5.9474   11.5686 O.2       1 RES1    0.0000
      6 N1        -3.1880    9.0018    8.0228 N.am      1 RES1    0.0000
      7 N2        -0.3793    6.5914    9.2179 N.am      1 RES1    0.0000
      8 N3         0.7536    3.7385   11.4489 N.am      1 RES1    0.0000
      9 C1        -3.1925    9.7961    9.0759 C.2       1 RES1    0.0000
     10 C2        -2.4720    9.3729   10.3671 C.3       1 RES1    0.0000
     11 C3        -1.9115    7.9613   10.3275 C.3       1 RES1    0.0000
     12 H1        -1.5832    7.7141   11.2065 H         1 RES1    0.0000
     13 H2        -2.6104    7.3371   10.0776 H         1 RES1    0.0000
     14 C4        -1.3631   10.3853   10.6309 C.3       1 RES1    0.0000
     15 H3        -1.7359   11.2700   10.6544 H         1 RES1    0.0000
     16 H4        -0.7078   10.3315    9.9313 H         1 RES1    0.0000
     17 H5        -0.9473   10.1916   11.4746 H         1 RES1    0.0000
     18 C5        -3.5143    9.3910   11.5055 C.3       1 RES1    0.0000
     19 H6        -3.8988   10.2693   11.5728 H         1 RES1    0.0000
     20 H7        -3.0869    9.1656   12.3354 H         1 RES1    0.0000
     21 H8        -4.2060    8.7537   11.3176 H         1 RES1    0.0000
     22 C6        -3.7888    9.3757    6.7433 C.3       1 RES1    0.0000
     23 H9        -4.5020   10.0245    6.9206 H         1 RES1    0.0000
     24 C7        -4.4012    8.1863    6.0833 C.3       1 RES1    0.0000
     25 H10       -5.1093    7.8346    6.6462 H         1 RES1    0.0000
     26 H11       -3.7299    7.4945    5.9787 H         1 RES1    0.0000
     27 C8        -4.9700    8.5438    4.7238 C.3       1 RES1    0.0000
     28 H12       -5.2870    7.7355    4.2923 H         1 RES1    0.0000
     29 H13       -5.7319    9.1326    4.8466 H         1 RES1    0.0000
     30 C9        -3.9927    9.2064    3.8395 C.3       1 RES1    0.0000
     31 H14       -4.4431    9.5056    3.0342 H         1 RES1    0.0000
     32 H15       -3.3122    8.5652    3.5799 H         1 RES1    0.0000
     33 C10       -3.3466   10.3645    4.4941 C.3       1 RES1    0.0000
     34 H16       -3.9936   11.0815    4.5838 H         1 RES1    0.0000
     35 H17       -2.6227   10.6832    3.9334 H         1 RES1    0.0000
     36 C11       -2.8028   10.0167    5.8548 C.3       1 RES1    0.0000
     37 H18       -2.0464    9.4182    5.7448 H         1 RES1    0.0000
     38 H19       -2.4799   10.8270    6.2788 H         1 RES1    0.0000
     39 C12       -0.9581    5.8466    8.2738 C.2       1 RES1    0.0000
     40 C13       -0.3633    4.4462    8.0452 C.3       1 RES1    0.0000
     41 C14        0.5867    3.9933    9.1378 C.3       1 RES1    0.0000
     42 H20        0.9404    3.1148    8.9274 H         1 RES1    0.0000
     43 H21        1.3295    4.6129    9.2104 H         1 RES1    0.0000
     44 C15        0.4447    4.5158    6.7455 C.3       1 RES1    0.0000
     45 H22       -0.1282    4.7936    6.0267 H         1 RES1    0.0000
     46 H23        0.8089    3.6491    6.5479 H         1 RES1    0.0000
     47 H24        1.1605    5.1473    6.8459 H         1 RES1    0.0000
     48 C16       -1.5086    3.4508    7.9128 C.3       1 RES1    0.0000
     49 H25       -2.1094    3.7444    7.2239 H         1 RES1    0.0000
     50 H26       -1.9807    3.3946    8.7469 H         1 RES1    0.0000
     51 H27       -1.1573    2.5863    7.6853 H         1 RES1    0.0000
     52 C17        1.2335    4.8360   12.0588 C.2       1 RES1    0.0000
     53 C18        2.0096    4.6131   13.3521 C.3       1 RES1    0.0000
     54 C19        1.0480    4.5488   14.4522 C.3       1 RES1    0.0000
     55 H28        0.4160    3.8454   14.2834 H         1 RES1    0.0000
     56 H29        0.5847    5.3863   14.5216 H         1 RES1    0.0000
     57 H30        1.5125    4.3700   15.2734 H         1 RES1    0.0000
     58 C20        2.8167    3.2974   13.3382 C.3       1 RES1    0.0000
     59 H31        3.4441    3.3149   12.6120 H         1 RES1    0.0000
     60 H32        2.2177    2.5552   13.2250 H         1 RES1    0.0000
     61 H33        3.2902    3.2042   14.1681 H         1 RES1    0.0000
     62 C21        3.0065    5.7244   13.5038 C.3       1 RES1    0.0000
     63 H34        3.6349    5.6913   12.7786 H         1 RES1    0.0000
     64 H35        3.4737    5.6233   14.3368 H         1 RES1    0.0000
     65 H36        2.5493    6.5677   13.4931 H         1 RES1    0.0000
     66 H37        0.7054    2.9535   11.7266 H         1 RES1    0.0000
     67 H38       -2.7973    8.3670    7.9993 H         1 RES1    0.0000
     68 H39        0.0738    6.3092    9.9431 H         1 RES1    0.0000
@<TRIPOS>BOND
     1    1    9 2
     2    2    7 1
     3    3   39 2
     4    4    8 1
     5    5   52 2
     6    6    9 1
     7    7   39 1
     8    8   52 1
     9    9   10 1
    10   10   11 1
    11   11    2 1
    12   12   11 1
    13   13   11 1
    14   14   10 1
    15   15   14 1
    16   16   14 1
    17   17   14 1
    18   18   10 1
    19   19   18 1
    20   20   18 1
    21   21   18 1
    22   22    6 1
    23   23   22 1
    24   24   22 1
    25   25   24 1
    26   26   24 1
    27   27   24 1
    28   28   27 1
    29   29   27 1
    30   30   27 1
    31   31   30 1
    32   32   30 1
    33   33   30 1
    34   34   33 1
    35   35   33 1
    36   36   22 1
    37   37   36 1
    38   38   36 1
    39   39   40 1
    40   40   41 1
    41   41    4 1
    42   42   41 1
    43   43   41 1
    44   44   40 1
    45   45   44 1
    46   46   44 1
    47   47   44 1
    48   48   40 1
    49   49   48 1
    50   50   48 1
    51   51   48 1
    52   52   53 1
    53   53   54 1
    54   54   55 1
    55   56   54 1
    56   57   54 1
    57   58   53 1
    58   59   58 1
    59   60   58 1
    60   61   58 1
    61   62   53 1
    62   63   62 1
    63   64   62 1
    64   65   62 1
    65   66    8 1
    66   67    6 1
    67   68    7 1
    68   33   36 1
@<TRIPOS>SUBSTRUCTURE
     1 RES1 1

@<TRIPOS>CRYSIN
   5.7650   19.4310   10.8210  90.0000  99.2600  90.0000   4 1

