# MOL2 file generated by ConQuest
# Please check atom types

@<TRIPOS>MOLECULE
EGIHAD
   136    92     3
SMALL
NO_CHARGES
****
Generated from CSD

@<TRIPOS>ATOM
      1 O1         3.6106    3.8334    4.0879 O.2       1 RES1    0.0000
      2 O2         1.9925    1.9133    4.8477 O.3       1 RES1    0.0000
      3 O3        -1.3271    4.3929    5.1567 O.2       1 RES1    0.0000
      4 N1         3.3005    1.6510    4.4036 N.am      1 RES1    0.0000
      5 N2         0.8948    4.5661    4.8920 N.am      1 RES1    0.0000
      6 C1         4.0685    2.7064    4.1330 C.2       1 RES1    0.0000
      7 C2         5.5384    2.4053    3.8348 C.3       1 RES1    0.0000
      8 C3        -0.2428    3.8960    4.7957 C.2       1 RES1    0.0000
      9 C4        -0.2496    2.4871    4.2047 C.3       1 RES1    0.0000
     10 C5         1.1146    2.0053    3.7256 C.3       1 RES1    0.0000
     11 H1         1.0286    1.1376    3.3019 H         1 RES1    0.0000
     12 H2         1.4750    2.6283    3.0753 H         1 RES1    0.0000
     13 C6         1.0076    5.9035    5.4385 C.3       1 RES1    0.0000
     14 H3         0.1152    6.2456    5.6079 H         1 RES1    0.0000
     15 H4         1.4180    6.4761    4.7719 H         1 RES1    0.0000
     16 C7         1.7869    5.9928    6.6771 C.3       1 RES1    0.0000
     17 H5         2.6476    5.5783    6.4570 H         1 RES1    0.0000
     18 C8         5.5762    1.1841    2.8961 C.3       1 RES1    0.0000
     19 H6         5.0938    1.3848    2.0910 H         1 RES1    0.0000
     20 H7         5.1717    0.4312    3.3328 H         1 RES1    0.0000
     21 H8         6.4877    0.9759    2.6777 H         1 RES1    0.0000
     22 C9         6.1996    2.0521    5.0522 C.3       1 RES1    0.0000
     23 H9         7.1228    1.8625    4.8697 H         1 RES1    0.0000
     24 H10        5.7817    1.2751    5.4303 H         1 RES1    0.0000
     25 H11        6.1392    2.7826    5.6715 H         1 RES1    0.0000
     26 C10        6.0547    3.6247    3.0753 C.3       1 RES1    0.0000
     27 H12        5.5636    3.7232    2.2572 H         1 RES1    0.0000
     28 H13        6.9860    3.5094    2.8781 H         1 RES1    0.0000
     29 H14        5.9372    4.4109    3.6148 H         1 RES1    0.0000
     30 C11       -1.1566    2.5112    2.9710 C.3       1 RES1    0.0000
     31 H15       -1.1799    1.6376    2.5734 H         1 RES1    0.0000
     32 H16       -0.8146    3.1432    2.3338 H         1 RES1    0.0000
     33 H17       -2.0453    2.7678    3.2318 H         1 RES1    0.0000
     34 C12       -0.8073    1.5279    5.2738 C.3       1 RES1    0.0000
     35 H18       -0.8304    0.6357    4.9218 H         1 RES1    0.0000
     36 H19       -1.6956    1.8012    5.5150 H         1 RES1    0.0000
     37 H20       -0.2430    1.5521    6.0496 H         1 RES1    0.0000
     38 C13        1.1998    5.1005    7.7478 C.3       1 RES1    0.0000
     39 H21        1.7297    5.1656    8.5464 H         1 RES1    0.0000
     40 H22        1.1949    4.1916    7.4398 H         1 RES1    0.0000
     41 H23        0.3002    5.3794    7.9385 H         1 RES1    0.0000
     42 C14        2.1183    7.5058    6.8677 C.3       1 RES1    0.0000
     43 H24        2.6655    7.6174    7.6484 H         1 RES1    0.0000
     44 H25        1.3018    8.0003    6.9753 H         1 RES1    0.0000
     45 H26        2.5896    7.8293    6.0969 H         1 RES1    0.0000
     46 H27        1.6303    4.0633    4.6611 H         1 RES1    0.0000
     47 H28        3.5739    0.8997    4.6122 H         1 RES1    0.0000
     48 O4         1.0935    3.8916    0.4718 O.2       2 RES2    0.0000
     49 O5         2.7587    5.8026   -0.2340 O.3       2 RES2    0.0000
     50 O6         1.6236    8.4038    2.8266 O.2       2 RES2    0.0000
     51 N3         2.8177    4.5186   -0.8005 N.am      2 RES2    0.0000
     52 N4         0.9421    6.5073    1.8804 N.am      2 RES2    0.0000
     53 C15        1.8806    3.6440   -0.4368 C.2       2 RES2    0.0000
     54 C16        1.8766    2.3092   -1.1636 C.3       2 RES2    0.0000
     55 C17        1.8873    7.3962    2.1545 C.2       2 RES2    0.0000
     56 C18        3.3136    7.1649    1.6754 C.3       2 RES2    0.0000
     57 C19        3.5292    5.8270    0.9811 C.3       2 RES2    0.0000
     58 H29        4.4697    5.7084    0.7790 H         2 RES2    0.0000
     59 H30        3.2481    5.1043    1.5646 H         2 RES2    0.0000
     60 C20       -0.4473    6.6632    2.2686 C.3       2 RES2    0.0000
     61 H31       -0.4968    7.3441    2.9580 H         2 RES2    0.0000
     62 H32       -0.7503    5.8292    2.6614 H         2 RES2    0.0000
     63 C21       -1.3678    7.0281    1.1930 C.3       2 RES2    0.0000
     64 H33       -1.0275    7.9445    1.1196 H         2 RES2    0.0000
     65 C22        2.3083    1.2733   -0.2070 C.3       2 RES2    0.0000
     66 H34        2.3038    0.4182   -0.6405 H         2 RES2    0.0000
     67 H35        1.6953    1.2547    0.5362 H         2 RES2    0.0000
     68 H36        3.1872    1.4740    0.1076 H         2 RES2    0.0000
     69 C23        0.3537    2.0149   -1.5205 C.3       2 RES2    0.0000
     70 H37        0.2914    1.1841   -1.9948 H         2 RES2    0.0000
     71 H38        0.0117    2.7250   -2.0698 H         2 RES2    0.0000
     72 H39       -0.1601    1.9610   -0.7122 H         2 RES2    0.0000
     73 C24        2.6058    2.2213   -2.4381 C.3       2 RES2    0.0000
     74 H40        2.5117    1.3365   -2.7999 H         2 RES2    0.0000
     75 H41        3.5355    2.4090   -2.2882 H         2 RES2    0.0000
     76 H42        2.2460    2.8607   -3.0574 H         2 RES2    0.0000
     77 C25        4.2251    7.1750    2.9123 C.3       2 RES2    0.0000
     78 H43        5.1343    7.0244    2.6402 H         2 RES2    0.0000
     79 H44        3.9538    6.4798    3.5154 H         2 RES2    0.0000
     80 H45        4.1594    8.0244    3.3524 H         2 RES2    0.0000
     81 C26        3.6922    8.3192    0.7448 C.3       2 RES2    0.0000
     82 H46        4.5878    8.1899    0.4237 H         2 RES2    0.0000
     83 H47        3.6415    9.1490    1.2272 H         2 RES2    0.0000
     84 H48        3.0866    8.3442    0.0016 H         2 RES2    0.0000
     85 C27       -1.3197    6.7437   -0.0799 C.3       2 RES2    0.0000
     86 H49       -2.1114    7.0746   -0.5117 H         2 RES2    0.0000
     87 H50       -1.2665    5.7920   -0.1939 H         2 RES2    0.0000
     88 H51       -0.5458    7.1564   -0.4710 H         2 RES2    0.0000
     89 C28       -2.7897    7.4501    1.6770 C.3       2 RES2    0.0000
     90 H52       -2.7872    7.5449    2.6337 H         2 RES2    0.0000
     91 H53       -3.4271    6.7790    1.4244 H         2 RES2    0.0000
     92 H54       -3.0298    8.2884    1.2745 H         2 RES2    0.0000
     93 H55        3.3426    4.4723   -1.5971 H         2 RES2    0.0000
     94 H56        1.1127    5.8366    1.3364 H         2 RES2    0.0000
     95 H57        2.5573    6.3422    6.1832 Du        3 SUP3    0.0000
     96 C29        5.9117    2.9722    2.5668 Du        3 SUP3    0.0000
     97 H58        5.4346    3.7938    2.4299 Du        3 SUP3    0.0000
     98 H59        5.6949    2.3551    1.8644 Du        3 SUP3    0.0000
     99 H60        6.8560    3.1451    2.5603 Du        3 SUP3    0.0000
    100 C30        6.0009    1.0354    3.8625 Du        3 SUP3    0.0000
    101 H61        6.9215    1.0038    3.5854 Du        3 SUP3    0.0000
    102 H62        5.4716    0.5093    3.2530 Du        3 SUP3    0.0000
    103 H63        5.9169    0.6840    4.7458 Du        3 SUP3    0.0000
    104 C31        6.3510    3.2417    4.8338 Du        3 SUP3    0.0000
    105 H64        6.1745    4.1730    4.6888 Du        3 SUP3    0.0000
    106 H65        7.2877    3.0689    4.7067 Du        3 SUP3    0.0000
    107 H66        6.1007    3.0038    5.7285 Du        3 SUP3    0.0000
    108 C32        2.5141    5.2697    7.3306 Du        3 SUP3    0.0000
    109 H67        2.8770    5.7641    8.0689 Du        3 SUP3    0.0000
    110 H68        3.2305    4.9518    6.7748 Du        3 SUP3    0.0000
    111 H69        2.0091    4.5225    7.6614 Du        3 SUP3    0.0000
    112 C33        1.5731    7.4222    7.3958 Du        3 SUP3    0.0000
    113 H70        0.9868    7.9650    6.8628 Du        3 SUP3    0.0000
    114 H71        2.4204    7.8646    7.4887 Du        3 SUP3    0.0000
    115 H72        1.1844    7.2902    8.2644 Du        3 SUP3    0.0000
    116 H73       -1.3160    6.2084    0.6600 Du        3 SUP3    0.0000
    117 C34        1.0159    1.3588   -0.4580 Du        3 SUP3    0.0000
    118 H74        1.0044    0.5242   -0.9338 Du        3 SUP3    0.0000
    119 H75        0.1238    1.7120   -0.4091 Du        3 SUP3    0.0000
    120 H76        1.3542    1.2194    0.4286 Du        3 SUP3    0.0000
    121 C35        1.4429    2.5874   -2.5652 Du        3 SUP3    0.0000
    122 H77        1.4172    1.7677   -3.0639 Du        3 SUP3    0.0000
    123 H78        2.0558    3.1953   -2.9792 Du        3 SUP3    0.0000
    124 H79        0.5618    2.9797   -2.5554 Du        3 SUP3    0.0000
    125 C36        3.3243    1.7157   -1.2109 Du        3 SUP3    0.0000
    126 H80        3.3128    0.8811   -1.6835 Du        3 SUP3    0.0000
    127 H81        3.6410    1.5725   -0.3162 Du        3 SUP3    0.0000
    128 H82        3.9075    2.3309   -1.6623 Du        3 SUP3    0.0000
    129 C37       -0.9657    7.9519    0.2184 Du        3 SUP3    0.0000
    130 H83       -1.6671    8.0616   -0.4270 Du        3 SUP3    0.0000
    131 H84       -0.1738    7.6304   -0.2200 Du        3 SUP3    0.0000
    132 H85       -0.7790    8.7958    0.6356 Du        3 SUP3    0.0000
    133 C38       -2.8050    6.8627    1.7585 Du        3 SUP3    0.0000
    134 H86       -2.8066    6.1749    2.4299 Du        3 SUP3    0.0000
    135 H87       -3.4022    6.6192    1.0479 Du        3 SUP3    0.0000
    136 H88       -3.0921    7.6917    2.1496 Du        3 SUP3    0.0000
@<TRIPOS>BOND
     1    1    6 2
     2    2    4 1
     3    3    8 2
     4    4    6 1
     5    5    8 1
     6    6    7 1
     7    7   18 1
     8    8    9 1
     9    9   10 1
    10   10    2 1
    11   11   10 1
    12   12   10 1
    13   13    5 1
    14   14   13 1
    15   15   13 1
    16   16   13 1
    17   17   16 1
    18   18   19 1
    19   20   18 1
    20   21   18 1
    21   22    7 1
    22   23   22 1
    23   24   22 1
    24   25   22 1
    25   26    7 1
    26   27   26 1
    27   28   26 1
    28   29   26 1
    29   30    9 1
    30   31   30 1
    31   32   30 1
    32   33   30 1
    33   34    9 1
    34   35   34 1
    35   36   34 1
    36   37   34 1
    37   38   16 1
    38   39   38 1
    39   40   38 1
    40   41   38 1
    41   42   16 1
    42   43   42 1
    43   44   42 1
    44   45   42 1
    45   46    5 1
    46   47    4 1
    47   48   53 2
    48   49   51 1
    49   50   55 2
    50   51   53 1
    51   52   55 1
    52   53   54 1
    53   54   65 1
    54   55   56 1
    55   56   57 1
    56   57   49 1
    57   58   57 1
    58   59   57 1
    59   60   52 1
    60   61   60 1
    61   62   60 1
    62   63   60 1
    63   64   63 1
    64   65   66 1
    65   67   65 1
    66   68   65 1
    67   69   54 1
    68   70   69 1
    69   71   69 1
    70   72   69 1
    71   73   54 1
    72   74   73 1
    73   75   73 1
    74   76   73 1
    75   77   56 1
    76   78   77 1
    77   79   77 1
    78   80   77 1
    79   81   56 1
    80   82   81 1
    81   83   81 1
    82   84   81 1
    83   85   63 1
    84   86   85 1
    85   87   85 1
    86   88   85 1
    87   89   63 1
    88   90   89 1
    89   91   89 1
    90   92   89 1
    91   93   51 1
    92   94   52 1
@<TRIPOS>SUBSTRUCTURE
     1 RES1 1
     2 RES2 48
     3 SUP3 95

@<TRIPOS>CRYSIN
  11.2940   18.5880   16.3010  90.0000  91.2000  90.0000 231 1

