# MOL2 file generated by ConQuest
# Please check atom types

@<TRIPOS>MOLECULE
EGIVUM
    47    49     1
SMALL
NO_CHARGES
****
Generated from CSD

@<TRIPOS>ATOM
      1 C1         5.1605    0.6126    7.9255 C.2       1 RES1    0.0000
      2 N1         5.7636   -0.2425    8.8079 N.3       1 RES1    0.0000
      3 O1         3.0691    1.0427    8.9177 O.2       1 RES1    0.0000
      4 N2         3.5624    1.9704    6.8845 N.am      1 RES1    0.0000
      5 O2         8.3300    0.1026    6.3518 O.3       1 RES1    0.0000
      6 C2         7.0174   -0.5400    8.3383 C.2       1 RES1    0.0000
      7 C3         3.8785    1.1889    8.0069 C.2       1 RES1    0.0000
      8 C4         7.1994    0.1192    7.1366 C.2       1 RES1    0.0000
      9 N3         5.6155    1.6086    5.8028 N.am      1 RES1    0.0000
     10 O3         3.9985    2.8784    4.8432 O.2       1 RES1    0.0000
     11 C5         4.3896    2.1974    5.7886 C.2       1 RES1    0.0000
     12 C6         7.9231   -1.4511    9.0296 C.ar      1 RES1    0.0000
     13 C7         6.0241    0.8365    6.8723 C.2       1 RES1    0.0000
     14 C8         2.2413    2.6524    6.8154 C.3       1 RES1    0.0000
     15 C9         9.2808   -1.3848    8.8019 C.ar      1 RES1    0.0000
     16 C10       10.1423   -2.2482    9.4525 C.ar      1 RES1    0.0000
     17 C11        7.4361   -2.3943    9.8835 C.ar      1 RES1    0.0000
     18 C12        9.6552   -3.1261   10.3390 C.ar      1 RES1    0.0000
     19 C13        2.3407    4.1108    7.2322 C.3       1 RES1    0.0000
     20 C14        7.3395    2.6317    4.7679 C.3       1 RES1    0.0000
     21 C15        6.4939    1.6242    4.3796 C.3       1 RES1    0.0000
     22 N4        10.5831   -3.9957   11.0892 N.pl3     1 RES1    0.0000
     23 C16        1.1605    4.9254    6.7117 C.3       1 RES1    0.0000
     24 C17        8.3354    2.4669    3.3467 C.3       1 RES1    0.0000
     25 O4        11.7212   -3.9843   10.7842 O.2       1 RES1    0.0000
     26 C18        8.3103   -3.2546   10.5423 C.ar      1 RES1    0.0000
     27 O5        10.1886   -4.6435   11.9229 O.2       1 RES1    0.0000
     28 H1         6.9620    0.7991    4.2169 H         1 RES1    0.0000
     29 H2         5.9601    1.8450    3.6151 H         1 RES1    0.0000
     30 H3         1.2379    5.8438    6.9801 H         1 RES1    0.0000
     31 H4         1.1437    4.8726    5.7540 H         1 RES1    0.0000
     32 H5         0.3485    4.5554    7.0675 H         1 RES1    0.0000
     33 H6         2.3575    4.1647    8.1898 H         1 RES1    0.0000
     34 H7         3.1519    4.4808    6.8764 H         1 RES1    0.0000
     35 H8         1.9088    2.6099    5.9167 H         1 RES1    0.0000
     36 H9         1.6339    2.1995    7.4050 H         1 RES1    0.0000
     37 H10        5.3783   -0.5753    9.6212 H         1 RES1    0.0000
     38 H11        9.6217   -0.7401    8.1776 H         1 RES1    0.0000
     39 H12       11.0881   -2.2088    9.2919 H         1 RES1    0.0000
     40 H13        6.4853   -2.4803    9.9872 H         1 RES1    0.0000
     41 H14        7.9835   -3.9387   11.1258 H         1 RES1    0.0000
     42 H15        6.9092    3.4868    4.8167 H         1 RES1    0.0000
     43 H16        7.8115    2.4638    5.5893 H         1 RES1    0.0000
     44 H17        9.0463    3.1095    3.3752 H         1 RES1    0.0000
     45 H18        8.7046    1.5858    3.3304 H         1 RES1    0.0000
     46 H19        7.8023    2.6016    2.5578 H         1 RES1    0.0000
     47 H20        8.2536   -0.8841    5.7967 H         1 RES1    0.0000
@<TRIPOS>BOND
     1    1    2 1
     2    2    6 1
     3    3    7 2
     4    4    7 1
     5    5    8 1
     6    6    8 2
     7    7    1 1
     8    8   13 1
     9    9   11 1
    10   10   11 2
    11   11    4 1
    12   12    6 1
    13   13    1 2
    14   14    4 1
    15   15   12 ar
    16   16   15 ar
    17   17   12 ar
    18   18   16 ar
    19   19   14 1
    20   20   21 1
    21   21    9 1
    22   22   18 1
    23   23   19 1
    24   24   20 1
    25   25   22 2
    26   26   17 ar
    27   27   22 2
    28   28   21 1
    29   29   21 1
    30   30   23 1
    31   31   23 1
    32   32   23 1
    33   33   19 1
    34   34   19 1
    35   35   14 1
    36   36   14 1
    37   37    2 1
    38   38   15 1
    39   39   16 1
    40   40   17 1
    41   41   26 1
    42   42   20 1
    43   43   20 1
    44   44   24 1
    45   45   24 1
    46   46   24 1
    47   47    5 1
    48    9   13 1
    49   18   26 ar
@<TRIPOS>SUBSTRUCTURE
     1 RES1 1

@<TRIPOS>CRYSIN
   8.5760   10.3650   20.3420  90.0000  91.7700  90.0000 231 1

