# MOL2 file generated by ConQuest
# Please check atom types

@<TRIPOS>MOLECULE
EGOMUJ
   296   268     5
SMALL
NO_CHARGES
****
Generated from CSD

@<TRIPOS>ATOM
      1 C1         7.6311   15.0037   21.9683 C.ar      1 RES1    0.0000
      2 H1         7.8915   14.5048   22.7340 H         1 RES1    0.0000
      3 C2         8.0953   16.3005   21.7895 C.ar      1 RES1    0.0000
      4 H2         8.6782   16.6803   22.4374 H         1 RES1    0.0000
      5 C3         7.7268   17.0467   20.6916 C.ar      1 RES1    0.0000
      6 H3         8.0615   17.9276   20.5738 H         1 RES1    0.0000
      7 C4         6.8653   16.5011   19.7681 C.ar      1 RES1    0.0000
      8 H4         6.5831   17.0178   19.0214 H         1 RES1    0.0000
      9 C5         6.4062   15.1951   19.9175 C.ar      1 RES1    0.0000
     10 H5         5.8309   14.8167   19.2633 H         1 RES1    0.0000
     11 C6         6.7882   14.4403   21.0264 C.ar      1 RES1    0.0000
     12 C7         6.1510   12.1336   20.2015 C.3       1 RES1    0.0000
     13 H6         5.8571   12.5618   19.3475 H         1 RES1    0.0000
     14 C8         7.5522   11.5176   19.9680 C.3       1 RES1    0.0000
     15 H7         8.0687   11.5847   20.8220 H         1 RES1    0.0000
     16 C9         8.3630   12.2792   18.8426 C.2       1 RES1    0.0000
     17 C10       10.4205   12.3470   17.7573 C.3       1 RES1    0.0000
     18 H8        10.2343   13.3117   17.6374 H         1 RES1    0.0000
     19 H9        11.3780   12.2475   17.9886 H         1 RES1    0.0000
     20 C11       10.1558   11.6589   16.5309 C.3       1 RES1    0.0000
     21 H10       10.2354   10.6927   16.6740 H         1 RES1    0.0000
     22 H11       10.8024   11.9429   15.8515 H         1 RES1    0.0000
     23 H12        9.2486   11.8699   16.2259 H         1 RES1    0.0000
     24 C12        7.4938   10.0844   19.5725 C.2       1 RES1    0.0000
     25 C13        7.3878    8.6004   17.6247 Du        5 SUP5    0.0000
     26 H13        6.5553    8.4223   17.1241 Du        5 SUP5    0.0000
     27 H14        7.4752    7.8968   18.3168 Du        5 SUP5    0.0000
     28 C14        8.5658    8.4645   16.6614 Du        5 SUP5    0.0000
     29 H15        8.4584    9.1040   15.9252 Du        5 SUP5    0.0000
     30 H16        8.5872    7.5529   16.2996 Du        5 SUP5    0.0000
     31 H17        9.4012    8.6483   17.1367 Du        5 SUP5    0.0000
     32 C15        7.2255    8.4803   17.8961 C.3       1 RES1    0.0000
     33 H18        6.4319    8.0190   18.2684 H         1 RES1    0.0000
     34 H19        8.0418    8.0109   18.2032 H         1 RES1    0.0000
     35 C16        7.1646    8.5212   16.3879 C.3       1 RES1    0.0000
     36 H20        7.9322    9.0236   16.0429 H         1 RES1    0.0000
     37 H21        6.3346    8.9595   16.1061 H         1 RES1    0.0000
     38 H22        7.1873    7.6074   16.0345 H         1 RES1    0.0000
     39 C17        5.0461   11.1557   20.6436 C.3       1 RES1    0.0000
     40 H23        4.1654   11.5924   20.5275 H         1 RES1    0.0000
     41 H24        5.0672   10.3588   20.0563 H         1 RES1    0.0000
     42 C18        5.1881   10.7045   22.0967 C.3       1 RES1    0.0000
     43 H25        4.3320   10.3108   22.3995 H         1 RES1    0.0000
     44 H26        5.8829   10.0015   22.1513 H         1 RES1    0.0000
     45 C19        5.5647   11.8554   23.0161 C.3       1 RES1    0.0000
     46 H27        5.8661   11.4633   23.8846 H         1 RES1    0.0000
     47 C20        4.5105   12.8735   23.3181 C.2       1 RES1    0.0000
     48 H28        4.7621   13.7859   23.3924 H         1 RES1    0.0000
     49 C21        1.1676   13.4392   24.0739 C.ar      1 RES1    0.0000
     50 C22        0.6372   12.1234   24.1082 C.ar      1 RES1    0.0000
     51 H29        1.1952   11.3901   23.8741 H         1 RES1    0.0000
     52 C23       -0.6724   11.8858   24.4746 C.ar      1 RES1    0.0000
     53 H30       -1.0115   10.9990   24.5093 H         1 RES1    0.0000
     54 C24       -1.4896   12.9689   24.7933 C.ar      1 RES1    0.0000
     55 C25       -1.0470   14.2552   24.7260 C.ar      1 RES1    0.0000
     56 H31       -1.6293   14.9764   24.9342 H         1 RES1    0.0000
     57 C26        0.2707   14.5001   24.3469 C.ar      1 RES1    0.0000
     58 C27       10.0331    5.2271   20.5233 C.ar      2 RES2    0.0000
     59 H32        9.3453    5.8820   20.5001 H         2 RES2    0.0000
     60 C28        9.7010    3.8833   20.4833 C.ar      2 RES2    0.0000
     61 H33        8.7884    3.6255   20.4286 H         2 RES2    0.0000
     62 C29       10.6842    2.9162   20.5212 C.ar      2 RES2    0.0000
     63 H34       10.4555    1.9942   20.5043 H         2 RES2    0.0000
     64 C30       11.9797    3.3040   20.5822 C.ar      2 RES2    0.0000
     65 H35       12.6586    2.6402   20.5780 H         2 RES2    0.0000
     66 C31       12.3443    4.6302   20.6495 C.ar      2 RES2    0.0000
     67 H36       13.2594    4.8726   20.7315 H         2 RES2    0.0000
     68 C32       11.3468    5.6184   20.5946 C.ar      2 RES2    0.0000
     69 C33       12.8523    7.5362   19.9490 C.3       2 RES2    0.0000
     70 H37       13.6246    6.9008   19.9869 H         2 RES2    0.0000
     71 C34       12.4800    7.7641   18.4598 C.3       2 RES2    0.0000
     72 H38       11.6177    8.2660   18.3967 H         2 RES2    0.0000
     73 C35       12.3426    6.3925   17.7846 C.2       2 RES2    0.0000
     74 C36       10.8298    4.9047   16.7434 C.3       2 RES2    0.0000
     75 H39       11.0841    4.1622   17.3450 H         2 RES2    0.0000
     76 H40       11.3013    4.8031   15.8789 H         2 RES2    0.0000
     77 C37        9.3304    4.9785   16.5541 C.3       2 RES2    0.0000
     78 H41        8.9003    5.1495   17.4165 H         2 RES2    0.0000
     79 H42        9.0049    4.1294   16.1881 H         2 RES2    0.0000
     80 H43        9.1155    5.7052   15.9315 H         2 RES2    0.0000
     81 C38       10.8022    4.7719   17.2061 Du        5 SUP5    0.0000
     82 H44       10.4305    4.4244   18.0601 Du        5 SUP5    0.0000
     83 H45       11.6425    4.2835   17.0210 Du        5 SUP5    0.0000
     84 C39        9.8106    4.5254   16.0913 Du        5 SUP5    0.0000
     85 H46        8.8991    4.4904   16.4510 Du        5 SUP5    0.0000
     86 H47       10.0153    3.6741   15.6454 Du        5 SUP5    0.0000
     87 H48        9.8667    5.2540   15.4308 Du        5 SUP5    0.0000
     88 C40       13.5819    8.5263   17.7404 C.2       2 RES2    0.0000
     89 C41       13.8912   10.5208   16.3038 C.3       2 RES2    0.0000
     90 H49       13.2945   10.9786   15.6622 H         2 RES2    0.0000
     91 H50       14.5589    9.9867   15.8032 H         2 RES2    0.0000
     92 C42       14.5624   11.5092   17.2230 C.3       2 RES2    0.0000
     93 H51       13.9066   11.8548   17.8624 H         2 RES2    0.0000
     94 H52       14.9282   12.2464   16.6950 H         2 RES2    0.0000
     95 H53       15.2871   11.0608   17.7089 H         2 RES2    0.0000
     96 C43       14.2945   10.4994   16.8359 Du        5 SUP5    0.0000
     97 H54       14.5258   10.2953   15.8936 Du        5 SUP5    0.0000
     98 H55       15.0737   10.2627   17.3976 Du        5 SUP5    0.0000
     99 C44       14.0165   11.9865   16.9706 Du        5 SUP5    0.0000
    100 H56       13.2074   12.2106   16.4594 Du        5 SUP5    0.0000
    101 H57       14.7739   12.4943   16.6256 Du        5 SUP5    0.0000
    102 H58       13.8706   12.2041   17.9150 Du        5 SUP5    0.0000
    103 C45       13.2507    8.8273   20.6789 C.3       2 RES2    0.0000
    104 H59       13.6798    8.5937   21.5413 H         2 RES2    0.0000
    105 H60       13.9147    9.3179   20.1320 H         2 RES2    0.0000
    106 C46       12.0605    9.7292   20.9440 C.3       2 RES2    0.0000
    107 H61       11.7821   10.1653   20.1005 H         2 RES2    0.0000
    108 H62       12.3201   10.4388   21.5855 H         2 RES2    0.0000
    109 C47       10.8927    8.9352   21.5140 C.3       2 RES2    0.0000
    110 H63       10.0916    9.5325   21.5519 H         2 RES2    0.0000
    111 C48       11.1156    8.3598   22.8749 C.2       2 RES2    0.0000
    112 H64       10.5603    7.6508   23.1757 H         2 RES2    0.0000
    113 C49       13.1121    8.4499   25.7169 C.ar      2 RES2    0.0000
    114 C50       14.0426    9.4941   25.4094 C.ar      2 RES2    0.0000
    115 H65       13.9714    9.9424   24.5745 H         2 RES2    0.0000
    116 C51       15.0208    9.8639   26.2699 C.ar      2 RES2    0.0000
    117 H66       15.6110   10.5737   26.0469 H         2 RES2    0.0000
    118 C52       15.1577    9.1880   27.4983 C.ar      2 RES2    0.0000
    119 C53       14.3351    8.1502   27.8222 C.ar      2 RES2    0.0000
    120 H67       14.4592    7.6797   28.6384 H         2 RES2    0.0000
    121 C54       13.3160    7.7849   26.9535 C.ar      2 RES2    0.0000
    122 C55        1.3029    9.3006    9.8378 C.ar      3 RES3    0.0000
    123 H68        2.0435    8.7260    9.6885 H         3 RES3    0.0000
    124 C56        0.0310    8.7743   10.0334 C.ar      3 RES3    0.0000
    125 H69       -0.0853    7.8314   10.0439 H         3 RES3    0.0000
    126 C57       -1.0563    9.5875   10.2080 C.ar      3 RES3    0.0000
    127 H70       -1.9200    9.2118   10.3342 H         3 RES3    0.0000
    128 C58       -0.8871   10.9640   10.1996 C.ar      3 RES3    0.0000
    129 H71       -1.6396   11.5317   10.3195 H         3 RES3    0.0000
    130 C59        0.3668   11.5141   10.0166 C.ar      3 RES3    0.0000
    131 H72        0.4730   12.4578    9.9956 H         3 RES3    0.0000
    132 C60        1.4767   10.6827    9.8651 C.ar      3 RES3    0.0000
    133 C61        3.2590   11.9708   10.9371 C.3       3 RES3    0.0000
    134 H73        2.5909   12.6607   11.2134 H         3 RES3    0.0000
    135 C62        3.4303   10.9617   12.1263 C.3       3 RES3    0.0000
    136 H74        3.7665   10.0913   11.7667 H         3 RES3    0.0000
    137 C63        2.0992   10.7218   12.8310 C.2       3 RES3    0.0000
    138 C64        0.7155    9.0595   13.7986 C.3       3 RES3    0.0000
    139 H75       -0.0394    9.3314   13.2180 H         3 RES3    0.0000
    140 H76        0.6172    9.5178   14.6694 H         3 RES3    0.0000
    141 C65        0.6931    7.6067   13.9942 C.3       3 RES3    0.0000
    142 H77        0.7430    7.1585   13.1255 H         3 RES3    0.0000
    143 H78       -0.1375    7.3512   14.4485 H         3 RES3    0.0000
    144 H79        1.4603    7.3397   14.5432 H         3 RES3    0.0000
    145 C66        4.4137   11.4807   13.1381 C.2       3 RES3    0.0000
    146 C67        6.6748   11.3629   13.8827 C.3       3 RES3    0.0000
    147 H80        6.4931   11.1134   14.8230 H         3 RES3    0.0000
    148 H81        6.7469   12.3486   13.8259 H         3 RES3    0.0000
    149 C68        7.9309   10.7276   13.4136 C.3       3 RES3    0.0000
    150 H82        7.8526    9.7542   13.4894 H         3 RES3    0.0000
    151 H83        8.6797   11.0380   13.9647 H         3 RES3    0.0000
    152 H84        8.0915   10.9712   12.4797 H         3 RES3    0.0000
    153 C69        4.5468   12.7083   10.5004 C.3       3 RES3    0.0000
    154 H85        4.3080   13.4418    9.8799 H         3 RES3    0.0000
    155 H86        4.9782   13.1098   11.2955 H         3 RES3    0.0000
    156 C70        5.5341   11.7787    9.8147 C.3       3 RES3    0.0000
    157 H87        5.9494   11.1833   10.4878 H         3 RES3    0.0000
    158 H88        6.2525   12.3134    9.3919 H         3 RES3    0.0000
    159 C71        4.8391   10.9387    8.7545 C.3       3 RES3    0.0000
    160 H89        5.4787   10.2238    8.4727 H         3 RES3    0.0000
    161 C72        4.4266   11.6861    7.5150 C.2       3 RES3    0.0000
    162 H90        3.6658   11.4061    7.0213 H         3 RES3    0.0000
    163 C73        5.5097   14.1626    5.3373 C.ar      3 RES3    0.0000
    164 C74        6.6664   14.6074    6.0095 C.ar      3 RES3    0.0000
    165 H91        6.8550   14.2670    6.8761 H         3 RES3    0.0000
    166 C75        7.5306   15.5176    5.4500 C.ar      3 RES3    0.0000
    167 H92        8.3184   15.7817    5.9128 H         3 RES3    0.0000
    168 C76        7.2350   16.0465    4.2041 C.ar      3 RES3    0.0000
    169 C77        6.1326   15.6707    3.4997 C.ar      3 RES3    0.0000
    170 H93        5.9575   16.0376    2.6419 H         3 RES3    0.0000
    171 C78        5.2669   14.7399    4.0628 C.ar      3 RES3    0.0000
    172 C79       11.0082    5.0811   10.4394 C.ar      4 RES4    0.0000
    173 H94       10.6410    5.4445    9.6422 H         4 RES4    0.0000
    174 C80       12.3528    5.3043   10.7507 C.ar      4 RES4    0.0000
    175 H95       12.8950    5.8288   10.1743 H         4 RES4    0.0000
    176 C81       12.8914    4.7553   11.9055 C.ar      4 RES4    0.0000
    177 H96       13.7988    4.9230   12.1348 H         4 RES4    0.0000
    178 C82       12.1011    3.9611   12.7237 C.ar      4 RES4    0.0000
    179 H97       12.4885    3.5543   13.4915 H         4 RES4    0.0000
    180 C83       10.7855    3.7545   12.4566 C.ar      4 RES4    0.0000
    181 H98       10.2593    3.2246   13.0434 H         4 RES4    0.0000
    182 C84       10.1986    4.3245   11.3018 C.ar      4 RES4    0.0000
    183 C85        7.8905    3.6978   11.9812 C.3       4 RES4    0.0000
    184 H99        8.2639    2.8922   12.4398 H         4 RES4    0.0000
    185 C86        7.7395    4.7665   13.0939 C.3       4 RES4    0.0000
    186 H100       8.6643    4.9107   13.4452 H         4 RES4    0.0000
    187 C87        7.2356    6.1538   12.7174 C.2       4 RES4    0.0000
    188 C88        5.3698    7.4315   11.9917 C.3       4 RES4    0.0000
    189 H101       5.5388    8.0619   12.7342 H         4 RES4    0.0000
    190 H102       4.3915    7.3201   11.8865 H         4 RES4    0.0000
    191 C89        6.0005    7.9663   10.6687 C.3       4 RES4    0.0000
    192 H103       5.6005    8.8318   10.4436 H         4 RES4    0.0000
    193 H104       5.8302    7.3283    9.9451 H         4 RES4    0.0000
    194 H105       6.9672    8.0743   10.7907 H         4 RES4    0.0000
    195 C90        5.9070    7.4591   11.6341 Du        5 SUP5    0.0000
    196 H106       6.4885    7.5392   10.8348 Du        5 SUP5    0.0000
    197 H107       6.1057    8.1953   12.2673 Du        5 SUP5    0.0000
    198 C91        4.4367    7.3680   11.2829 Du        5 SUP5    0.0000
    199 H108       4.1432    8.1993   10.8622 Du        5 SUP5    0.0000
    200 H109       3.9122    7.2104   12.0990 Du        5 SUP5    0.0000
    201 H110       4.2923    6.6189   10.6623 Du        5 SUP5    0.0000
    202 C92        6.9594    4.1805   14.2529 C.2       4 RES4    0.0000
    203 O1         6.7896    5.2751   15.0038 Du        5 SUP5    0.0000
    204 C93        6.1731    4.7264   16.1965 Du        5 SUP5    0.0000
    205 H111       6.1847    5.4042   16.9201 Du        5 SUP5    0.0000
    206 H112       6.6820    3.9372   16.5015 Du        5 SUP5    0.0000
    207 C94        4.7290    4.3225   15.8810 Du        5 SUP5    0.0000
    208 H113       4.1433    5.1074   15.9967 Du        5 SUP5    0.0000
    209 H114       4.4478    3.6202   16.5036 Du        5 SUP5    0.0000
    210 H115       4.6708    4.0024   14.9660 Du        5 SUP5    0.0000
    211 O2         6.2345    5.0969   14.9218 O.3       4 RES4    0.0000
    212 C95        5.4074    4.6577   16.0345 C.3       4 RES4    0.0000
    213 H116       5.2200    5.4249   16.6319 H         4 RES4    0.0000
    214 H117       5.8936    3.9730   16.5583 H         4 RES4    0.0000
    215 C96        4.1121    4.0827   15.5339 C.3       4 RES4    0.0000
    216 H118       3.7423    4.6678   14.8398 H         4 RES4    0.0000
    217 H119       3.4767    4.0155   16.2764 H         4 RES4    0.0000
    218 H120       4.2735    3.1916   15.1595 H         4 RES4    0.0000
    219 C97        6.5990    3.2080   11.2850 C.3       4 RES4    0.0000
    220 H121       6.7265    2.2619   11.0199 H         4 RES4    0.0000
    221 H122       5.8604    3.2354   11.9433 H         4 RES4    0.0000
    222 C98        6.1668    4.0081   10.0334 C.3       4 RES4    0.0000
    223 H123       5.6142    3.4304    9.4487 H         4 RES4    0.0000
    224 H124       5.6135    4.7800   10.3111 H         4 RES4    0.0000
    225 C99        7.3797    4.5101    9.2482 C.3       4 RES4    0.0000
    226 H125       7.0561    5.2315    8.6367 H         4 RES4    0.0000
    227 C100       8.1179    3.5262    8.4104 C.2       4 RES4    0.0000
    228 H126       9.0167    3.7175    8.1698 H         4 RES4    0.0000
    229 C101       8.1427    0.3469    7.0120 C.ar      4 RES4    0.0000
    230 C102       6.8180   -0.1161    7.2543 C.ar      4 RES4    0.0000
    231 H127       6.1356    0.5111    7.4630 H         4 RES4    0.0000
    232 C103       6.5098   -1.4527    7.1923 C.ar      4 RES4    0.0000
    233 H128       5.6185   -1.7472    7.3410 H         4 RES4    0.0000
    234 C104       7.5123   -2.3735    6.9085 C.ar      4 RES4    0.0000
    235 C105       8.7916   -1.9712    6.6038 C.ar      4 RES4    0.0000
    236 H129       9.4614   -2.6118    6.3945 H         4 RES4    0.0000
    237 C106       9.0889   -0.6155    6.6056 C.ar      4 RES4    0.0000
    238 N1         6.1829   13.1731   21.2393 N.3       1 RES1    0.0000
    239 N2         3.2939   12.5596   23.4792 N.2       1 RES1    0.0000
    240 N3         2.4772   13.6296   23.7990 N.pl3     1 RES1    0.0000
    241 H130       2.8147   14.4419   23.8236 H         1 RES1    0.0000
    242 N4         0.6587   15.8809   24.2388 N.pl3     1 RES1    0.0000
    243 N5        -2.8582   12.7166   25.2461 N.pl3     1 RES1    0.0000
    244 N6        11.7438    6.9637   20.7269 N.3       2 RES2    0.0000
    245 N7        12.0370    8.7989   23.6444 N.2       2 RES2    0.0000
    246 N8        12.1225    8.1476   24.8658 N.pl3     2 RES2    0.0000
    247 H131      11.5274    7.5364   25.0814 H         2 RES2    0.0000
    248 N9        12.4421    6.7205   27.4015 N.pl3     2 RES2    0.0000
    249 N10       16.1888    9.6067   28.4326 N.pl3     2 RES2    0.0000
    250 N11        2.7520   11.3120    9.7152 N.3       3 RES3    0.0000
    251 N12        5.0996   12.6945    7.1315 N.2       3 RES3    0.0000
    252 N13        4.7027   13.2572    5.9267 N.pl3     3 RES3    0.0000
    253 H132       3.9385   13.0276    5.5552 H         3 RES3    0.0000
    254 N14        4.1447   14.3343    3.2433 N.pl3     3 RES3    0.0000
    255 N15        8.1919   16.9682    3.5939 N.pl3     3 RES3    0.0000
    256 N16        8.8581    4.0307   10.9469 N.3       4 RES4    0.0000
    257 N17        7.5973    2.4339    8.0000 N.2       4 RES4    0.0000
    258 N18        8.4394    1.6593    7.2085 N.pl3     4 RES4    0.0000
    259 H133       9.1543    2.0139    6.8404 H         4 RES4    0.0000
    260 N19       10.4308   -0.2556    6.2182 N.pl3     4 RES4    0.0000
    261 N20        7.2103   -3.7905    6.9824 N.pl3     4 RES4    0.0000
    262 O3         7.9093   13.1200   18.1779 O.2       1 RES1    0.0000
    263 O4         9.6001   11.8299   18.8574 O.3       1 RES1    0.0000
    264 O5         7.2497    9.9255   18.3168 O.3       1 RES1    0.0000
    265 O6         7.6500    9.1799   20.3750 O.2       1 RES1    0.0000
    266 O7         6.6838   12.5673   22.4443 O.3       1 RES1    0.0000
    267 O8         1.8349   16.1647   23.9866 O.2       1 RES1    0.0000
    268 O9        -0.1986   16.7601   24.3926 O.2       1 RES1    0.0000
    269 O10       -3.6075   13.6903   25.4043 O.2       1 RES1    0.0000
    270 O11       -3.1883   11.5593   25.4712 O.2       1 RES1    0.0000
    271 O12       13.1861    5.5889   17.6878 O.2       2 RES2    0.0000
    272 O13       11.1022    6.2317   17.3618 O.3       2 RES2    0.0000
    273 O14       14.7263    8.1683   17.6710 O.2       2 RES2    0.0000
    274 O15       13.1121    9.6626   17.2482 O.3       2 RES2    0.0000
    275 O16       10.6059    7.8398   20.6232 O.3       2 RES2    0.0000
    276 O17       16.7863   10.6420   28.2046 O.2       2 RES2    0.0000
    277 O18       16.3870    8.9008   29.4103 O.2       2 RES2    0.0000
    278 O19       12.6749    6.1818   28.4791 O.2       2 RES2    0.0000
    279 O20       11.4784    6.3959   26.6916 O.2       2 RES2    0.0000
    280 O21        1.2923   11.5664   13.0981 O.2       3 RES3    0.0000
    281 O22        1.9860    9.4410   13.1749 O.3       3 RES3    0.0000
    282 O23        4.1748   12.3150   13.9740 O.2       3 RES3    0.0000
    283 O24        5.5909   10.8783   13.0054 O.3       3 RES3    0.0000
    284 O25        3.6924   10.2893    9.3311 O.3       3 RES3    0.0000
    285 O26        3.4137   13.4110    3.6610 O.2       3 RES3    0.0000
    286 O27        3.9177   14.9251    2.1937 O.2       3 RES3    0.0000
    287 O28        7.9447   17.4334    2.5039 O.2       3 RES3    0.0000
    288 O29        9.2293   17.2093    4.2020 O.2       3 RES3    0.0000
    289 O30        7.9102    7.1341   12.8836 O.2       4 RES4    0.0000
    290 O31        6.0006    6.1468   12.2595 O.3       4 RES4    0.0000
    291 O32        6.9735    3.0288   14.5413 O.2       4 RES4    0.0000
    292 O33        8.3248    5.1129   10.1514 O.3       4 RES4    0.0000
    293 O34        6.0441   -4.1120    7.1269 O.2       4 RES4    0.0000
    294 O35        8.1346   -4.5914    6.9161 O.2       4 RES4    0.0000
    295 O36       11.2583   -1.1420    6.0503 O.2       4 RES4    0.0000
    296 O37       10.7033    0.9391    6.0535 O.2       4 RES4    0.0000
@<TRIPOS>BOND
     1    1    2 1
     2    3    1 ar
     3    4    3 1
     4    5    3 ar
     5    6    5 1
     6    7    5 ar
     7    8    7 1
     8    9    7 ar
     9   10    9 1
    10   11    1 ar
    11   12   13 1
    12   14   12 1
    13   15   14 1
    14   16   14 1
    15   17   18 1
    16   19   17 1
    17   20   17 1
    18   21   20 1
    19   22   20 1
    20   23   20 1
    21   24   14 1
    22   32   33 1
    23   34   32 1
    24   35   32 1
    25   36   35 1
    26   37   35 1
    27   38   35 1
    28   39   12 1
    29   40   39 1
    30   41   39 1
    31   42   39 1
    32   43   42 1
    33   44   42 1
    34   45   42 1
    35   46   45 1
    36   47   45 1
    37   48   47 1
    38   49   50 ar
    39   50   51 1
    40   52   50 ar
    41   53   52 1
    42   54   52 ar
    43   55   54 ar
    44   56   55 1
    45   57   49 ar
    46   58   59 1
    47   60   58 ar
    48   61   60 1
    49   62   60 ar
    50   63   62 1
    51   64   62 ar
    52   65   64 1
    53   66   64 ar
    54   67   66 1
    55   68   58 ar
    56   69   70 1
    57   71   69 1
    58   72   71 1
    59   73   71 1
    60   74   75 1
    61   76   74 1
    62   77   74 1
    63   78   77 1
    64   79   77 1
    65   80   77 1
    66   88   71 1
    67   89   90 1
    68   91   89 1
    69   92   89 1
    70   93   92 1
    71   94   92 1
    72   95   92 1
    73  103   69 1
    74  104  103 1
    75  105  103 1
    76  106  103 1
    77  107  106 1
    78  108  106 1
    79  109  106 1
    80  110  109 1
    81  111  109 1
    82  112  111 1
    83  113  114 ar
    84  114  115 1
    85  116  114 ar
    86  117  116 1
    87  118  116 ar
    88  119  118 ar
    89  120  119 1
    90  121  113 ar
    91  122  123 1
    92  124  122 ar
    93  125  124 1
    94  126  124 ar
    95  127  126 1
    96  128  126 ar
    97  129  128 1
    98  130  128 ar
    99  131  130 1
   100  132  122 ar
   101  133  134 1
   102  135  133 1
   103  136  135 1
   104  137  135 1
   105  138  139 1
   106  140  138 1
   107  141  138 1
   108  142  141 1
   109  143  141 1
   110  144  141 1
   111  145  135 1
   112  146  147 1
   113  148  146 1
   114  149  146 1
   115  150  149 1
   116  151  149 1
   117  152  149 1
   118  153  133 1
   119  154  153 1
   120  155  153 1
   121  156  153 1
   122  157  156 1
   123  158  156 1
   124  159  156 1
   125  160  159 1
   126  161  159 1
   127  162  161 1
   128  163  164 ar
   129  164  165 1
   130  166  164 ar
   131  167  166 1
   132  168  166 ar
   133  169  168 ar
   134  170  169 1
   135  171  163 ar
   136  172  173 1
   137  174  172 ar
   138  175  174 1
   139  176  174 ar
   140  177  176 1
   141  178  176 ar
   142  179  178 1
   143  180  178 ar
   144  181  180 1
   145  182  172 ar
   146  183  184 1
   147  185  183 1
   148  186  185 1
   149  187  185 1
   150  188  189 1
   151  190  188 1
   152  191  188 1
   153  192  191 1
   154  193  191 1
   155  194  191 1
   156  202  185 1
   157  211  202 1
   158  212  211 1
   159  213  212 1
   160  214  212 1
   161  215  212 1
   162  216  215 1
   163  217  215 1
   164  218  215 1
   165  219  183 1
   166  220  219 1
   167  221  219 1
   168  222  219 1
   169  223  222 1
   170  224  222 1
   171  225  222 1
   172  226  225 1
   173  227  225 1
   174  228  227 1
   175  229  230 ar
   176  230  231 1
   177  232  230 ar
   178  233  232 1
   179  234  232 ar
   180  235  234 ar
   181  236  235 1
   182  237  229 ar
   183  238   11 1
   184  239   47 2
   185  240   49 1
   186  241  240 1
   187  242   57 1
   188  243   54 1
   189  244   68 1
   190  245  111 2
   191  246  113 1
   192  247  246 1
   193  248  121 1
   194  249  118 1
   195  250  132 1
   196  251  161 2
   197  252  163 1
   198  253  252 1
   199  254  171 1
   200  255  168 1
   201  256  182 1
   202  257  227 2
   203  258  229 1
   204  259  258 1
   205  260  237 1
   206  261  234 1
   207  262   16 2
   208  263   16 1
   209  264   24 1
   210  265   24 2
   211  266   45 1
   212  267  242 2
   213  268  242 2
   214  269  243 2
   215  270  243 2
   216  271   73 2
   217  272   73 1
   218  273   88 2
   219  274   88 1
   220  275  109 1
   221  276  249 2
   222  277  249 2
   223  278  248 2
   224  279  248 2
   225  280  137 2
   226  281  137 1
   227  282  145 2
   228  283  145 1
   229  284  159 1
   230  285  254 2
   231  286  254 2
   232  287  255 2
   233  288  255 2
   234  289  187 2
   235  290  187 1
   236  291  202 2
   237  292  225 1
   238  293  261 2
   239  294  261 2
   240  295  260 2
   241  296  260 2
   242    9   11 ar
   243   12  238 1
   244   17  263 1
   245   32  264 1
   246   55   57 ar
   247   66   68 ar
   248   69  244 1
   249   74  272 1
   250   89  274 1
   251  119  121 ar
   252  130  132 ar
   253  133  250 1
   254  138  281 1
   255  146  283 1
   256  169  171 ar
   257  180  182 ar
   258  183  256 1
   259  188  290 1
   260  235  237 ar
   261  238  266 1
   262  239  240 1
   263  244  275 1
   264  245  246 1
   265  250  284 1
   266  251  252 1
   267  256  292 1
   268  257  258 1
@<TRIPOS>SUBSTRUCTURE
     1 RES1 1
     2 RES2 58
     3 RES3 122
     4 RES4 172
     5 SUP5 25

@<TRIPOS>CRYSIN
  10.8521   11.1482   21.2318  82.5730  86.6370  82.6180   1 1

