# MOL2 file generated by ConQuest
# Please check atom types

@<TRIPOS>MOLECULE
EGOTOK
   108   110     2
SMALL
NO_CHARGES
****
Generated from CSD

@<TRIPOS>ATOM
      1 C1        -5.0438    3.9964    6.1252 C.3       1 RES1    0.0000
      2 H1        -5.0575    4.7117    6.7942 H         1 RES1    0.0000
      3 H2        -5.8112    3.4032    6.2637 H         1 RES1    0.0000
      4 H3        -5.0912    4.3876    5.2279 H         1 RES1    0.0000
      5 O1        -3.8330    3.2463    6.2546 O.3       1 RES1    0.0000
      6 C2        -3.4898    2.4498    5.1410 C.3       1 RES1    0.0000
      7 C3        -4.6062    1.5047    4.7328 C.3       1 RES1    0.0000
      8 H4        -5.3597    2.0215    4.3794 H         1 RES1    0.0000
      9 H5        -4.9009    0.9902    5.5144 H         1 RES1    0.0000
     10 H6        -4.2784    0.8902    4.0425 H         1 RES1    0.0000
     11 C4        -2.1960    1.7158    5.5736 C.3       1 RES1    0.0000
     12 C5        -2.2611    1.1862    6.9942 C.3       1 RES1    0.0000
     13 H7        -1.4383    0.6931    7.1957 H         1 RES1    0.0000
     14 H8        -3.0314    0.5876    7.0855 H         1 RES1    0.0000
     15 H9        -2.3538    1.9360    7.6175 H         1 RES1    0.0000
     16 O2        -2.0213    0.7021    4.6031 O.3       1 RES1    0.0000
     17 C6        -0.8762   -0.1394    4.7305 C.3       1 RES1    0.0000
     18 H10       -0.8975   -0.8274    4.0331 H         1 RES1    0.0000
     19 H11       -0.8825   -0.5669    5.6120 H         1 RES1    0.0000
     20 H12       -0.0636    0.3994    4.6344 H         1 RES1    0.0000
     21 O3        -1.0843    2.6173    5.5599 O.3       1 RES1    0.0000
     22 C7        -0.8838    3.2280    4.2876 C.3       1 RES1    0.0000
     23 H13       -0.7489    2.5261    3.6018 H         1 RES1    0.0000
     24 H14       -0.0700    3.7903    4.3165 H         1 RES1    0.0000
     25 C8        -2.0805    4.0845    3.9079 C.3       1 RES1    0.0000
     26 O4        -3.2785    3.2595    3.9742 O.3       1 RES1    0.0000
     27 C9        -2.2230    5.3476    4.7750 C.3       1 RES1    0.0000
     28 H15       -3.0185    5.8523    4.4707 H         1 RES1    0.0000
     29 H16       -2.3837    5.0721    5.7128 H         1 RES1    0.0000
     30 C10       -1.0380    6.2592    4.7415 C.2       1 RES1    0.0000
     31 H17       -0.7411    6.5659    3.8930 H         1 RES1    0.0000
     32 C11       -0.3843    6.6620    5.7931 C.2       1 RES1    0.0000
     33 H18       -0.6529    6.3751    6.6573 H         1 RES1    0.0000
     34 H19        0.3617    7.2419    5.6955 H         1 RES1    0.0000
     35 C12       -2.0173    4.3867    2.4271 C.2       1 RES1    0.0000
     36 H20       -1.7671    3.7050    1.8151 H         1 RES1    0.0000
     37 N1        -2.2980    5.5496    2.0006 N.2       1 RES1    0.0000
     38 N2        -2.3100    5.7282    0.6308 N.pl3     1 RES1    0.0000
     39 H21       -2.0409    5.0942    0.0834 H         1 RES1    0.0000
     40 C13       -2.7556    6.9305    0.1639 C.ar      1 RES1    0.0000
     41 C14       -2.9914    7.9873    1.0783 C.ar      1 RES1    0.0000
     42 H22       -2.7959    7.8602    1.9992 H         1 RES1    0.0000
     43 C15       -3.4949    9.1834    0.6627 C.ar      1 RES1    0.0000
     44 H23       -3.6618    9.8734    1.2940 H         1 RES1    0.0000
     45 C16       -3.7658    9.3964   -0.6879 C.ar      1 RES1    0.0000
     46 C17       -3.5330    8.4226   -1.6200 C.ar      1 RES1    0.0000
     47 H24       -3.7039    8.5828   -2.5408 H         1 RES1    0.0000
     48 C18       -3.0396    7.1919   -1.1950 C.ar      1 RES1    0.0000
     49 N3        -2.8643    6.1763   -2.2264 N.pl3     1 RES1    0.0000
     50 O5        -2.2593    5.1389   -1.9377 O.2       1 RES1    0.0000
     51 O6        -3.3322    6.3847   -3.3371 O.2       1 RES1    0.0000
     52 N4        -4.3258   10.6696   -1.1230 N.pl3     1 RES1    0.0000
     53 O7        -4.5255   11.5318   -0.2649 O.2       1 RES1    0.0000
     54 O8        -4.5537   10.8352   -2.3071 O.2       1 RES1    0.0000
     55 C19       -1.4455   -1.8839    9.1004 C.3       2 RES2    0.0000
     56 H25       -1.4787   -2.5291    8.3637 H         2 RES2    0.0000
     57 H26       -2.2089   -1.2741    9.0359 H         2 RES2    0.0000
     58 H27       -1.4809   -2.3626    9.9552 H         2 RES2    0.0000
     59 O9        -0.2271   -1.1348    9.0243 O.3       2 RES2    0.0000
     60 C20        0.1281   -0.4031   10.1788 C.3       2 RES2    0.0000
     61 C21       -0.9873    0.5286   10.6290 C.3       2 RES2    0.0000
     62 H28       -1.7890    0.0039   10.8352 H         2 RES2    0.0000
     63 H29       -1.1901    1.1657    9.9127 H         2 RES2    0.0000
     64 H30       -0.7020    1.0179   11.4287 H         2 RES2    0.0000
     65 C22        1.4280    0.3457    9.7832 C.3       2 RES2    0.0000
     66 C23        1.3474    0.9543    8.3921 C.3       2 RES2    0.0000
     67 H31        2.1474    1.4955    8.2252 H         2 RES2    0.0000
     68 H32        0.5507    1.5213    8.3291 H         2 RES2    0.0000
     69 H33        1.2924    0.2389    7.7246 H         2 RES2    0.0000
     70 O10        1.6144    1.2971   10.8108 O.3       2 RES2    0.0000
     71 C24        2.7441    2.1718   10.6699 C.3       2 RES2    0.0000
     72 H34        2.9876    2.5336   11.5483 H         2 RES2    0.0000
     73 H35        2.5132    2.9082   10.0654 H         2 RES2    0.0000
     74 H36        3.5007    1.6707   10.3016 H         2 RES2    0.0000
     75 O11        2.5209   -0.5601    9.7221 O.3       2 RES2    0.0000
     76 C25        2.7312   -1.2391   10.9619 C.3       2 RES2    0.0000
     77 H37        2.8843   -0.5752   11.6806 H         2 RES2    0.0000
     78 H38        3.5381   -1.8099   10.8935 H         2 RES2    0.0000
     79 C26        1.5245   -2.1043   11.3171 C.3       2 RES2    0.0000
     80 O12        0.3388   -1.2732   11.3007 O.3       2 RES2    0.0000
     81 C27        1.3680   -3.3411   10.4102 C.3       2 RES2    0.0000
     82 H39        0.7168   -3.9568   10.8321 H         2 RES2    0.0000
     83 H40        0.9833   -3.0481    9.5459 H         2 RES2    0.0000
     84 C28        2.6335   -4.1080   10.1300 C.2       2 RES2    0.0000
     85 H41        3.1623   -4.3784   10.8714 H         2 RES2    0.0000
     86 C29        3.0451   -4.4210    8.9415 C.2       2 RES2    0.0000
     87 H42        2.5384   -4.1648    8.1795 H         2 RES2    0.0000
     88 H43        3.8542   -4.9071    8.8313 H         2 RES2    0.0000
     89 C30        1.6742   -2.4610   12.7792 C.2       2 RES2    0.0000
     90 H44        1.3494   -1.8639   13.4437 H         2 RES2    0.0000
     91 N5         2.2221   -3.5347   13.1266 N.2       2 RES2    0.0000
     92 N6         2.4043   -3.7282   14.4858 N.pl3     2 RES2    0.0000
     93 H45        2.1327   -3.1261   15.0667 H         2 RES2    0.0000
     94 C31        3.0103   -4.8667   14.8996 C.ar      2 RES2    0.0000
     95 C32        3.4333   -5.8351   13.9537 C.ar      2 RES2    0.0000
     96 H46        3.2705   -5.6800   13.0312 H         2 RES2    0.0000
     97 C33        4.0689   -6.9886   14.3331 C.ar      2 RES2    0.0000
     98 H47        4.3504   -7.6178   13.6782 H         2 RES2    0.0000
     99 C34        4.2988   -7.2297   15.6869 C.ar      2 RES2    0.0000
    100 C35        3.9144   -6.3362   16.6582 C.ar      2 RES2    0.0000
    101 H48        4.0836   -6.5127   17.5759 H         2 RES2    0.0000
    102 C36        3.2719   -5.1678   16.2659 C.ar      2 RES2    0.0000
    103 O13        2.4164   -3.1626   17.0446 O.2       2 RES2    0.0000
    104 N7         2.9146   -4.2449   17.3392 N.pl3     2 RES2    0.0000
    105 N8         4.9825   -8.4488   16.0954 N.pl3     2 RES2    0.0000
    106 O14        3.1125   -4.5830   18.4879 O.2       2 RES2    0.0000
    107 O15        5.2916   -9.2563   15.2266 O.2       2 RES2    0.0000
    108 O16        5.2498   -8.6118   17.2682 O.2       2 RES2    0.0000
@<TRIPOS>BOND
     1    1    2 1
     2    3    1 1
     3    4    1 1
     4    5    1 1
     5    6    5 1
     6    7    6 1
     7    8    7 1
     8    9    7 1
     9   10    7 1
    10   11    6 1
    11   12   11 1
    12   13   12 1
    13   14   12 1
    14   15   12 1
    15   16   11 1
    16   17   16 1
    17   18   17 1
    18   19   17 1
    19   20   17 1
    20   21   11 1
    21   22   21 1
    22   23   22 1
    23   24   22 1
    24   25   22 1
    25   26    6 1
    26   27   25 1
    27   28   27 1
    28   29   27 1
    29   30   27 1
    30   31   30 1
    31   32   30 2
    32   33   32 1
    33   34   32 1
    34   35   25 1
    35   36   35 1
    36   37   35 2
    37   38   37 1
    38   39   38 1
    39   40   38 1
    40   41   40 ar
    41   42   41 1
    42   43   41 ar
    43   44   43 1
    44   45   43 ar
    45   46   45 ar
    46   47   46 1
    47   48   40 ar
    48   49   48 1
    49   50   49 2
    50   51   49 2
    51   52   45 1
    52   53   52 2
    53   54   52 2
    54   55   56 1
    55   57   55 1
    56   58   55 1
    57   59   55 1
    58   60   59 1
    59   61   60 1
    60   62   61 1
    61   63   61 1
    62   64   61 1
    63   65   60 1
    64   66   65 1
    65   67   66 1
    66   68   66 1
    67   69   66 1
    68   70   65 1
    69   71   70 1
    70   72   71 1
    71   73   71 1
    72   74   71 1
    73   75   65 1
    74   76   75 1
    75   77   76 1
    76   78   76 1
    77   79   76 1
    78   80   60 1
    79   81   79 1
    80   82   81 1
    81   83   81 1
    82   84   81 1
    83   85   84 1
    84   86   84 2
    85   87   86 1
    86   88   86 1
    87   89   79 1
    88   90   89 1
    89   91   89 2
    90   92   91 1
    91   93   92 1
    92   94   92 1
    93   95   94 ar
    94   96   95 1
    95   97   95 ar
    96   98   97 1
    97   99   97 ar
    98  100   99 ar
    99  101  100 1
   100  102   94 ar
   101  103  104 2
   102  104  102 1
   103  105   99 1
   104  106  104 2
   105  107  105 2
   106  108  105 2
   107   25   26 1
   108   46   48 ar
   109   79   80 1
   110  100  102 ar
@<TRIPOS>SUBSTRUCTURE
     1 RES1 1
     2 RES2 55

@<TRIPOS>CRYSIN
   7.2898    9.3886   15.9051  91.0070  97.1770 111.9340   1 1

