# MOL2 file generated by ConQuest
# Please check atom types

@<TRIPOS>MOLECULE
EGOWEE
    96   102     2
SMALL
USER_CHARGES
****
Generated from CSD

@<TRIPOS>ATOM
      1 C1         4.6343   -1.6155    6.5345 C.2       1 RES1    0.0000
      2 C2         3.7634   -1.5228    7.7357 C.3       1 RES1    0.0000
      3 H1         3.4286   -2.4240    7.9249 H         1 RES1    0.0000
      4 C3         4.7634   -1.1606    8.8619 C.3       1 RES1    0.0000
      5 H2         4.4674   -1.5242    9.7207 H         1 RES1    0.0000
      6 C4         6.0087   -1.8778    8.3712 C.3       1 RES1    0.0000
      7 H3         5.9149   -2.8225    8.6126 H         1 RES1    0.0000
      8 C5         5.0113    0.3738    8.9658 C.3       1 RES1    0.0000
      9 H4         5.1016    0.7360    8.0601 H         1 RES1    0.0000
     10 C6         4.0061    1.2417    9.7357 C.3       1 RES1    0.0000
     11 H5         3.3916    0.6868   10.2402 H         1 RES1    0.0000
     12 H6         3.4958    1.7981    9.1261 H         1 RES1    0.0000
     13 C7         4.8676    2.1096   10.6817 C.3       1 RES1    0.0000
     14 H7         4.5663    3.0325   10.6576 H         1 RES1    0.0000
     15 H8         4.7970    1.7865   11.5916 H         1 RES1    0.0000
     16 N1         6.2746    2.0154   10.2069 N.4       1 RES1    1.0000
     17 C8         6.5810    3.0253    9.1261 C.3       1 RES1    0.0000
     18 H9         6.0208    2.8398    8.3573 H         1 RES1    0.0000
     19 H10        6.3547    3.9106    9.4504 H         1 RES1    0.0000
     20 C9         8.0087    3.0210    8.6937 C.3       1 RES1    0.0000
     21 H11        8.5544    2.7732    9.4564 H         1 RES1    0.0000
     22 H12        8.2514    3.9280    8.4474 H         1 RES1    0.0000
     23 C10        8.3719    2.1110    7.5435 C.3       1 RES1    0.0000
     24 H13        9.3323    1.9806    7.5495 H         1 RES1    0.0000
     25 H14        8.1464    2.5631    6.7147 H         1 RES1    0.0000
     26 C11        7.7075    0.7534    7.5378 C.3       1 RES1    0.0000
     27 H15        8.2342    0.1536    6.9850 H         1 RES1    0.0000
     28 H16        6.8340    0.8375    7.1261 H         1 RES1    0.0000
     29 C12        7.5354    0.1174    8.9195 C.3       1 RES1    0.0000
     30 H17        8.3323    0.3130    9.4534 H         1 RES1    0.0000
     31 C13        6.3263    0.5607    9.6871 C.3       1 RES1    0.0000
     32 H18        6.2832   -0.0116   10.4805 H         1 RES1    0.0000
     33 C14        7.3685   -1.4344    8.8258 C.3       1 RES1    0.0000
     34 H19        8.0139   -1.7546    8.1622 H         1 RES1    0.0000
     35 C15        2.5646   -0.6404    7.4865 C.3       1 RES1    0.0000
     36 H20        2.0336   -0.5883    8.2853 H         1 RES1    0.0000
     37 H21        2.0379   -1.0113    6.7748 H         1 RES1    0.0000
     38 H22        2.8606    0.2391    7.2402 H         1 RES1    0.0000
     39 C16        7.6963   -2.1458   10.1652 C.3       1 RES1    0.0000
     40 H23        7.0827   -1.8300   10.8468 H         1 RES1    0.0000
     41 H24        7.5535   -3.0992   10.0601 H         1 RES1    0.0000
     42 C17        9.1439   -1.9068   10.6456 C.3       1 RES1    0.0000
     43 H25        9.7583   -2.1907    9.9670 H         1 RES1    0.0000
     44 H26        9.3022   -2.4095   11.4474 H         1 RES1    0.0000
     45 H27        9.2721   -0.9722   10.8258 H         1 RES1    0.0000
     46 O1         4.3194   -1.5619    5.3562 O.2       1 RES1    0.0000
     47 O2         5.9407   -1.7937    6.9153 O.3       1 RES1    0.0000
     48 O3         7.1654    2.1748   11.2561 O.2       1 RES1   -1.0000
     49 C18        4.6756    2.3487    4.9339 C.2       2 RES2    0.0000
     50 C19        3.7273    2.2328    3.7658 C.3       2 RES2    0.0000
     51 H28        3.4174    3.1383    3.5556 H         2 RES2    0.0000
     52 C20        4.6576    1.8184    2.6547 C.3       2 RES2    0.0000
     53 H29        4.3202    2.1574    1.7988 H         2 RES2    0.0000
     54 C21        5.9295    2.5892    3.0507 C.3       2 RES2    0.0000
     55 H30        5.8271    3.5295    2.7988 H         2 RES2    0.0000
     56 C22        4.8710    0.3159    2.5586 C.3       2 RES2    0.0000
     57 H31        4.9476   -0.0551    3.4625 H         2 RES2    0.0000
     58 C23        3.8675   -0.5173    1.7598 C.3       2 RES2    0.0000
     59 H32        3.2100   -0.9070    2.3544 H         2 RES2    0.0000
     60 H33        3.4054    0.0449    1.1171 H         2 RES2    0.0000
     61 C24        4.6171   -1.5923    1.0511 C.3       2 RES2    0.0000
     62 H34        4.3202   -2.4631    1.3544 H         2 RES2    0.0000
     63 H35        4.4639   -1.5315    0.0961 H         2 RES2    0.0000
     64 N2         6.0500   -1.4098    1.3483 N.4       2 RES2    1.0000
     65 C25        6.2815   -2.3979    2.5105 C.3       2 RES2    0.0000
     66 H36        5.6232   -2.1951    3.1952 H         2 RES2    0.0000
     67 H37        6.0758   -3.2861    2.1772 H         2 RES2    0.0000
     68 C26        7.5483   -2.4747    3.1592 C.3       2 RES2    0.0000
     69 H38        8.1705   -2.7181    2.4535 H         2 RES2    0.0000
     70 H39        7.4846   -3.2542    3.7327 H         2 RES2    0.0000
     71 C27        8.2686   -1.4706    3.9640 C.3       2 RES2    0.0000
     72 H40        9.1869   -1.4272    3.6547 H         2 RES2    0.0000
     73 H41        8.2833   -1.7677    4.8889 H         2 RES2    0.0000
     74 C28        7.6593   -0.0464    3.9129 C.3       2 RES2    0.0000
     75 H42        6.8134   -0.0580    4.3874 H         2 RES2    0.0000
     76 H43        8.2514    0.5564    4.3874 H         2 RES2    0.0000
     77 C29        7.4175    0.5187    2.5180 C.3       2 RES2    0.0000
     78 H44        8.1921    0.2825    1.9670 H         2 RES2    0.0000
     79 C30        6.1524    0.0145    1.7862 C.3       2 RES2    0.0000
     80 H45        6.0948    0.5462    0.9640 H         2 RES2    0.0000
     81 C31        7.2987    2.0589    2.5138 C.3       2 RES2    0.0000
     82 H46        7.9743    2.3791    3.1471 H         2 RES2    0.0000
     83 C32        2.4992    1.3967    4.0450 C.3       2 RES2    0.0000
     84 H47        2.7660    0.5129    4.3063 H         2 RES2    0.0000
     85 H48        1.9570    1.3489    3.2553 H         2 RES2    0.0000
     86 H49        1.9940    1.8010    4.7568 H         2 RES2    0.0000
     87 C33        7.6335    2.7471    1.1562 C.3       2 RES2    0.0000
     88 H50        7.0948    2.3429    0.4595 H         2 RES2    0.0000
     89 H51        7.3917    3.6846    1.2132 H         2 RES2    0.0000
     90 C34        9.0208    2.6442    0.7928 C.3       2 RES2    0.0000
     91 H52        9.5647    2.9876    1.5045 H         2 RES2    0.0000
     92 H53        9.1809    3.1514   -0.0060 H         2 RES2    0.0000
     93 H54        9.2437    1.7242    0.6366 H         2 RES2    0.0000
     94 O4         4.3891    2.3414    6.1045 O.2       2 RES2    0.0000
     95 O5         5.9123    2.4776    4.5192 O.3       2 RES2    0.0000
     96 O6         6.7815   -1.5923    0.2192 O.2       2 RES2   -1.0000
@<TRIPOS>BOND
     1    1    2 1
     2    2    3 1
     3    4    2 1
     4    5    4 1
     5    6    4 1
     6    7    6 1
     7    8    4 1
     8    9    8 1
     9   10    8 1
    10   11   10 1
    11   12   10 1
    12   13   10 1
    13   14   13 1
    14   15   13 1
    15   16   13 1
    16   17   16 1
    17   18   17 1
    18   19   17 1
    19   20   17 1
    20   21   20 1
    21   22   20 1
    22   23   20 1
    23   24   23 1
    24   25   23 1
    25   26   23 1
    26   27   26 1
    27   28   26 1
    28   29   26 1
    29   30   29 1
    30   31    8 1
    31   32   31 1
    32   33    6 1
    33   34   33 1
    34   35    2 1
    35   36   35 1
    36   37   35 1
    37   38   35 1
    38   39   33 1
    39   40   39 1
    40   41   39 1
    41   42   39 1
    42   43   42 1
    43   44   42 1
    44   45   42 1
    45   46    1 2
    46   47    1 1
    47   48   16 1
    48   49   50 1
    49   50   51 1
    50   52   50 1
    51   53   52 1
    52   54   52 1
    53   55   54 1
    54   56   52 1
    55   57   56 1
    56   58   56 1
    57   59   58 1
    58   60   58 1
    59   61   58 1
    60   62   61 1
    61   63   61 1
    62   64   61 1
    63   65   64 1
    64   66   65 1
    65   67   65 1
    66   68   65 1
    67   69   68 1
    68   70   68 1
    69   71   68 1
    70   72   71 1
    71   73   71 1
    72   74   71 1
    73   75   74 1
    74   76   74 1
    75   77   74 1
    76   78   77 1
    77   79   56 1
    78   80   79 1
    79   81   54 1
    80   82   81 1
    81   83   50 1
    82   84   83 1
    83   85   83 1
    84   86   83 1
    85   87   81 1
    86   88   87 1
    87   89   87 1
    88   90   87 1
    89   91   90 1
    90   92   90 1
    91   93   90 1
    92   94   49 2
    93   95   49 1
    94   96   64 1
    95    6   47 1
    96   16   31 1
    97   29   31 1
    98   29   33 1
    99   54   95 1
   100   64   79 1
   101   77   79 1
   102   77   81 1
@<TRIPOS>SUBSTRUCTURE
     1 RES1 1
     2 RES2 49

@<TRIPOS>CRYSIN
   8.6060   14.4890   30.0300  90.0000  90.0000  90.0000  19 1

