# MOL2 file generated by ConQuest
# Please check atom types

@<TRIPOS>MOLECULE
EGUFAN
    63    66     1
SMALL
NO_CHARGES
****
Generated from CSD

@<TRIPOS>ATOM
      1 N1         7.7212    5.0041   10.3413 N.am      1 RES1    0.0000
      2 C1         6.9456    5.9760    9.8134 C.2       1 RES1    0.0000
      3 C2         5.6867    5.1533   10.0379 C.3       1 RES1    0.0000
      4 H1         5.2389    4.8691    9.2486 H         1 RES1    0.0000
      5 C3         6.6082    4.1348   10.7267 C.3       1 RES1    0.0000
      6 H2         6.5841    3.2950   10.4485 H         1 RES1    0.0000
      7 C4         6.4266    3.9425   12.2332 C.3       1 RES1    0.0000
      8 H3         6.3865    4.8396   12.6689 H         1 RES1    0.0000
      9 N2         7.5070    3.0561   12.7158 N.3       1 RES1    0.0000
     10 O1         6.8597    1.7657   12.9168 O.3       1 RES1    0.0000
     11 C5         5.4737    1.9539   13.2186 C.3       1 RES1    0.0000
     12 H4         4.9894    1.2149   12.8516 H         1 RES1    0.0000
     13 C6         5.0822    3.2667   12.5449 C.3       1 RES1    0.0000
     14 H5         4.6054    3.1782   11.7891 H         1 RES1    0.0000
     15 C7         9.1354    4.8584   10.3714 C.ar      1 RES1    0.0000
     16 C8         9.9284    5.8699   10.8859 C.ar      1 RES1    0.0000
     17 H6         9.5361    6.6313   11.2495 H         1 RES1    0.0000
     18 C9        11.3038    5.7472   10.8591 C.ar      1 RES1    0.0000
     19 H7        11.8380    6.4307   11.1942 H         1 RES1    0.0000
     20 C10       11.8793    4.6214   10.3413 C.ar      1 RES1    0.0000
     21 C11       11.1054    3.5887    9.8670 C.ar      1 RES1    0.0000
     22 H8        11.5015    2.8173    9.5319 H         1 RES1    0.0000
     23 C12        9.7272    3.7137    9.8972 C.ar      1 RES1    0.0000
     24 H9         9.1954    3.0143    9.5922 H         1 RES1    0.0000
     25 O2        13.2515    4.6084   10.3530 O.3       1 RES1    0.0000
     26 C13       13.9068    3.4153    9.9525 C.3       1 RES1    0.0000
     27 H10       13.5762    2.6787   10.4720 H         1 RES1    0.0000
     28 H11       14.8516    3.5073   10.0932 H         1 RES1    0.0000
     29 H12       13.7358    3.2531    9.0207 H         1 RES1    0.0000
     30 O3         7.2115    7.0577    9.3090 O.2       1 RES1    0.0000
     31 O4         4.6697    5.6806   10.8535 O.3       1 RES1    0.0000
     32 C14        3.7204    6.4514   10.1552 C.3       1 RES1    0.0000
     33 H13        4.1581    7.1986    9.7397 H         1 RES1    0.0000
     34 H14        3.0537    6.7710   10.7669 H         1 RES1    0.0000
     35 H15        3.3041    5.9106    9.4799 H         1 RES1    0.0000
     36 C15        8.1099    3.5132   14.0028 C.3       1 RES1    0.0000
     37 H16        7.4430    3.4737   14.7067 H         1 RES1    0.0000
     38 H17        8.4020    4.4338   13.9157 H         1 RES1    0.0000
     39 C16        9.2833    2.6421   14.3698 C.ar      1 RES1    0.0000
     40 C17        9.1829    1.6678   15.3351 C.ar      1 RES1    0.0000
     41 H18        8.3771    1.5357   15.7809 H         1 RES1    0.0000
     42 C18       10.2720    0.8899   15.6401 C.ar      1 RES1    0.0000
     43 H19       10.1853    0.2318   16.2920 H         1 RES1    0.0000
     44 C19       11.4597    1.0462   15.0301 C.ar      1 RES1    0.0000
     45 H20       12.1816    0.5096   15.2630 H         1 RES1    0.0000
     46 C20       11.5919    1.9975   14.0716 C.ar      1 RES1    0.0000
     47 H21       12.4013    2.1037   13.6275 H         1 RES1    0.0000
     48 C21       10.4917    2.8255   13.7515 C.ar      1 RES1    0.0000
     49 H22       10.5893    3.4990   13.1180 H         1 RES1    0.0000
     50 C22        5.1378    1.8660   14.7117 C.2       1 RES1    0.0000
     51 O5         5.9173    1.7186   15.5965 O.2       1 RES1    0.0000
     52 O6         3.8101    1.8955   14.8374 O.3       1 RES1    0.0000
     53 C23        3.2880    1.7534   16.1763 C.3       1 RES1    0.0000
     54 H23        3.4039    0.8469   16.4713 H         1 RES1    0.0000
     55 H24        2.3535    1.9733   16.1814 H         1 RES1    0.0000
     56 H25        3.7586    2.3449   16.7679 H         1 RES1    0.0000
     57 C24        4.1923    4.1690   13.3862 C.2       1 RES1    0.0000
     58 O7         4.5620    4.8384   14.2928 O.2       1 RES1    0.0000
     59 O8         2.9070    4.0965   12.9588 O.3       1 RES1    0.0000
     60 C25        1.9633    4.8915   13.7448 C.3       1 RES1    0.0000
     61 H26        1.9006    4.5288   14.6313 H         1 RES1    0.0000
     62 H27        1.0990    4.8673   13.3258 H         1 RES1    0.0000
     63 H28        2.2716    5.7991   13.7917 H         1 RES1    0.0000
@<TRIPOS>BOND
     1    1    2 1
     2    2    3 1
     3    3    4 1
     4    5    1 1
     5    6    5 1
     6    7    5 1
     7    8    7 1
     8    9    7 1
     9   10    9 1
    10   11   10 1
    11   12   11 1
    12   13    7 1
    13   14   13 1
    14   15    1 1
    15   16   15 ar
    16   17   16 1
    17   18   16 ar
    18   19   18 1
    19   20   18 ar
    20   21   20 ar
    21   22   21 1
    22   23   15 ar
    23   24   23 1
    24   25   20 1
    25   26   25 1
    26   27   26 1
    27   28   26 1
    28   29   26 1
    29   30    2 2
    30   31    3 1
    31   32   31 1
    32   33   32 1
    33   34   32 1
    34   35   32 1
    35   36    9 1
    36   37   36 1
    37   38   36 1
    38   39   36 1
    39   40   39 ar
    40   41   40 1
    41   42   40 ar
    42   43   42 1
    43   44   42 ar
    44   45   44 1
    45   46   44 ar
    46   47   46 1
    47   48   39 ar
    48   49   48 1
    49   50   11 1
    50   51   50 2
    51   52   50 1
    52   53   52 1
    53   54   53 1
    54   55   53 1
    55   56   53 1
    56   57   13 1
    57   58   57 2
    58   59   57 1
    59   60   59 1
    60   61   60 1
    61   62   60 1
    62   63   60 1
    63    3    5 1
    64   11   13 1
    65   21   23 ar
    66   46   48 ar
@<TRIPOS>SUBSTRUCTURE
     1 RES1 1

@<TRIPOS>CRYSIN
  12.4382    5.8976   16.8160  90.0000  94.7670  90.0000   4 1

