# MOL2 file generated by ConQuest
# Please check atom types

@<TRIPOS>MOLECULE
EGUQIG
    33    35     1
SMALL
NO_CHARGES
****
Generated from CSD

@<TRIPOS>ATOM
      1 N1         1.6386    6.7276    4.4364 N.am      1 RES1    0.0000
      2 C1         2.0663    6.2176    5.6044 C.2       1 RES1    0.0000
      3 O1         2.7181    5.1899    5.7482 O.2       1 RES1    0.0000
      4 C2         1.5579    7.1278    6.7138 C.3       1 RES1    0.0000
      5 H1         2.1631    7.8952    6.7932 H         1 RES1    0.0000
      6 C3         0.2311    7.6097    6.1369 C.3       1 RES1    0.0000
      7 H2        -0.0035    8.4880    6.4765 H         1 RES1    0.0000
      8 H3        -0.4864    6.9888    6.3369 H         1 RES1    0.0000
      9 C4         0.5279    7.6548    4.6235 C.3       1 RES1    0.0000
     10 H4         0.7297    8.5584    4.3029 H         1 RES1    0.0000
     11 C5        -0.2859    6.8272    3.6076 C.3       1 RES1    0.0000
     12 H5        -0.9936    6.2983    4.0079 H         1 RES1    0.0000
     13 H6        -0.6173    7.3429    2.8555 H         1 RES1    0.0000
     14 C6         0.9815    6.0372    3.3053 C.3       1 RES1    0.0000
     15 H7         0.8870    5.0800    3.4310 H         1 RES1    0.0000
     16 H8         1.3735    6.2382    2.4411 H         1 RES1    0.0000
     17 C7         1.4795    6.4280    8.0598 C.3       1 RES1    0.0000
     18 H9         0.8444    5.6849    7.9894 H         1 RES1    0.0000
     19 O2         2.7504    5.9066    8.4272 O.3       1 RES1    0.0000
     20 H10        3.0478    5.3487    7.7857 H         1 RES1    0.0000
     21 C8         1.0173    7.3542    9.1570 C.ar      1 RES1    0.0000
     22 C9         1.8184    8.4260    9.5406 C.ar      1 RES1    0.0000
     23 H11        2.6403    8.5575    9.1259 H         1 RES1    0.0000
     24 C10        1.4040    9.2977   10.5342 C.ar      1 RES1    0.0000
     25 H12        1.9458   10.0050   10.8025 H         1 RES1    0.0000
     26 C11        0.1769    9.0957   11.1132 C.ar      1 RES1    0.0000
     27 C12       -0.6409    8.0437   10.7613 C.ar      1 RES1    0.0000
     28 H13       -1.4651    7.9225   11.1753 H         1 RES1    0.0000
     29 C13       -0.2081    7.1757    9.7800 C.ar      1 RES1    0.0000
     30 H14       -0.7470    6.4590    9.5327 H         1 RES1    0.0000
     31 N2        -0.3182   10.0417   12.1284 N.pl3     1 RES1    0.0000
     32 O3         0.4818   10.7997   12.6211 O.2       1 RES1    0.0000
     33 O4        -1.4887   10.0031   12.4354 O.2       1 RES1    0.0000
@<TRIPOS>BOND
     1    1    2 1
     2    2    3 2
     3    4    2 1
     4    5    4 1
     5    6    4 1
     6    7    6 1
     7    8    6 1
     8    9    1 1
     9   10    9 1
    10   11    9 1
    11   12   11 1
    12   13   11 1
    13   14    1 1
    14   15   14 1
    15   16   14 1
    16   17    4 1
    17   18   17 1
    18   19   17 1
    19   20   19 1
    20   21   17 1
    21   22   21 ar
    22   23   22 1
    23   24   22 ar
    24   25   24 1
    25   26   24 ar
    26   27   26 ar
    27   28   27 1
    28   29   21 ar
    29   30   29 1
    30   31   26 1
    31   32   31 2
    32   33   31 2
    33    6    9 1
    34   11   14 1
    35   27   29 ar
@<TRIPOS>SUBSTRUCTURE
     1 RES1 1

@<TRIPOS>CRYSIN
   5.7636    9.3935   23.1511  90.0000  90.0000  90.0000  19 1

