# MOL2 file generated by ConQuest
# Please check atom types

@<TRIPOS>MOLECULE
EGUQOM
    33    35     1
SMALL
NO_CHARGES
****
Generated from CSD

@<TRIPOS>ATOM
      1 N1         3.2438    2.9677    7.7992 N.am      1 RES1    0.0000
      2 C1         2.0057    2.9373    7.3026 C.2       1 RES1    0.0000
      3 O1         1.7297    2.9297    6.0899 O.2       1 RES1    0.0000
      4 C2         1.0175    2.9357    8.4605 C.3       1 RES1    0.0000
      5 H1         0.8806    2.0129    8.7624 H         1 RES1    0.0000
      6 C3         1.7908    3.7072    9.5460 C.3       1 RES1    0.0000
      7 H2         1.5809    4.6539    9.5160 H         1 RES1    0.0000
      8 H3         1.5822    3.3663   10.4306 H         1 RES1    0.0000
      9 C4         3.2579    3.4593    9.1954 C.3       1 RES1    0.0000
     10 H4         3.6915    2.8323    9.8117 H         1 RES1    0.0000
     11 C5         4.1937    4.6000    8.7574 C.3       1 RES1    0.0000
     12 H5         5.0170    4.6533    9.2677 H         1 RES1    0.0000
     13 H6         3.7600    5.4662    8.7013 H         1 RES1    0.0000
     14 C6         4.3409    3.8823    7.3987 C.3       1 RES1    0.0000
     15 H7         4.1266    4.4402    6.6351 H         1 RES1    0.0000
     16 H8         5.1954    3.4402    7.2802 H         1 RES1    0.0000
     17 C7        -0.3370    3.5550    8.1286 C.3       1 RES1    0.0000
     18 H9        -0.7290    3.0863    7.3625 H         1 RES1    0.0000
     19 O2        -0.1080    4.9176    7.7818 O.3       1 RES1    0.0000
     20 H10       -0.8540    5.1220    7.3214 H         1 RES1    0.0000
     21 C8        -1.2597    3.4332    9.3139 C.ar      1 RES1    0.0000
     22 C9        -2.1094    2.3245    9.4474 C.ar      1 RES1    0.0000
     23 H11       -2.1417    1.6867    8.7712 H         1 RES1    0.0000
     24 C10       -2.8964    2.1695   10.5653 C.ar      1 RES1    0.0000
     25 H12       -3.4609    1.4344   10.6452 H         1 RES1    0.0000
     26 C11       -2.8409    3.1124   11.5647 C.ar      1 RES1    0.0000
     27 C12       -2.0190    4.2254   11.4686 C.ar      1 RES1    0.0000
     28 H13       -1.9917    4.8561   12.1524 H         1 RES1    0.0000
     29 C13       -1.2444    4.3777   10.3395 C.ar      1 RES1    0.0000
     30 H14       -0.6984    5.1264   10.2596 H         1 RES1    0.0000
     31 N2        -3.6830    2.9585   12.7500 N.pl3     1 RES1    0.0000
     32 O3        -4.4995    2.0689   12.7712 O.2       1 RES1    0.0000
     33 O4        -3.5021    3.7235   13.6858 O.2       1 RES1    0.0000
@<TRIPOS>BOND
     1    1    2 1
     2    2    3 2
     3    4    2 1
     4    5    4 1
     5    6    4 1
     6    7    6 1
     7    8    6 1
     8    9    1 1
     9   10    9 1
    10   11    9 1
    11   12   11 1
    12   13   11 1
    13   14    1 1
    14   15   14 1
    15   16   14 1
    16   17    4 1
    17   18   17 1
    18   19   17 1
    19   20   19 1
    20   21   17 1
    21   22   21 ar
    22   23   22 1
    23   24   22 ar
    24   25   24 1
    25   26   24 ar
    26   27   26 ar
    27   28   27 1
    28   29   21 ar
    29   30   29 1
    30   31   26 1
    31   32   31 2
    32   33   31 2
    33    6    9 1
    34   11   14 1
    35   27   29 ar
@<TRIPOS>SUBSTRUCTURE
     1 RES1 1

@<TRIPOS>CRYSIN
   9.2667    5.4374   12.4913  90.0000  92.7650  90.0000   4 1

