# MOL2 file generated by ConQuest
# Please check atom types

@<TRIPOS>MOLECULE
EGUQUS
    33    35     1
SMALL
NO_CHARGES
****
Generated from CSD

@<TRIPOS>ATOM
      1 N1         5.4955    3.8599    3.1267 N.am      1 RES1    0.0000
      2 C1         6.3117    3.9477    4.1957 C.2       1 RES1    0.0000
      3 O1         6.5095    4.9484    4.8760 O.2       1 RES1    0.0000
      4 C2         7.0032    2.6032    4.3638 C.3       1 RES1    0.0000
      5 H1         7.9155    2.7496    4.6892 H         1 RES1    0.0000
      6 C3         7.0606    2.0839    2.9057 C.3       1 RES1    0.0000
      7 H2         7.8936    2.3387    2.4786 H         1 RES1    0.0000
      8 H3         6.9745    1.1178    2.8779 H         1 RES1    0.0000
      9 C4         5.8807    2.7518    2.2352 C.3       1 RES1    0.0000
     10 H4         5.1417    2.1305    2.0676 H         1 RES1    0.0000
     11 C5         6.0565    3.7894    1.0948 C.3       1 RES1    0.0000
     12 H5         6.9818    3.9705    0.8679 H         1 RES1    0.0000
     13 H6         5.5346    3.5921    0.3012 H         1 RES1    0.0000
     14 C6         5.4209    4.8465    2.0115 C.3       1 RES1    0.0000
     15 H7         5.9715    5.6337    2.1447 H         1 RES1    0.0000
     16 H8         4.5159    5.0905    1.7621 H         1 RES1    0.0000
     17 C7         6.2695    1.6654    5.3284 C.3       1 RES1    0.0000
     18 H9         6.7788    0.8316    5.3973 H         1 RES1    0.0000
     19 O2         5.0023    1.3716    4.7672 O.3       1 RES1    0.0000
     20 H10        4.6547    0.7199    5.2814 H         1 RES1    0.0000
     21 C8         6.1505    2.2715    6.7144 C.ar      1 RES1    0.0000
     22 C9         5.1056    3.1388    7.0172 C.ar      1 RES1    0.0000
     23 H11        4.4564    3.3242    6.3774 H         1 RES1    0.0000
     24 C10        5.0289    3.7265    8.2676 C.ar      1 RES1    0.0000
     25 H12        4.3374    4.3131    8.4749 H         1 RES1    0.0000
     26 C11        5.9976    3.4262    9.1975 C.ar      1 RES1    0.0000
     27 C12        7.0231    2.5664    8.9371 C.ar      1 RES1    0.0000
     28 H13        7.6556    2.3690    9.5898 H         1 RES1    0.0000
     29 C13        7.1019    1.9928    7.6783 C.ar      1 RES1    0.0000
     30 H14        7.8023    1.4138    7.4795 H         1 RES1    0.0000
     31 N2         5.9094    4.0648   10.5231 N.pl3     1 RES1    0.0000
     32 O3         4.9893    4.8357   10.7430 O.2       1 RES1    0.0000
     33 O4         6.7475    3.7699   11.3600 O.2       1 RES1    0.0000
@<TRIPOS>BOND
     1    1    2 1
     2    2    3 2
     3    4    2 1
     4    5    4 1
     5    6    4 1
     6    7    6 1
     7    8    6 1
     8    9    1 1
     9   10    9 1
    10   11    9 1
    11   12   11 1
    12   13   11 1
    13   14    1 1
    14   15   14 1
    15   16   14 1
    16   17    4 1
    17   18   17 1
    18   19   17 1
    19   20   19 1
    20   21   17 1
    21   22   21 ar
    22   23   22 1
    23   24   22 ar
    24   25   24 1
    25   26   24 ar
    26   27   26 ar
    27   28   27 1
    28   29   21 ar
    29   30   29 1
    30   31   26 1
    31   32   31 2
    32   33   31 2
    33    6    9 1
    34   11   14 1
    35   27   29 ar
@<TRIPOS>SUBSTRUCTURE
     1 RES1 1

@<TRIPOS>CRYSIN
   5.2189   10.8423   22.8040  90.0000  90.0000  90.0000  19 1

