# MOL2 file generated by ConQuest
# Please check atom types

@<TRIPOS>MOLECULE
EGURIH
    66    68     2
SMALL
NO_CHARGES
****
Generated from CSD

@<TRIPOS>ATOM
      1 O1         2.5933    1.4204    6.9030 O.2       1 RES1    0.0000
      2 N1         2.4180   -1.8058    6.5849 N.am      1 RES1    0.0000
      3 H1         3.1970   -1.5113    6.3679 H         1 RES1    0.0000
      4 C1         1.1087   -0.0895    8.0237 C.3       1 RES1    0.0000
      5 H2         0.1361   -0.1660    8.1100 H         1 RES1    0.0000
      6 O2         0.6743    0.8026    5.9024 O.3       1 RES1    0.0000
      7 H3         1.0093    1.1404    5.2347 H         1 RES1    0.0000
      8 N2         4.4182   -1.0451    1.8011 N.pl3     1 RES1    0.0000
      9 C2         1.8658   -1.4522    7.8867 C.3       1 RES1    0.0000
     10 H4         1.3268   -2.1869    8.2491 H         1 RES1    0.0000
     11 O3         0.6717   -3.0876    5.9403 O.2       1 RES1    0.0000
     12 N3         2.8873   -5.6701    2.0391 N.pl3     1 RES1    0.0000
     13 C3         2.8585   -0.9570    8.9147 C.3       1 RES1    0.0000
     14 H5         3.6724   -0.5976    8.5313 H         1 RES1    0.0000
     15 H6         3.0592   -1.6066    9.6077 H         1 RES1    0.0000
     16 O4         4.2115    0.1169    2.1276 O.2       1 RES1    0.0000
     17 C4         1.8597    0.1097    9.3465 C.3       1 RES1    0.0000
     18 H7         2.2497    0.9931    9.4455 H         1 RES1    0.0000
     19 H8         1.3416   -0.1314   10.1302 H         1 RES1    0.0000
     20 O5         5.1780   -1.3439    0.8953 O.2       1 RES1    0.0000
     21 C5         1.5736    0.8271    6.9220 C.2       1 RES1    0.0000
     22 O6         2.1842   -6.4914    2.6121 O.2       1 RES1    0.0000
     23 C6         1.7559   -2.5723    5.7170 C.2       1 RES1    0.0000
     24 O7         3.4840   -5.8750    0.9964 O.2       1 RES1    0.0000
     25 C7         2.4512   -2.8264    4.3963 C.ar      1 RES1    0.0000
     26 C8         3.1281   -1.8116    3.7348 C.ar      1 RES1    0.0000
     27 H9         3.1534   -0.9513    4.0866 H         1 RES1    0.0000
     28 C9         3.7736   -2.1090    2.5236 C.ar      1 RES1    0.0000
     29 C10        3.7369   -3.3662    1.9906 C.ar      1 RES1    0.0000
     30 H10        4.1853   -3.5525    1.1965 H         1 RES1    0.0000
     31 C11        3.0312   -4.3493    2.6373 C.ar      1 RES1    0.0000
     32 C12        2.3770   -4.0909    3.8423 C.ar      1 RES1    0.0000
     33 H11        1.8955   -4.7621    4.2678 H         1 RES1    0.0000
     34 O8         1.8301    1.8549    3.7601 O.2       2 RES2    0.0000
     35 N4         1.9540    5.0667    3.9392 N.am      2 RES2    0.0000
     36 H12        1.1671    4.7794    4.1351 H         2 RES2    0.0000
     37 C13        3.2833    3.3374    2.6057 C.3       2 RES2    0.0000
     38 H13        4.2551    3.4283    2.5173 H         2 RES2    0.0000
     39 O9         3.7134    2.4958    4.7607 O.3       2 RES2    0.0000
     40 H14        3.3819    2.1046    5.3990 H         2 RES2    0.0000
     41 N5         1.3896    8.8718    8.5229 N.pl3     2 RES2    0.0000
     42 C14        2.5358    4.6870    2.6668 C.3       2 RES2    0.0000
     43 H15        3.0958    5.4102    2.3129 H         2 RES2    0.0000
     44 O10        3.6916    6.3528    4.6322 O.2       2 RES2    0.0000
     45 N6        -0.0619    4.2396    8.7209 N.pl3     2 RES2    0.0000
     46 C15        1.5675    4.1775    1.5967 C.3       2 RES2    0.0000
     47 H16        1.4297    4.7982    0.8637 H         2 RES2    0.0000
     48 H17        0.7214    3.8628    1.9506 H         2 RES2    0.0000
     49 O11        2.1101    9.7205    7.9963 O.2       2 RES2    0.0000
     50 C16        2.5637    3.0530    1.2786 C.3       2 RES2    0.0000
     51 H18        3.1089    3.2248    0.4950 H         2 RES2    0.0000
     52 H19        2.1589    2.1725    1.2344 H         2 RES2    0.0000
     53 O12        0.7432    9.0738    9.5361 O.2       2 RES2    0.0000
     54 C17        2.8681    2.4684    3.7369 C.2       2 RES2    0.0000
     55 O13        0.2460    3.0963    8.4365 O.2       2 RES2    0.0000
     56 C18        2.5951    5.8476    4.8218 C.2       2 RES2    0.0000
     57 O14       -0.8993    4.5427    9.5635 O.2       2 RES2    0.0000
     58 C19        1.8798    6.0613    6.1194 C.ar      2 RES2    0.0000
     59 C20        1.9269    7.3416    6.6987 C.ar      2 RES2    0.0000
     60 H20        2.4058    8.0230    6.2837 H         2 RES2    0.0000
     61 C21        1.2622    7.5856    7.8825 C.ar      2 RES2    0.0000
     62 C22        0.5871    6.5852    8.5355 C.ar      2 RES2    0.0000
     63 H21        0.1457    6.7556    9.3381 H         2 RES2    0.0000
     64 C23        0.5766    5.3251    7.9836 C.ar      2 RES2    0.0000
     65 C24        1.2142    5.0595    6.7724 C.ar      2 RES2    0.0000
     66 H22        1.1872    4.2035    6.4101 H         2 RES2    0.0000
@<TRIPOS>BOND
     1    1   21 2
     2    2    3 1
     3    4    5 1
     4    6    7 1
     5    8   16 2
     6    9    2 1
     7   10    9 1
     8   11   23 2
     9   12   22 2
    10   13    9 1
    11   14   13 1
    12   15   13 1
    13   17    4 1
    14   18   17 1
    15   19   17 1
    16   20    8 2
    17   21    4 1
    18   23    2 1
    19   24   12 2
    20   25   23 1
    21   26   25 ar
    22   27   26 1
    23   28    8 1
    24   29   28 ar
    25   30   29 1
    26   31   12 1
    27   32   25 ar
    28   33   32 1
    29   34   54 2
    30   35   36 1
    31   37   38 1
    32   39   40 1
    33   41   49 2
    34   42   35 1
    35   43   42 1
    36   44   56 2
    37   45   55 2
    38   46   42 1
    39   47   46 1
    40   48   46 1
    41   50   37 1
    42   51   50 1
    43   52   50 1
    44   53   41 2
    45   54   37 1
    46   56   35 1
    47   57   45 2
    48   58   56 1
    49   59   58 ar
    50   60   59 1
    51   61   41 1
    52   62   61 ar
    53   63   62 1
    54   64   45 1
    55   65   58 ar
    56   66   65 1
    57    4    9 1
    58    6   21 1
    59   13   17 1
    60   26   28 ar
    61   29   31 ar
    62   31   32 ar
    63   37   42 1
    64   39   54 1
    65   46   50 1
    66   59   61 ar
    67   62   64 ar
    68   64   65 ar
@<TRIPOS>SUBSTRUCTURE
     1 RES1 1
     2 RES2 34

@<TRIPOS>CRYSIN
   8.7230   14.4350   21.0650  90.0000  90.0000  90.0000  19 1

