# MOL2 file generated by ConQuest
# Please check atom types

@<TRIPOS>MOLECULE
EGUWOT
    29    29     1
SMALL
NO_CHARGES
****
Generated from CSD

@<TRIPOS>ATOM
      1 O1        -0.0215    8.1707    0.1356 O.2       1 RES1    0.0000
      2 N1         0.7942    8.0086    1.1162 N.3       1 RES1    0.0000
      3 C1         1.7819    6.9050    0.9797 C.3       1 RES1    0.0000
      4 C2         2.6837    6.8326    2.1832 C.2       1 RES1    0.0000
      5 C3         2.5053    7.5311    3.3081 C.2       1 RES1    0.0000
      6 C4         1.3617    8.5066    3.4328 C.3       1 RES1    0.0000
      7 H1         1.6217    9.2310    4.0542 H         1 RES1    0.0000
      8 H2         0.5803    8.0392    3.8219 H         1 RES1    0.0000
      9 C5         0.9597    9.1196    2.0882 C.3       1 RES1    0.0000
     10 C6         3.3626    7.3904    4.4541 C.1       1 RES1    0.0000
     11 C7         4.0042    7.3584    5.4646 C.1       1 RES1    0.0000
     12 C8         2.6286    7.1173   -0.2879 C.3       1 RES1    0.0000
     13 H3         3.1791    7.9206   -0.1825 H         1 RES1    0.0000
     14 H4         2.0367    7.2259   -1.0619 H         1 RES1    0.0000
     15 H5         3.2086    6.3398   -0.4272 H         1 RES1    0.0000
     16 C9         0.9822    5.5971    0.8712 C.3       1 RES1    0.0000
     17 H6         0.4346    5.4808    1.6758 H         1 RES1    0.0000
     18 H7         1.6011    4.8422    0.7856 H         1 RES1    0.0000
     19 H8         0.4009    5.6347    0.0830 H         1 RES1    0.0000
     20 C10       -0.3707    9.8505    2.2401 C.3       1 RES1    0.0000
     21 H9        -1.0673    9.2102    2.4954 H         1 RES1    0.0000
     22 H10       -0.6106   10.2731    1.3887 H         1 RES1    0.0000
     23 H11       -0.2882   10.5373    2.9334 H         1 RES1    0.0000
     24 C11        2.0274   10.0851    1.5635 C.3       1 RES1    0.0000
     25 H12        1.7569   10.4250    0.6852 H         1 RES1    0.0000
     26 H13        2.8827    9.6138    1.4816 H         1 RES1    0.0000
     27 H14        2.1257   10.8347    2.1876 H         1 RES1    0.0000
     28 H15        3.4276    6.2067    2.1063 H         1 RES1    0.0000
     29 H16        4.4880    7.3757    6.2742 H         1 RES1    0.0000
@<TRIPOS>BOND
     1    1    2 1
     2    2    3 1
     3    3    4 1
     4    4    5 2
     5    5    6 1
     6    6    7 1
     7    8    6 1
     8    9    2 1
     9   10    5 1
    10   11   10 3
    11   12    3 1
    12   13   12 1
    13   14   12 1
    14   15   12 1
    15   16    3 1
    16   17   16 1
    17   18   16 1
    18   19   16 1
    19   20    9 1
    20   21   20 1
    21   22   20 1
    22   23   20 1
    23   24    9 1
    24   25   24 1
    25   26   24 1
    26   27   24 1
    27   28    4 1
    28   29   11 1
    29    6    9 1
@<TRIPOS>SUBSTRUCTURE
     1 RES1 1

@<TRIPOS>CRYSIN
   6.0996   20.8000    8.3662  90.0000  97.4340  90.0000  14 1

