# MOL2 file generated by ConQuest
# Please check atom types

@<TRIPOS>MOLECULE
EGUXAH
    40    41     1
SMALL
NO_CHARGES
****
Generated from CSD

@<TRIPOS>ATOM
      1 O1         2.8308    8.4913    6.8584 O.3       1 RES1    0.0000
      2 H1         2.4002    8.9971    6.3768 H         1 RES1    0.0000
      3 O2         1.7209    4.8176    9.5178 O.2       1 RES1    0.0000
      4 N1         2.1111    7.2687    7.0283 N.3       1 RES1    0.0000
      5 N2         2.5784    5.0747    7.4115 N.am      1 RES1    0.0000
      6 N3         0.3165    8.1977    9.9403 N.ar      1 RES1    0.0000
      7 C1         0.4795    7.4563    8.8509 C.ar      1 RES1    0.0000
      8 C2         2.0248    5.5026    8.5531 C.2       1 RES1    0.0000
      9 C3         1.8966    7.0207    8.4729 C.3       1 RES1    0.0000
     10 C4        -0.6050    7.0497    8.0777 C.ar      1 RES1    0.0000
     11 H2        -0.4687    6.5320    7.3173 H         1 RES1    0.0000
     12 C5         2.9078    6.1407    6.4577 C.3       1 RES1    0.0000
     13 C6         2.9531    7.6199    9.4030 C.3       1 RES1    0.0000
     14 H3         3.8219    7.2977    9.1509 H         1 RES1    0.0000
     15 H4         2.7664    7.3610   10.3080 H         1 RES1    0.0000
     16 H5         2.9339    8.5771    9.3335 H         1 RES1    0.0000
     17 C7         4.4146    6.3783    6.4405 C.3       1 RES1    0.0000
     18 H6         4.6183    7.1005    5.8413 H         1 RES1    0.0000
     19 H7         4.8603    5.5813    6.1441 H         1 RES1    0.0000
     20 H8         4.7136    6.6026    7.3249 H         1 RES1    0.0000
     21 C8         2.3865    5.7830    5.0468 C.3       1 RES1    0.0000
     22 H9         2.9010    5.0092    4.7344 H         1 RES1    0.0000
     23 C9         2.5870    6.8984    4.0286 C.3       1 RES1    0.0000
     24 H10        2.0140    7.6373    4.2462 H         1 RES1    0.0000
     25 H11        2.3717    6.5734    3.1515 H         1 RES1    0.0000
     26 H12        3.5025    7.1882    4.0465 H         1 RES1    0.0000
     27 C10       -2.0524    8.1877    9.5736 C.ar      1 RES1    0.0000
     28 H13       -2.9006    8.4578    9.8453 H         1 RES1    0.0000
     29 C11       -1.8841    7.4191    8.4464 C.ar      1 RES1    0.0000
     30 H14       -2.6177    7.1529    7.9417 H         1 RES1    0.0000
     31 C12        2.9725    3.6833    7.2166 C.3       1 RES1    0.0000
     32 H15        3.9285    3.6263    7.1583 H         1 RES1    0.0000
     33 H16        2.5816    3.3512    6.4052 H         1 RES1    0.0000
     34 H17        2.6652    3.1565    7.9587 H         1 RES1    0.0000
     35 C13       -0.9386    8.5457   10.2866 C.ar      1 RES1    0.0000
     36 H18       -1.0555    9.0579   11.0535 H         1 RES1    0.0000
     37 C14        0.9225    5.3796    5.0426 C.3       1 RES1    0.0000
     38 H19        0.7713    4.7158    5.7193 H         1 RES1    0.0000
     39 H20        0.6929    5.0189    4.1837 H         1 RES1    0.0000
     40 H21        0.3783    6.1498    5.2226 H         1 RES1    0.0000
@<TRIPOS>BOND
     1    1    2 1
     2    3    8 2
     3    4    1 1
     4    5    8 1
     5    6    7 ar
     6    7    9 1
     7    8    9 1
     8    9    4 1
     9   10    7 ar
    10   11   10 1
    11   12    4 1
    12   13    9 1
    13   14   13 1
    14   15   13 1
    15   16   13 1
    16   17   12 1
    17   18   17 1
    18   19   17 1
    19   20   17 1
    20   21   12 1
    21   22   21 1
    22   23   21 1
    23   24   23 1
    24   25   23 1
    25   26   23 1
    26   27   28 1
    27   29   10 ar
    28   30   29 1
    29   31    5 1
    30   32   31 1
    31   33   31 1
    32   34   31 1
    33   35    6 ar
    34   36   35 1
    35   37   21 1
    36   38   37 1
    37   39   37 1
    38   40   37 1
    39    5   12 1
    40   27   29 ar
    41   27   35 ar
@<TRIPOS>SUBSTRUCTURE
     1 RES1 1

@<TRIPOS>CRYSIN
  12.1910   12.1730    9.6186  90.0000 100.3800  90.0000  14 1

