# MOL2 file generated by ConQuest
# Please check atom types

@<TRIPOS>MOLECULE
EGUZIQ
    35    36     1
SMALL
NO_CHARGES
****
Generated from CSD

@<TRIPOS>ATOM
      1 O1         2.5797    7.6179    5.7737 O.2       1 RES1    0.0000
      2 O2         0.0321    6.3491    3.9641 O.2       1 RES1    0.0000
      3 O3        -0.0583    5.0716    2.2367 O.2       1 RES1    0.0000
      4 O4         1.9418   11.3051    0.1233 O.3       1 RES1    0.0000
      5 N1         2.1500    8.3379    3.7026 N.am      1 RES1    0.0000
      6 N2         1.9674    8.0692    2.3585 N.2       1 RES1    0.0000
      7 N3         0.5302    5.5600    3.1809 N.pl3     1 RES1    0.0000
      8 C1         2.7928    6.0159    4.0532 C.ar      1 RES1    0.0000
      9 C2         1.9210    5.1653    3.3929 C.ar      1 RES1    0.0000
     10 C3         2.3023    3.9307    2.9321 C.ar      1 RES1    0.0000
     11 H1         1.6939    3.3867    2.4852 H         1 RES1    0.0000
     12 C4         3.5847    3.5093    3.1365 C.ar      1 RES1    0.0000
     13 H2         3.8552    2.6728    2.8327 H         1 RES1    0.0000
     14 C5         4.4688    4.3206    3.7882 C.ar      1 RES1    0.0000
     15 H3         5.3432    4.0350    3.9226 H         1 RES1    0.0000
     16 C6         4.0764    5.5583    4.2480 C.ar      1 RES1    0.0000
     17 H4         4.6888    6.0937    4.6976 H         1 RES1    0.0000
     18 C7         2.4614    7.3785    4.5747 C.2       1 RES1    0.0000
     19 C8         1.7517    9.1036    1.6533 C.2       1 RES1    0.0000
     20 H5         1.7757    9.9386    2.0619 H         1 RES1    0.0000
     21 C9         1.4672    9.0260    0.2304 C.ar      1 RES1    0.0000
     22 C10        1.5441   10.1900   -0.5419 C.ar      1 RES1    0.0000
     23 C11        1.2208   10.1596   -1.8848 C.ar      1 RES1    0.0000
     24 H6         1.2722   10.9352   -2.3957 H         1 RES1    0.0000
     25 C12        0.8254    8.9871   -2.4588 C.ar      1 RES1    0.0000
     26 H7         0.6058    8.9724   -3.3624 H         1 RES1    0.0000
     27 C13        0.7458    7.8279   -1.7238 C.ar      1 RES1    0.0000
     28 H8         0.4774    7.0342   -2.1271 H         1 RES1    0.0000
     29 C14        1.0668    7.8511   -0.3851 C.ar      1 RES1    0.0000
     30 H9         1.0136    7.0676    0.1127 H         1 RES1    0.0000
     31 C15        2.1029   12.5093   -0.6034 C.3       1 RES1    0.0000
     32 H10        2.7612   12.3826   -1.2921 H         1 RES1    0.0000
     33 H11        2.3926   13.2062   -0.0095 H         1 RES1    0.0000
     34 H12        1.2658   12.7573   -1.0035 H         1 RES1    0.0000
     35 H13        1.9217    9.1485    4.0447 H         1 RES1    0.0000
@<TRIPOS>BOND
     1    1   18 2
     2    2    7 2
     3    3    7 2
     4    4   22 1
     5    5    6 1
     6    6   19 2
     7    7    9 1
     8    8    9 ar
     9    9   10 ar
    10   10   11 1
    11   12   10 ar
    12   13   12 1
    13   14   12 ar
    14   15   14 1
    15   16    8 ar
    16   17   16 1
    17   18    5 1
    18   19   20 1
    19   21   19 1
    20   22   21 ar
    21   23   22 ar
    22   24   23 1
    23   25   23 ar
    24   26   25 1
    25   27   25 ar
    26   28   27 1
    27   29   21 ar
    28   30   29 1
    29   31    4 1
    30   32   31 1
    31   33   31 1
    32   34   31 1
    33   35    5 1
    34    8   18 1
    35   14   16 ar
    36   27   29 ar
@<TRIPOS>SUBSTRUCTURE
     1 RES1 1

@<TRIPOS>CRYSIN
   7.4910    9.4270   10.9770  91.7480 106.2180  92.2210   2 1

