# MOL2 file generated by ConQuest
# Please check atom types

@<TRIPOS>MOLECULE
EHAQIP
    58    62     1
SMALL
NO_CHARGES
****
Generated from CSD

@<TRIPOS>ATOM
      1 C1        11.0721    4.9260   12.2817 C.3       1 RES1    0.0000
      2 C2        10.2458    6.1763   12.1317 C.2       1 RES1    0.0000
      3 C3         9.8626    6.6957   10.9708 C.2       1 RES1    0.0000
      4 C4         9.0506    7.9527   10.8836 C.3       1 RES1    0.0000
      5 C5         9.8369    9.0677   10.1592 C.3       1 RES1    0.0000
      6 C6         8.8209   10.0407    9.6159 C.2       1 RES1    0.0000
      7 N1         8.6757    9.8005    8.2667 N.am      1 RES1    0.0000
      8 C7         9.6214    8.9238    7.7774 C.2       1 RES1    0.0000
      9 C8        10.5671    8.5741    8.9064 C.3       1 RES1    0.0000
     10 C9        11.1196    7.1474    8.8812 C.3       1 RES1    0.0000
     11 C10       10.2418    6.1287    9.6308 C.3       1 RES1    0.0000
     12 C11       10.8531    4.7106    9.7748 C.3       1 RES1    0.0000
     13 C12       11.8112    4.6954   10.9633 C.3       1 RES1    0.0000
     14 N2        11.9972    4.8822   13.4271 N.3       1 RES1    0.0000
     15 C13       12.9722    5.9695   13.4670 C.3       1 RES1    0.0000
     16 C14       13.9171    5.7189   14.6273 C.3       1 RES1    0.0000
     17 O1        13.2326    5.6932   15.8652 O.3       1 RES1    0.0000
     18 C15       12.2624    4.6487   15.8378 C.3       1 RES1    0.0000
     19 C16       11.2900    4.8278   14.7026 C.3       1 RES1    0.0000
     20 O2         8.1666   10.8527   10.2312 O.2       1 RES1    0.0000
     21 C17        7.6405   10.4324    7.4441 C.3       1 RES1    0.0000
     22 O3         9.6980    8.5674    6.6220 O.2       1 RES1    0.0000
     23 C18       11.4663    4.1083    8.5213 C.ar      1 RES1    0.0000
     24 C19       10.7842    3.1039    7.8633 C.ar      1 RES1    0.0000
     25 C20       11.3333    2.4825    6.7488 C.ar      1 RES1    0.0000
     26 C21       12.5651    2.8723    6.2805 C.ar      1 RES1    0.0000
     27 C22       13.2455    3.8834    6.9112 C.ar      1 RES1    0.0000
     28 C23       12.7065    4.4991    8.0258 C.ar      1 RES1    0.0000
     29 N3        12.4991    3.3545   11.0413 N.pl3     1 RES1    0.0000
     30 O4        13.7254    3.3621   11.0408 O.2       1 RES1    0.0000
     31 O5        11.8110    2.3587   11.1016 O.2       1 RES1    0.0000
     32 H1        10.4490    4.1693   12.4085 H         1 RES1    0.0000
     33 H2         9.9854    6.6147   12.9142 H         1 RES1    0.0000
     34 H3         8.7848    8.2586   11.7757 H         1 RES1    0.0000
     35 H4         8.2295    7.7697   10.3782 H         1 RES1    0.0000
     36 H5        10.4598    9.5213   10.7618 H         1 RES1    0.0000
     37 H6        11.3315    9.1792    8.7664 H         1 RES1    0.0000
     38 H7        12.0018    7.1465    9.3169 H         1 RES1    0.0000
     39 H8        11.2380    6.8625    7.9518 H         1 RES1    0.0000
     40 H9         9.4318    6.0334    9.0803 H         1 RES1    0.0000
     41 H10       10.1112    4.1255   10.0419 H         1 RES1    0.0000
     42 H11       12.4979    5.3939   10.8465 H         1 RES1    0.0000
     43 H12       12.5248    6.8453   13.5868 H         1 RES1    0.0000
     44 H13       13.4827    5.9962   12.6127 H         1 RES1    0.0000
     45 H14       14.5431    6.4841   14.6655 H         1 RES1    0.0000
     46 H15       14.3867    4.8669   14.4736 H         1 RES1    0.0000
     47 H16       11.7862    4.6878   16.6783 H         1 RES1    0.0000
     48 H17       12.7459    3.7805   15.7666 H         1 RES1    0.0000
     49 H18       10.7761    5.6531   14.8349 H         1 RES1    0.0000
     50 H19       10.6791    4.0369   14.6929 H         1 RES1    0.0000
     51 H20        7.4692    9.9111    6.6813 H         1 RES1    0.0000
     52 H21        7.8898   11.2920    7.1646 H         1 RES1    0.0000
     53 H22        6.8384   10.5267    7.9319 H         1 RES1    0.0000
     54 H23        9.9404    2.8228    8.1884 H         1 RES1    0.0000
     55 H24       10.8624    1.7916    6.3176 H         1 RES1    0.0000
     56 H25       12.9436    2.4597    5.5354 H         1 RES1    0.0000
     57 H26       14.0830    4.1579    6.5841 H         1 RES1    0.0000
     58 H27       13.1790    5.1843    8.4475 H         1 RES1    0.0000
@<TRIPOS>BOND
     1    1    2 1
     2    2    3 2
     3    3    4 1
     4    4    5 1
     5    5    6 1
     6    6    7 1
     7    7    8 1
     8    8    9 1
     9    9    5 1
    10   10    9 1
    11   11    3 1
    12   12   11 1
    13   13    1 1
    14   14    1 1
    15   15   14 1
    16   16   15 1
    17   17   16 1
    18   18   17 1
    19   19   14 1
    20   20    6 2
    21   21    7 1
    22   22    8 2
    23   23   12 1
    24   24   23 ar
    25   25   24 ar
    26   26   25 ar
    27   27   26 ar
    28   28   23 ar
    29   29   13 1
    30   30   29 2
    31   31   29 2
    32   32    1 1
    33   33    2 1
    34   34    4 1
    35   35    4 1
    36   36    5 1
    37   37    9 1
    38   38   10 1
    39   39   10 1
    40   40   11 1
    41   41   12 1
    42   42   13 1
    43   43   15 1
    44   44   15 1
    45   45   16 1
    46   46   16 1
    47   47   18 1
    48   48   18 1
    49   49   19 1
    50   50   19 1
    51   51   21 1
    52   52   21 1
    53   53   21 1
    54   54   24 1
    55   55   25 1
    56   56   26 1
    57   57   27 1
    58   58   28 1
    59   10   11 1
    60   12   13 1
    61   18   19 1
    62   27   28 ar
@<TRIPOS>SUBSTRUCTURE
     1 RES1 1

@<TRIPOS>CRYSIN
  17.9722    9.5299   24.9116  90.0000  90.0000  90.0000  61 1

