# MOL2 file generated by ConQuest
# Please check atom types

@<TRIPOS>MOLECULE
EHAQUB
    58    62     1
SMALL
NO_CHARGES
****
Generated from CSD

@<TRIPOS>ATOM
      1 C1         7.2520    4.4623    4.5683 C.3       1 RES1    0.0000
      2 C2         6.6183    4.5031    5.9701 C.3       1 RES1    0.0000
      3 C3         7.6413    4.6300    7.1044 C.3       1 RES1    0.0000
      4 C4         8.5946    3.4288    7.0207 C.3       1 RES1    0.0000
      5 C5         9.2284    3.2881    5.6637 C.2       1 RES1    0.0000
      6 C6        10.5335    3.0935    5.5024 C.2       1 RES1    0.0000
      7 C7        11.2039    2.8246    4.1865 C.3       1 RES1    0.0000
      8 C8        10.2172    2.3204    3.1119 C.3       1 RES1    0.0000
      9 C9        10.7838    2.6641    1.7570 C.2       1 RES1    0.0000
     10 N1        10.2719    3.8995    1.4049 N.am      1 RES1    0.0000
     11 C10        9.3030    4.3420    2.3043 C.2       1 RES1    0.0000
     12 C11        8.9088    3.1306    3.1355 C.3       1 RES1    0.0000
     13 C12        8.2531    3.2791    4.5099 C.3       1 RES1    0.0000
     14 N2         6.3085    4.3575    3.4549 N.3       1 RES1    0.0000
     15 C13        5.7999    5.6097    2.8960 C.3       1 RES1    0.0000
     16 C14        5.1952    5.3264    1.5343 C.3       1 RES1    0.0000
     17 O1         4.1547    4.3557    1.6365 O.3       1 RES1    0.0000
     18 C15        4.6705    3.1384    2.1627 C.3       1 RES1    0.0000
     19 C16        5.2530    3.3509    3.5456 C.3       1 RES1    0.0000
     20 N3         5.6758    5.6779    6.0413 N.pl3     1 RES1    0.0000
     21 O2         6.1586    6.8067    6.0247 O.2       1 RES1    0.0000
     22 O3         4.4743    5.4599    6.1036 O.2       1 RES1    0.0000
     23 C17        6.9573    4.7492    8.4564 C.ar      1 RES1    0.0000
     24 C18        7.1380    5.8665    9.2519 C.ar      1 RES1    0.0000
     25 C19        6.4836    5.9821   10.4750 C.ar      1 RES1    0.0000
     26 C20        5.6300    4.9845   10.8999 C.ar      1 RES1    0.0000
     27 C21        5.4373    3.8707   10.1147 C.ar      1 RES1    0.0000
     28 C22        6.0951    3.7533    8.9055 C.ar      1 RES1    0.0000
     29 O4        11.5860    2.0372    1.0910 O.2       1 RES1    0.0000
     30 C23       10.7451    4.6971    0.2811 C.3       1 RES1    0.0000
     31 O5         8.8845    5.4779    2.3121 O.2       1 RES1    0.0000
     32 H1         7.7543    5.3055    4.4499 H         1 RES1    0.0000
     33 H2         6.0616    3.7030    6.0998 H         1 RES1    0.0000
     34 H3         8.1614    5.4486    6.9426 H         1 RES1    0.0000
     35 H4         9.2765    3.5168    7.7101 H         1 RES1    0.0000
     36 H5         8.0705    2.6036    7.1878 H         1 RES1    0.0000
     37 H6        11.0952    3.1078    6.2751 H         1 RES1    0.0000
     38 H7        11.9164    2.1515    4.3085 H         1 RES1    0.0000
     39 H8        11.6334    3.6527    3.8597 H         1 RES1    0.0000
     40 H9        10.0708    1.3605    3.2130 H         1 RES1    0.0000
     41 H10        8.2652    2.6761    2.5512 H         1 RES1    0.0000
     42 H11        7.7131    2.4557    4.6272 H         1 RES1    0.0000
     43 H12        6.5527    6.2869    2.8397 H         1 RES1    0.0000
     44 H13        5.0941    6.0408    3.4675 H         1 RES1    0.0000
     45 H14        4.7995    6.1468    1.1540 H         1 RES1    0.0000
     46 H15        5.9012    4.9845    0.9447 H         1 RES1    0.0000
     47 H16        5.3842    2.7815    1.5594 H         1 RES1    0.0000
     48 H17        3.9395    2.4881    2.2136 H         1 RES1    0.0000
     49 H18        5.6199    2.5162    3.8937 H         1 RES1    0.0000
     50 H19        4.5249    3.6420    4.1671 H         1 RES1    0.0000
     51 H20        7.7055    6.5707    8.9621 H         1 RES1    0.0000
     52 H21        6.6040    6.7570   10.9947 H         1 RES1    0.0000
     53 H22        5.1676    5.0587   11.7206 H         1 RES1    0.0000
     54 H23        4.8487    3.1863   10.3857 H         1 RES1    0.0000
     55 H24        5.9596    2.9773    8.3945 H         1 RES1    0.0000
     56 H25       11.4836    4.2240   -0.1188 H         1 RES1    0.0000
     57 H26       11.0680    5.5617    0.5826 H         1 RES1    0.0000
     58 H27       10.0345    4.8264   -0.3432 H         1 RES1    0.0000
@<TRIPOS>BOND
     1    1    2 1
     2    2    3 1
     3    3    4 1
     4    4    5 1
     5    5    6 2
     6    6    7 1
     7    7    8 1
     8    8    9 1
     9    9   10 1
    10   10   11 1
    11   11   12 1
    12   12    8 1
    13   13    1 1
    14   14    1 1
    15   15   14 1
    16   16   15 1
    17   17   16 1
    18   18   17 1
    19   19   14 1
    20   20    2 1
    21   21   20 2
    22   22   20 2
    23   23    3 1
    24   24   23 ar
    25   25   24 ar
    26   26   25 ar
    27   27   26 ar
    28   28   23 ar
    29   29    9 2
    30   30   10 1
    31   31   11 2
    32   32    1 1
    33   33    2 1
    34   34    3 1
    35   35    4 1
    36   36    4 1
    37   37    6 1
    38   38    7 1
    39   39    7 1
    40   40    8 1
    41   41   12 1
    42   42   13 1
    43   43   15 1
    44   44   15 1
    45   45   16 1
    46   46   16 1
    47   47   18 1
    48   48   18 1
    49   49   19 1
    50   50   19 1
    51   51   24 1
    52   52   25 1
    53   53   26 1
    54   54   27 1
    55   55   28 1
    56   56   30 1
    57   57   30 1
    58   58   30 1
    59    5   13 1
    60   12   13 1
    61   18   19 1
    62   27   28 ar
@<TRIPOS>SUBSTRUCTURE
     1 RES1 1

@<TRIPOS>CRYSIN
  18.7467    5.9881   18.8722  90.0000  92.4040  90.0000  14 2

