# MOL2 file generated by ConQuest
# Please check atom types

@<TRIPOS>MOLECULE
EHAYIV
    60    62     2
SMALL
NO_CHARGES
****
Generated from CSD

@<TRIPOS>ATOM
      1 O1         5.7226    1.3885    5.6418 O.3       1 RES1    0.0000
      2 O2         6.1448    3.2476    3.7405 O.2       1 RES1    0.0000
      3 N1         5.1277    2.4876    6.3690 N.3       1 RES1    0.0000
      4 C1         5.4451    2.3087    3.4186 C.2       1 RES1    0.0000
      5 C2         5.0551    1.2390    4.4042 C.3       1 RES1    0.0000
      6 C3         4.8396   -0.3507    2.4595 C.3       1 RES1    0.0000
      7 C4         4.7151    0.6224    9.5318 C.ar      1 RES1    0.0000
      8 C5         5.0510    3.1982    8.6517 C.ar      1 RES1    0.0000
      9 C6         4.8707    0.8564    8.1815 C.ar      1 RES1    0.0000
     10 C7         5.0477    2.1715    7.7300 C.ar      1 RES1    0.0000
     11 C8         5.2779    0.7376    1.4895 C.3       1 RES1    0.0000
     12 C9         4.8986    2.1210    2.0425 C.3       1 RES1    0.0000
     13 C10        4.7011    1.6409   10.4409 C.ar      1 RES1    0.0000
     14 C11        5.4369   -0.1476    3.8307 C.3       1 RES1    0.0000
     15 C12        4.8863    2.9379    9.9883 C.ar      1 RES1    0.0000
     16 H1         4.0801    1.3326    4.5063 H         1 RES1    0.0000
     17 H2         5.2026   -0.6675    4.5825 H         1 RES1    0.0000
     18 H3         6.4397   -0.1435    3.9088 H         1 RES1    0.0000
     19 H4         4.7274   -0.2964    9.8386 H         1 RES1    0.0000
     20 H5         6.4233    0.6402    1.4354 H         1 RES1    0.0000
     21 H6         5.3091    2.7269    1.3450 H         1 RES1    0.0000
     22 H7         5.6450    3.2983    6.3012 H         1 RES1    0.0000
     23 H8         3.8753   -0.3533    2.5543 H         1 RES1    0.0000
     24 H9         4.5471    3.6635   10.7503 H         1 RES1    0.0000
     25 H10        4.7765    0.6521    0.6808 H         1 RES1    0.0000
     26 H11        4.6127    1.3753   11.4121 H         1 RES1    0.0000
     27 H12        5.1206    4.1140    8.3603 H         1 RES1    0.0000
     28 H13        4.8584    0.0711    7.4200 H         1 RES1    0.0000
     29 H14        5.2845   -1.2330    2.0425 H         1 RES1    0.0000
     30 H15        3.7524    2.1815    2.1282 H         1 RES1    0.0000
     31 O3         1.6338    1.4196    4.4242 O.3       2 RES2    0.0000
     32 N2         0.9799    0.3706    3.6688 N.3       2 RES2    0.0000
     33 O4         1.9007   -0.4630    6.3228 O.2       2 RES2    0.0000
     34 C13        0.9487    1.6095    5.6492 C.3       2 RES2    0.0000
     35 C14        0.9496    0.7083    2.3162 C.ar      2 RES2    0.0000
     36 C15        1.2421    0.5077    6.6337 C.2       2 RES2    0.0000
     37 C16        0.6743    0.7283    7.9954 C.3       2 RES2    0.0000
     38 C17        0.7906    3.1897    7.5936 C.3       2 RES2    0.0000
     39 C18        0.8545   -0.3326    1.3869 C.ar      2 RES2    0.0000
     40 C19        1.1355    2.0784    8.5584 C.3       2 RES2    0.0000
     41 C20        1.3977    2.9580    6.2214 C.3       2 RES2    0.0000
     42 C21        0.9332    2.0214    1.8685 C.ar      2 RES2    0.0000
     43 C22        0.7177   -0.0522    0.0464 C.ar      2 RES2    0.0000
     44 C23        0.8340    2.2740    0.5139 C.ar      2 RES2    0.0000
     45 C24        0.7005    1.2567   -0.3990 C.ar      2 RES2    0.0000
     46 H16        0.0082    1.6349    5.3823 H         2 RES2    0.0000
     47 H17        1.0569    2.7980    2.6114 H         2 RES2    0.0000
     48 H18       -0.3441    3.2960    7.4129 H         2 RES2    0.0000
     49 H19        0.8029   -0.7469   -0.5808 H         2 RES2    0.0000
     50 H20        0.9914   -1.3516    1.5735 H         2 RES2    0.0000
     51 H21        1.0651    3.6516    5.7037 H         2 RES2    0.0000
     52 H22        0.9995   -0.0711    8.5198 H         2 RES2    0.0000
     53 H23        1.4338   -0.4114    3.9183 H         2 RES2    0.0000
     54 H24        2.2940    2.9178    6.3750 H         2 RES2    0.0000
     55 H25        0.5735    1.3516   -1.5021 H         2 RES2    0.0000
     56 H26       -0.3195    0.6876    7.9271 H         2 RES2    0.0000
     57 H27        1.0651    4.0548    7.8723 H         2 RES2    0.0000
     58 H28        0.6882    3.2841    0.0952 H         2 RES2    0.0000
     59 H29        2.1875    1.9835    8.7483 H         2 RES2    0.0000
     60 H30        0.5325    2.3119    9.4792 H         2 RES2    0.0000
@<TRIPOS>BOND
     1    1    3 1
     2    2    4 2
     3    3   10 1
     4    4    5 1
     5    5    1 1
     6    6   11 1
     7    7    9 ar
     8    8   10 ar
     9    9   10 ar
    10   11   12 1
    11   12    4 1
    12   13    7 ar
    13   14    5 1
    14   15    8 ar
    15   16    5 1
    16   17   14 1
    17   18   14 1
    18   19    7 1
    19   20   11 1
    20   21   12 1
    21   22    3 1
    22   23    6 1
    23   24   15 1
    24   25   11 1
    25   26   13 1
    26   27    8 1
    27   28    9 1
    28   29    6 1
    29   30   12 1
    30   31   32 1
    31   32   35 1
    32   33   36 2
    33   34   31 1
    34   35   39 ar
    35   36   34 1
    36   37   36 1
    37   38   40 1
    38   39   43 ar
    39   40   37 1
    40   41   34 1
    41   42   35 ar
    42   43   45 ar
    43   44   42 ar
    44   45   44 ar
    45   46   34 1
    46   47   42 1
    47   48   38 1
    48   49   43 1
    49   50   39 1
    50   51   41 1
    51   52   37 1
    52   53   32 1
    53   54   41 1
    54   55   45 1
    55   56   37 1
    56   57   38 1
    57   58   44 1
    58   59   40 1
    59   60   40 1
    60    6   14 1
    61   13   15 ar
    62   38   41 1
@<TRIPOS>SUBSTRUCTURE
     1 RES1 1
     2 RES2 31

@<TRIPOS>CRYSIN
   8.1930   11.8560   23.8050  90.0000  90.0000  90.0000  29 5

