# MOL2 file generated by ConQuest
# Please check atom types

@<TRIPOS>MOLECULE
EHECEZ
    43    41     2
SMALL
NO_CHARGES
****
Generated from CSD

@<TRIPOS>ATOM
      1 C1         8.6561    1.8265    4.4493 C.3       1 RES1    0.0000
      2 O1         5.8585    1.7480    7.6542 O.3       1 RES1    0.0000
      3 N1         8.5917    4.4312    4.2639 N.1       1 RES1    0.0000
      4 N2        13.5059   -1.8832   -0.3499 N.pl3     1 RES1    0.0000
      5 C2         7.2366    1.3104    4.2129 C.3       1 RES1    0.0000
      6 O2         6.4929    0.1500    9.0794 O.2       1 RES1    0.0000
      7 O3         9.4433    1.1907    3.4065 O.3       1 RES1    0.0000
      8 C3         6.2988    1.7416    5.3230 C.3       1 RES1    0.0000
      9 O4        11.2325    2.4952    3.7680 O.2       1 RES1    0.0000
     10 C4         6.8133    1.2737    6.6670 C.3       1 RES1    0.0000
     11 C5         8.1905    1.8240    6.9289 C.3       1 RES1    0.0000
     12 O5        14.6055   -1.5311   -0.7392 O.2       1 RES1    0.0000
     13 C6         9.1574    1.3979    5.8305 C.3       1 RES1    0.0000
     14 O6        12.9662   -2.9187   -0.7091 O.2       1 RES1    0.0000
     15 C7         8.6832    3.2933    4.3080 C.1       1 RES1    0.0000
     16 C8         5.7930    1.0812    8.8152 C.2       1 RES1    0.0000
     17 C9         4.7622    1.6399    9.7143 C.3       1 RES1    0.0000
     18 C10       10.7265    1.5537    3.2327 C.2       1 RES1    0.0000
     19 C11       11.4158    0.6449    2.2849 C.ar      1 RES1    0.0000
     20 C12       12.6691    1.0330    1.7959 C.ar      1 RES1    0.0000
     21 C13       13.3504    0.2053    0.9339 C.ar      1 RES1    0.0000
     22 C14       12.7951   -1.0040    0.5840 C.ar      1 RES1    0.0000
     23 C15       11.5651   -1.4198    1.0613 C.ar      1 RES1    0.0000
     24 C16       10.8785   -0.5857    1.9188 C.ar      1 RES1    0.0000
     25 H1         6.9093    1.6489    3.3648 H         1 RES1    0.0000
     26 H2         7.2512    0.3418    4.1643 H         1 RES1    0.0000
     27 H3         6.2213    2.7089    5.3230 H         1 RES1    0.0000
     28 H4         5.4177    1.3696    5.1654 H         1 RES1    0.0000
     29 H5         6.8423    0.2941    6.6832 H         1 RES1    0.0000
     30 H6         8.5110    1.5022    7.7863 H         1 RES1    0.0000
     31 H7         8.1500    2.7926    6.9683 H         1 RES1    0.0000
     32 H8         9.2606    0.4331    5.8490 H         1 RES1    0.0000
     33 H9        10.0263    1.7956    5.9950 H         1 RES1    0.0000
     34 H10        4.3305    2.3820    9.2856 H         1 RES1    0.0000
     35 H11        5.1747    1.9372   10.5277 H         1 RES1    0.0000
     36 H12        4.1107    0.9628    9.9136 H         1 RES1    0.0000
     37 H13        4.7463    1.1392   10.5347 Du        2 SUP2    0.0000
     38 H14        3.9022    1.5845    9.2903 Du        2 SUP2    0.0000
     39 H15        4.9662    2.5583    9.9044 Du        2 SUP2    0.0000
     40 H16       13.0404    1.8465    2.0532 H         1 RES1    0.0000
     41 H17       14.1767    0.4608    0.5909 H         1 RES1    0.0000
     42 H18       11.2099   -2.2417    0.8111 H         1 RES1    0.0000
     43 H19       10.0513   -0.8470    2.2548 H         1 RES1    0.0000
@<TRIPOS>BOND
     1    1    5 1
     2    2   10 1
     3    3   15 3
     4    4   12 2
     5    5    8 1
     6    6   16 2
     7    7    1 1
     8    8   10 1
     9    9   18 2
    10   10   11 1
    11   11   13 1
    12   13    1 1
    13   14    4 2
    14   15    1 1
    15   16    2 1
    16   17   16 1
    17   18    7 1
    18   19   18 1
    19   20   19 ar
    20   21   20 ar
    21   22    4 1
    22   23   22 ar
    23   24   19 ar
    24   25    5 1
    25   26    5 1
    26   27    8 1
    27   28    8 1
    28   29   10 1
    29   30   11 1
    30   31   11 1
    31   32   13 1
    32   33   13 1
    33   34   17 1
    34   35   17 1
    35   36   17 1
    36   40   20 1
    37   41   21 1
    38   42   23 1
    39   43   24 1
    40   21   22 ar
    41   23   24 ar
@<TRIPOS>SUBSTRUCTURE
     1 RES1 1
     2 SUP2 37

@<TRIPOS>CRYSIN
  10.9230    6.4360   23.1840  90.0000  91.7210  90.0000  14 1

