# MOL2 file generated by ConQuest
# Please check atom types

@<TRIPOS>MOLECULE
EHEVAO
    64    68     2
SMALL
NO_CHARGES
****
Generated from CSD

@<TRIPOS>ATOM
      1 C1        -2.3074    6.6771    6.8389 C.ar      1 RES1    0.0000
      2 C2        -2.8250    7.8846    7.2511 C.ar      1 RES1    0.0000
      3 H1        -3.6785    8.1755    6.9542 H         1 RES1    0.0000
      4 C3        -2.0680    8.6638    8.1126 C.ar      1 RES1    0.0000
      5 H2        -2.4075    9.4977    8.4142 H         1 RES1    0.0000
      6 C4        -0.8152    8.2326    8.5366 C.ar      1 RES1    0.0000
      7 H3        -0.3048    8.7701    9.1300 H         1 RES1    0.0000
      8 C5        -0.3054    7.0072    8.0876 C.ar      1 RES1    0.0000
      9 C6        -1.0633    6.2131    7.2275 C.ar      1 RES1    0.0000
     10 H4        -0.7349    5.3772    6.9177 H         1 RES1    0.0000
     11 C7         1.0229    6.5290    8.5353 C.ar      1 RES1    0.0000
     12 C8         3.3138    5.6714    9.3231 C.ar      1 RES1    0.0000
     13 C9         4.6303    5.1760    9.7858 C.ar      1 RES1    0.0000
     14 C10        5.3180    5.8546   10.7954 C.ar      1 RES1    0.0000
     15 H5         4.9338    6.6299   11.1886 H         1 RES1    0.0000
     16 C11        6.5593    5.4050   11.2292 C.ar      1 RES1    0.0000
     17 H6         7.0120    5.8685   11.9226 H         1 RES1    0.0000
     18 C12        7.1383    4.2882   10.6567 C.ar      1 RES1    0.0000
     19 H7         7.9903    3.9785   10.9414 H         1 RES1    0.0000
     20 C13        6.4394    3.6340    9.6528 C.ar      1 RES1    0.0000
     21 C14        5.1899    4.0380    9.2135 C.ar      1 RES1    0.0000
     22 H8         4.7280    3.5517    8.5418 H         1 RES1    0.0000
     23 N1        -3.1244    5.8206    5.9665 N.pl3     1 RES1    0.0000
     24 N2         1.6919    7.2769    9.4340 N.ar      1 RES1    0.0000
     25 N3         2.8741    6.8372    9.8319 N.ar      1 RES1    0.0000
     26 N4         1.4595    5.3665    8.0382 N.ar      1 RES1    0.0000
     27 N5         2.6422    4.9260    8.4405 N.ar      1 RES1    0.0000
     28 N6         7.0617    2.4678    9.0121 N.pl3     1 RES1    0.0000
     29 O1        -4.1860    6.2719    5.5420 O.2       1 RES1    0.0000
     30 O2        -2.7276    4.6923    5.7159 O.2       1 RES1    0.0000
     31 O3         6.3706    1.7836    8.2761 O.2       1 RES1    0.0000
     32 O4         8.2478    2.2472    9.2226 O.2       1 RES1    0.0000
     33 C15        4.7822    0.2965   12.6320 C.ar      2 RES2    0.0000
     34 C16        4.2759   -0.2258   11.4596 C.ar      2 RES2    0.0000
     35 H9         4.4710   -1.1197   11.2043 H         2 RES2    0.0000
     36 C17        3.4770    0.5787   10.6595 C.ar      2 RES2    0.0000
     37 H10        3.1211    0.2372    9.8483 H         2 RES2    0.0000
     38 C18        3.1998    1.8778   11.0450 C.ar      2 RES2    0.0000
     39 H11        2.6517    2.4260   10.4937 H         2 RES2    0.0000
     40 C19        3.7187    2.3915   12.2385 C.ar      2 RES2    0.0000
     41 C20        4.5320    1.5935   13.0469 C.ar      2 RES2    0.0000
     42 H12        4.9013    1.9297   13.8537 H         2 RES2    0.0000
     43 C21        3.3745    3.7621   12.6510 C.ar      2 RES2    0.0000
     44 N7         5.5979   -0.5740   13.4990 N.pl3     2 RES2    0.0000
     45 N8         2.3449    4.3630   12.0311 N.ar      2 RES2    0.0000
     46 N9         4.1039    4.3380   13.6294 N.ar      2 RES2    0.0000
     47 O5         5.6965   -1.7589   13.1955 O.2       2 RES2    0.0000
     48 O6         6.1376   -0.0731   14.4778 O.2       2 RES2    0.0000
     49 N9B        2.0176    5.5885   12.3968 N.ar      2 RES2    0.0000
     50 C21B       2.7470    6.1644   13.3751 C.ar      2 RES2    0.0000
     51 C19B       2.4028    7.5350   13.7876 C.ar      2 RES2    0.0000
     52 C18B       2.9217    8.0487   14.9812 C.ar      2 RES2    0.0000
     53 C17B       2.6446    9.3478   15.3666 C.ar      2 RES2    0.0000
     54 C16B       1.8456   10.1523   14.5666 C.ar      2 RES2    0.0000
     55 C15B       1.3393    9.6300   13.3941 C.ar      2 RES2    0.0000
     56 C20B       1.5896    8.3330   12.9792 C.ar      2 RES2    0.0000
     57 H12B       1.2202    7.9968   12.1724 H         2 RES2    0.0000
     58 N7B        0.5236   10.5005   12.5272 N.pl3     2 RES2    0.0000
     59 O5B        0.4250   11.6854   12.8306 O.2       2 RES2    0.0000
     60 O6B       -0.0161    9.9996   11.5483 O.2       2 RES2    0.0000
     61 H9B        1.6505   11.0462   14.8219 H         2 RES2    0.0000
     62 H10B       3.0004    9.6893   16.1778 H         2 RES2    0.0000
     63 H11B       3.4698    7.5005   15.5324 H         2 RES2    0.0000
     64 N8B        3.7766    5.5635   13.9950 N.ar      2 RES2    0.0000
@<TRIPOS>BOND
     1    1    2 ar
     2    2    3 1
     3    4    2 ar
     4    5    4 1
     5    6    4 ar
     6    7    6 1
     7    8    6 ar
     8    9    1 ar
     9   10    9 1
    10   11    8 1
    11   12   13 1
    12   13   14 ar
    13   14   15 1
    14   16   14 ar
    15   17   16 1
    16   18   16 ar
    17   19   18 1
    18   20   18 ar
    19   21   13 ar
    20   22   21 1
    21   23    1 1
    22   24   11 ar
    23   25   12 ar
    24   26   11 ar
    25   27   12 ar
    26   28   20 1
    27   29   23 2
    28   30   23 2
    29   31   28 2
    30   32   28 2
    31   33   34 ar
    32   34   35 1
    33   36   34 ar
    34   37   36 1
    35   38   36 ar
    36   39   38 1
    37   40   38 ar
    38   41   33 ar
    39   42   41 1
    40   43   40 1
    41   44   33 1
    42   45   43 ar
    43   46   43 ar
    44   47   44 2
    45   48   44 2
    46   49   45 ar
    47   50   49 ar
    48   51   50 1
    49   52   51 ar
    50   53   52 ar
    51   54   53 ar
    52   55   54 ar
    53   56   51 ar
    54   57   56 1
    55   58   55 1
    56   59   58 2
    57   60   58 2
    58   61   54 1
    59   62   53 1
    60   63   52 1
    61   64   46 ar
    62    8    9 ar
    63   20   21 ar
    64   24   25 ar
    65   26   27 ar
    66   40   41 ar
    67   50   64 ar
    68   55   56 ar
@<TRIPOS>SUBSTRUCTURE
     1 RES1 1
     2 RES2 33

@<TRIPOS>CRYSIN
   7.7749    9.9265   26.0786  90.0000  93.6350  90.0000  14 1

