# MOL2 file generated by ConQuest
# Please check atom types

@<TRIPOS>MOLECULE
EHEZIA
    31    31     1
SMALL
USER_CHARGES
****
Generated from CSD

@<TRIPOS>ATOM
      1 N1         0.9642    5.8158    1.9994 N.pl3     1 RES1    0.0000
      2 O1         0.3002    5.5574    2.9890 O.2       1 RES1    0.0000
      3 C1         1.0042    7.2188    1.5392 C.ar      1 RES1    0.0000
      4 O2         1.5741    4.9753    1.3668 O.2       1 RES1    0.0000
      5 C2         1.7829    7.5325    0.4521 C.ar      1 RES1    0.0000
      6 H1         2.3008    6.8851    0.0302 H         1 RES1    0.0000
      7 C3         1.7726    8.8394    0.0061 C.ar      1 RES1    0.0000
      8 H2         2.2956    9.0795   -0.7247 H         1 RES1    0.0000
      9 C4         0.9919    9.8003    0.6335 C.ar      1 RES1    0.0000
     10 C5         0.2001    9.4372    1.7212 C.ar      1 RES1    0.0000
     11 H3        -0.3375   10.0718    2.1374 H         1 RES1    0.0000
     12 C6         0.2130    8.1398    2.1801 C.ar      1 RES1    0.0000
     13 H4        -0.3051    7.8906    2.9116 H         1 RES1    0.0000
     14 C7         0.9808   11.2224    0.1466 C.3       1 RES1    0.0000
     15 H5         0.0821   11.5786    0.2272 H         1 RES1    0.0000
     16 H6         1.2235   11.2385   -0.7925 H         1 RES1    0.0000
     17 N2         1.9408   12.1101    0.9250 N.4       1 RES1    1.0000
     18 H7         1.6161   12.1612    1.7735 H         1 RES1    0.0000
     19 C8         3.3137   11.5251    1.0293 C.3       1 RES1    0.0000
     20 H8         3.9730   12.2337    1.0919 H         1 RES1    0.0000
     21 H9         3.5094   10.9945    0.2412 H         1 RES1    0.0000
     22 C9         3.3673   10.6501    2.2747 C.2       1 RES1    0.0000
     23 O3         2.5515   10.8032    3.1608 O.2       1 RES1    0.0000
     24 C10        1.9140   13.4994    0.3743 C.3       1 RES1    0.0000
     25 H10        1.0208   13.7095    0.0603 H         1 RES1    0.0000
     26 H11        2.5227   13.5646   -0.3780 H         1 RES1    0.0000
     27 O4         4.3319    9.7963    2.2656 O.3       1 RES1    0.0000
     28 H12        4.3733    9.0026    3.2196 H         1 RES1    0.0000
     29 C11        2.3286   14.4962    1.4651 C.2       1 RES1    0.0000
     30 O5         2.2231   15.7102    1.1159 O.co2     1 RES1    0.0000
     31 O6         2.6820   14.0595    2.5446 O.co2     1 RES1   -1.0000
@<TRIPOS>BOND
     1    1    2 2
     2    3    1 1
     3    4    1 2
     4    5    3 ar
     5    6    5 1
     6    7    5 ar
     7    8    7 1
     8    9    7 ar
     9   10    9 ar
    10   11   10 1
    11   12    3 ar
    12   13   12 1
    13   14    9 1
    14   15   14 1
    15   16   14 1
    16   17   14 1
    17   18   17 1
    18   19   17 1
    19   20   19 1
    20   21   19 1
    21   22   19 1
    22   23   22 2
    23   24   17 1
    24   25   24 1
    25   26   24 1
    26   27   22 1
    27   28   27 1
    28   29   24 1
    29   30   29 2
    30   31   29 1
    31   10   12 ar
@<TRIPOS>SUBSTRUCTURE
     1 RES1 1

@<TRIPOS>CRYSIN
   7.2254   14.7875   10.8085  90.0000  94.9680  90.0000  14 1

