# MOL2 file generated by ConQuest
# Please check atom types

@<TRIPOS>MOLECULE
EHIMUF
    40    40     2
SMALL
NO_CHARGES
****
Generated from CSD

@<TRIPOS>ATOM
      1 O1        -0.0104   14.8718   24.1919 O.3       1 RES1    0.0000
      2 H1        -0.4853   15.2375   23.5134 H         1 RES1    0.0000
      3 O2        -0.3216   13.4806   23.9442 O.3       1 RES1    0.0000
      4 O3         3.0231    9.1316   20.9624 O.2       1 RES1    0.0000
      5 O4         1.5154   13.4623   22.6288 O.2       1 RES1    0.0000
      6 O5        -3.0128    9.5550   24.4208 O.2       1 RES1    0.0000
      7 O6        -2.4414    7.6938   23.4897 O.2       1 RES1    0.0000
      8 O7         1.8519    7.3477   21.3224 O.2       1 RES1    0.0000
      9 N1         2.0409    8.5439   21.4088 N.pl3     1 RES1    0.0000
     10 N2        -2.2408    8.8638   23.7549 N.pl3     1 RES1    0.0000
     11 C1         0.5953   12.9040   23.1512 C.2       1 RES1    0.0000
     12 C2         0.3209   11.4455   23.0007 C.ar      1 RES1    0.0000
     13 C3         1.2721   10.6956   22.3115 C.ar      1 RES1    0.0000
     14 H2         2.0648   11.1005   21.9812 H         1 RES1    0.0000
     15 C4         1.0340    9.3504   22.1206 C.ar      1 RES1    0.0000
     16 C5        -0.8386   10.8545   23.4778 C.ar      1 RES1    0.0000
     17 H3        -1.4921   11.3639   23.9427 H         1 RES1    0.0000
     18 C6        -1.0146    9.5038   23.2580 C.ar      1 RES1    0.0000
     19 C7        -0.1016    8.7104   22.5869 C.ar      1 RES1    0.0000
     20 H4        -0.2459    7.7809   22.4524 H         1 RES1    0.0000
     21 O8         7.3721    8.5123   18.6417 O.2       2 RES2    0.0000
     22 O9         3.5472    4.5887   21.6264 O.3       2 RES2    0.0000
     23 O10        3.6961    4.0771   22.9871 O.3       2 RES2    0.0000
     24 H5         2.8600    3.5917   23.0693 H         2 RES2    0.0000
     25 O11        5.5752    5.4724   22.0540 O.2       2 RES2    0.0000
     26 O12        1.2268    5.4126   17.5075 O.2       2 RES2    0.0000
     27 O13        2.0460    6.8003   16.0784 O.2       2 RES2    0.0000
     28 O14        6.1148    9.1544   17.0066 O.2       2 RES2    0.0000
     29 N3         6.3381    8.4633   17.9923 N.pl3     2 RES2    0.0000
     30 N4         2.0849    6.1940   17.1384 N.pl3     2 RES2    0.0000
     31 C8         5.3034    7.5044   18.3999 C.ar      2 RES2    0.0000
     32 C9         5.4632    6.8199   19.5943 C.ar      2 RES2    0.0000
     33 H6         6.2442    6.9385   20.1208 H         2 RES2    0.0000
     34 C10        4.4596    5.9622   19.9999 C.ar      2 RES2    0.0000
     35 C11        4.6162    5.3222   21.3380 C.2       2 RES2    0.0000
     36 C12        3.3415    5.7434   19.2010 C.ar      2 RES2    0.0000
     37 H7         2.6556    5.1437   19.4719 H         2 RES2    0.0000
     38 C13        3.2599    6.4215   18.0061 C.ar      2 RES2    0.0000
     39 C14        4.2072    7.3270   17.5773 C.ar      2 RES2    0.0000
     40 H8         4.1115    7.8038   16.7604 H         2 RES2    0.0000
@<TRIPOS>BOND
     1    1    2 1
     2    3    1 1
     3    4    9 2
     4    5   11 2
     5    6   10 2
     6    7   10 2
     7    8    9 2
     8    9   15 1
     9   10   18 1
    10   11    3 1
    11   12   11 1
    12   13   12 ar
    13   14   13 1
    14   15   13 ar
    15   16   12 ar
    16   17   16 1
    17   18   16 ar
    18   19   15 ar
    19   20   19 1
    20   21   29 2
    21   22   23 1
    22   23   24 1
    23   25   35 2
    24   26   30 2
    25   27   30 2
    26   28   29 2
    27   29   31 1
    28   30   38 1
    29   31   32 ar
    30   32   33 1
    31   34   32 ar
    32   35   22 1
    33   36   34 ar
    34   37   36 1
    35   38   36 ar
    36   39   31 ar
    37   40   39 1
    38   18   19 ar
    39   34   35 1
    40   38   39 ar
@<TRIPOS>SUBSTRUCTURE
     1 RES1 1
     2 RES2 21

@<TRIPOS>CRYSIN
   6.4707   10.8839   24.6730  90.0000  90.0000  90.0000  19 1

