# MOL2 file generated by ConQuest
# Please check atom types

@<TRIPOS>MOLECULE
EHIPUH
    48    51     1
SMALL
NO_CHARGES
****
Generated from CSD

@<TRIPOS>ATOM
      1 C1         1.8318   10.3740    3.2202 C.2       1 RES1    0.0000
      2 C2         3.1948    9.7475    2.9554 C.3       1 RES1    0.0000
      3 C3         2.8997    8.2159    2.8912 C.3       1 RES1    0.0000
      4 H1         2.1247    8.0330    2.3387 H         1 RES1    0.0000
      5 H2         3.6611    7.7289    2.5404 H         1 RES1    0.0000
      6 C4         2.6315    7.8377    4.3735 C.3       1 RES1    0.0000
      7 H3         1.7601    7.4248    4.4767 H         1 RES1    0.0000
      8 H4         3.3113    7.2345    4.7094 H         1 RES1    0.0000
      9 C5         2.6908    9.1825    5.0831 C.3       1 RES1    0.0000
     10 H5         2.7971    9.1194    6.0553 H         1 RES1    0.0000
     11 C6         1.4659    9.9847    4.6372 C.3       1 RES1    0.0000
     12 H6         0.6625    9.4408    4.6555 H         1 RES1    0.0000
     13 H7         1.3349   10.7671    5.1943 H         1 RES1    0.0000
     14 C7         3.8502    9.9228    4.3621 C.3       1 RES1    0.0000
     15 C8         5.2000    9.2344    4.5076 C.3       1 RES1    0.0000
     16 H8         5.4262    9.1701    5.4385 H         1 RES1    0.0000
     17 H9         5.8699    9.7449    4.0491 H         1 RES1    0.0000
     18 H10        5.1518    8.3543    4.1282 H         1 RES1    0.0000
     19 C9         3.9850   11.3752    4.8390 C.3       1 RES1    0.0000
     20 H11        3.2174   11.8770    4.5581 H         1 RES1    0.0000
     21 H12        4.7773   11.7633    4.4606 H         1 RES1    0.0000
     22 H13        4.0468   11.3925    5.7973 H         1 RES1    0.0000
     23 C10        3.9270   10.3787    1.7964 C.2       1 RES1    0.0000
     24 C11        4.1592   10.6682   -0.6443 C.3       1 RES1    0.0000
     25 H14        5.0096   11.1292   -0.4872 H         1 RES1    0.0000
     26 C12        4.2606    9.7053   -1.8274 C.3       1 RES1    0.0000
     27 C13        2.8478    9.1145   -2.0257 C.2       1 RES1    0.0000
     28 C14        1.9183    9.5965   -0.9389 C.3       1 RES1    0.0000
     29 H15        1.0247    9.2060   -1.0421 H         1 RES1    0.0000
     30 C15        1.8676   11.0785   -1.0409 C.2       1 RES1    0.0000
     31 H16        1.0803   11.5556   -1.1762 H         1 RES1    0.0000
     32 C16        3.0505   11.6496   -0.9206 C.2       1 RES1    0.0000
     33 H17        3.1865   12.5667   -0.9985 H         1 RES1    0.0000
     34 C17        5.7723   11.1218   -3.0276 C.3       1 RES1    0.0000
     35 H18        5.6388   11.9413   -2.5462 H         1 RES1    0.0000
     36 H19        6.0269   11.3196   -3.9322 H         1 RES1    0.0000
     37 H20        6.4669   10.6113   -2.6046 H         1 RES1    0.0000
     38 C18        5.5683    7.8092   -2.5278 C.3       1 RES1    0.0000
     39 H21        4.8082    7.2679   -2.7548 H         1 RES1    0.0000
     40 H22        6.2827    7.2468   -2.2229 H         1 RES1    0.0000
     41 H23        5.8538    8.2999   -3.3016 H         1 RES1    0.0000
     42 N1         3.7522    9.8839    0.5363 N.am      1 RES1    0.0000
     43 O1         1.2040   11.0690    2.4685 O.2       1 RES1    0.0000
     44 O2         4.7433   11.2770    1.9563 O.2       1 RES1    0.0000
     45 O3         2.5446    9.1491    0.3032 O.3       1 RES1    0.0000
     46 O4         4.5554   10.3629   -3.0279 O.3       1 RES1    0.0000
     47 O5         5.2055    8.7276   -1.4878 O.3       1 RES1    0.0000
     48 O6         2.5377    8.3769   -2.9262 O.2       1 RES1    0.0000
@<TRIPOS>BOND
     1    1    2 1
     2    2    3 1
     3    3    4 1
     4    5    3 1
     5    6    3 1
     6    7    6 1
     7    8    6 1
     8    9    6 1
     9   10    9 1
    10   11    1 1
    11   12   11 1
    12   13   11 1
    13   14    2 1
    14   15   14 1
    15   16   15 1
    16   17   15 1
    17   18   15 1
    18   19   14 1
    19   20   19 1
    20   21   19 1
    21   22   19 1
    22   23    2 1
    23   24   25 1
    24   26   24 1
    25   27   26 1
    26   28   27 1
    27   29   28 1
    28   30   28 1
    29   31   30 1
    30   32   24 1
    31   33   32 1
    32   34   35 1
    33   36   34 1
    34   37   34 1
    35   38   39 1
    36   40   38 1
    37   41   38 1
    38   42   23 1
    39   43    1 2
    40   44   23 2
    41   45   28 1
    42   46   26 1
    43   47   26 1
    44   48   27 2
    45    9   11 1
    46    9   14 1
    47   24   42 1
    48   30   32 2
    49   34   46 1
    50   38   47 1
    51   42   45 1
@<TRIPOS>SUBSTRUCTURE
     1 RES1 1

@<TRIPOS>CRYSIN
  12.3603   12.3603   11.4640  90.0000  90.0000  90.0000  76 1

