# MOL2 file generated by ConQuest
# Please check atom types

@<TRIPOS>MOLECULE
EHOKAN
    57    60     1
SMALL
NO_CHARGES
****
Generated from CSD

@<TRIPOS>ATOM
      1 O1         1.9995    1.8855    1.9021 O.3       1 RES1    0.0000
      2 O2         1.8382    2.9700    7.4936 O.3       1 RES1    0.0000
      3 O3         2.1241    1.2738    5.9284 O.3       1 RES1    0.0000
      4 O4         4.2847    3.0516    5.9158 O.3       1 RES1    0.0000
      5 O5        -1.7374   -1.0456    3.5812 O.3       1 RES1    0.0000
      6 O6        -0.1717    0.6417    3.3399 O.3       1 RES1    0.0000
      7 O7         0.6271   -2.0212    0.9657 O.3       1 RES1    0.0000
      8 N1         3.1989    2.3283    2.5843 N.3       1 RES1    0.0000
      9 C1         3.2052    1.4891    3.7992 C.3       1 RES1    0.0000
     10 C2         2.6506    0.1364    3.3666 C.3       1 RES1    0.0000
     11 C3         1.8621    0.4499    2.0882 C.3       1 RES1    0.0000
     12 C4         1.2564    1.8453    6.8947 C.3       1 RES1    0.0000
     13 C5         2.3525    2.1932    4.8520 C.3       1 RES1    0.0000
     14 C6         3.0167    3.4332    5.4306 C.3       1 RES1    0.0000
     15 C7         2.1199    3.9831    6.5334 C.3       1 RES1    0.0000
     16 C8         1.0044    0.8201    7.9711 C.3       1 RES1    0.0000
     17 C9        -1.5417    0.3498    3.4644 C.3       1 RES1    0.0000
     18 C10        0.3997    0.0790    2.1484 C.3       1 RES1    0.0000
     19 C11        0.1972   -1.4445    2.1784 C.3       1 RES1    0.0000
     20 C12       -1.2737   -1.7300    2.3866 C.3       1 RES1    0.0000
     21 C13        4.3647    2.0148    1.7483 C.3       1 RES1    0.0000
     22 C14        4.4439    2.8317    0.4802 C.ar      1 RES1    0.0000
     23 C15        5.1365    2.3181   -0.6132 C.ar      1 RES1    0.0000
     24 C16        5.2711    3.0936   -1.7635 C.ar      1 RES1    0.0000
     25 C17        4.7264    4.3368   -1.8370 C.ar      1 RES1    0.0000
     26 C18        4.0405    4.8536   -0.7719 C.ar      1 RES1    0.0000
     27 C19        3.8994    4.1004    0.3960 C.ar      1 RES1    0.0000
     28 C20       -2.0529    0.9877    4.7289 C.3       1 RES1    0.0000
     29 H1         4.1568    1.4171    4.1119 H         1 RES1    0.0000
     30 H2         2.0916   -0.1644    4.0014 H         1 RES1    0.0000
     31 H3         3.3685   -0.5486    3.1864 H         1 RES1    0.0000
     32 H4         2.3352   -0.0331    1.2758 H         1 RES1    0.0000
     33 H5         0.4249    2.1276    6.2929 H         1 RES1    0.0000
     34 H6         1.4888    2.4628    4.4496 H         1 RES1    0.0000
     35 H7         3.0852    4.1259    4.7949 H         1 RES1    0.0000
     36 H8         1.2961    4.2909    6.0885 H         1 RES1    0.0000
     37 H9         2.5734    4.6700    6.9543 H         1 RES1    0.0000
     38 H10        4.7521    3.7060    6.0885 H         1 RES1    0.0000
     39 H11        0.5732   -0.0236    7.6017 H         1 RES1    0.0000
     40 H12        0.3030    1.1846    8.5450 H         1 RES1    0.0000
     41 H13        1.8545    0.6538    8.3583 H         1 RES1    0.0000
     42 H14       -2.0285    0.6321    2.5860 H         1 RES1    0.0000
     43 H15       -0.1011    0.4556    1.3571 H         1 RES1    0.0000
     44 H16        0.7444   -1.8020    2.8906 H         1 RES1    0.0000
     45 H17       -1.8643   -1.4057    1.6173 H         1 RES1    0.0000
     46 H18       -1.4973   -2.6335    2.3828 H         1 RES1    0.0000
     47 H19        0.9837   -3.0012    0.9140 H         1 RES1    0.0000
     48 H20        4.4143    1.0138    1.4739 H         1 RES1    0.0000
     49 H21        5.1914    2.1295    2.2902 H         1 RES1    0.0000
     50 H22       -1.8615    1.8065    4.8139 H         1 RES1    0.0000
     51 H23        5.5498    1.3904   -0.7020 H         1 RES1    0.0000
     52 H24        5.6977    2.6431   -2.4057 H         1 RES1    0.0000
     53 H25        4.6713    4.8759   -2.5733 H         1 RES1    0.0000
     54 H26        3.7322    5.6883   -0.8798 H         1 RES1    0.0000
     55 H27        3.3635    4.3725    1.0448 H         1 RES1    0.0000
     56 H28       -3.0001    0.8086    4.6793 H         1 RES1    0.0000
     57 H29       -1.5224    0.4977    5.5045 H         1 RES1    0.0000
@<TRIPOS>BOND
     1    1    8 1
     2    2   12 1
     3    3   12 1
     4    4   14 1
     5    5   17 1
     6    6   17 1
     7    7   19 1
     8    8    9 1
     9    9   10 1
    10   10   11 1
    11   11    1 1
    12   12   16 1
    13   13    3 1
    14   14   13 1
    15   15    2 1
    16   16   39 1
    17   17   28 1
    18   18    6 1
    19   19   18 1
    20   20    5 1
    21   21    8 1
    22   22   21 1
    23   23   22 ar
    24   24   23 ar
    25   25   24 ar
    26   26   25 ar
    27   27   22 ar
    28   28   50 1
    29   29    9 1
    30   30   10 1
    31   31   10 1
    32   32   11 1
    33   33   12 1
    34   34   13 1
    35   35   14 1
    36   36   15 1
    37   37   15 1
    38   38    4 1
    39   40   16 1
    40   41   16 1
    41   42   17 1
    42   43   18 1
    43   44   19 1
    44   45   20 1
    45   46   20 1
    46   47    7 1
    47   48   21 1
    48   49   21 1
    49   51   23 1
    50   52   24 1
    51   53   25 1
    52   54   26 1
    53   55   27 1
    54   56   28 1
    55   57   28 1
    56    9   13 1
    57   11   18 1
    58   14   15 1
    59   19   20 1
    60   26   27 ar
@<TRIPOS>SUBSTRUCTURE
     1 RES1 1

@<TRIPOS>CRYSIN
  12.6270    6.3720   13.2630  90.0000 106.8300  90.0000   4 1

