# MOL2 file generated by ConQuest
# Please check atom types

@<TRIPOS>MOLECULE
EHOMIY
    46    47     1
SMALL
NO_CHARGES
****
Generated from CSD

@<TRIPOS>ATOM
      1 O1        -2.0428    3.4966    4.2502 O.2       1 RES1    0.0000
      2 O2        -3.1887    2.9885    6.0131 O.2       1 RES1    0.0000
      3 O3        -0.2799    6.9169    2.4604 O.3       1 RES1    0.0000
      4 N1        -2.2656    3.5770    5.4536 N.pl3     1 RES1    0.0000
      5 N2         0.1349    6.4111    3.6925 N.2       1 RES1    0.0000
      6 C1        -1.3660    4.3885    6.2729 C.ar      1 RES1    0.0000
      7 C2        -0.6513    5.4414    5.6961 C.ar      1 RES1    0.0000
      8 C3         0.2447    6.1108    6.5299 C.ar      1 RES1    0.0000
      9 H1         0.7395    6.8216    6.1929 H         1 RES1    0.0000
     10 C4         0.4096    5.7320    7.8567 C.ar      1 RES1    0.0000
     11 H2         1.0271    6.1793    8.3897 H         1 RES1    0.0000
     12 C5        -0.3306    4.7009    8.3925 C.ar      1 RES1    0.0000
     13 H3        -0.2255    4.4656    9.2862 H         1 RES1    0.0000
     14 C6        -1.2284    4.0195    7.5982 C.ar      1 RES1    0.0000
     15 H4        -1.7339    3.3216    7.9490 H         1 RES1    0.0000
     16 C7        -0.8628    5.9191    4.3195 C.2       1 RES1    0.0000
     17 H5        -1.6996    5.8635    3.9174 H         1 RES1    0.0000
     18 C8         0.8772    7.3375    1.7181 C.3       1 RES1    0.0000
     19 H6         1.4276    6.5707    1.4933 H         1 RES1    0.0000
     20 H7         1.4084    7.9534    2.2463 H         1 RES1    0.0000
     21 C9         0.3895    8.0150    0.4618 C.3       1 RES1    0.0000
     22 H8         1.1540    8.3690   -0.0203 H         1 RES1    0.0000
     23 H9        -0.1751    8.7634    0.7086 H         1 RES1    0.0000
     24 O1B        2.0428   11.6154   -4.2502 O.2       1 RES1    0.0000
     25 O2B        3.1887   12.1235   -6.0131 O.2       1 RES1    0.0000
     26 O3B        0.2799    8.1951   -2.4604 O.3       1 RES1    0.0000
     27 N1B        2.2656   11.5350   -5.4536 N.pl3     1 RES1    0.0000
     28 N2B       -0.1349    8.7009   -3.6925 N.2       1 RES1    0.0000
     29 C1B        1.3660   10.7235   -6.2729 C.ar      1 RES1    0.0000
     30 C2B        0.6513    9.6706   -5.6961 C.ar      1 RES1    0.0000
     31 C3B       -0.2447    9.0012   -6.5299 C.ar      1 RES1    0.0000
     32 H1B       -0.7395    8.2904   -6.1929 H         1 RES1    0.0000
     33 C4B       -0.4096    9.3800   -7.8567 C.ar      1 RES1    0.0000
     34 H2B       -1.0271    8.9327   -8.3897 H         1 RES1    0.0000
     35 C5B        0.3306   10.4111   -8.3925 C.ar      1 RES1    0.0000
     36 H3B        0.2255   10.6464   -9.2862 H         1 RES1    0.0000
     37 C6B        1.2284   11.0925   -7.5982 C.ar      1 RES1    0.0000
     38 H4B        1.7339   11.7904   -7.9490 H         1 RES1    0.0000
     39 C7B        0.8628    9.1929   -4.3195 C.2       1 RES1    0.0000
     40 H5B        1.6996    9.2485   -3.9174 H         1 RES1    0.0000
     41 C8B       -0.8772    7.7745   -1.7181 C.3       1 RES1    0.0000
     42 H6B       -1.4276    8.5413   -1.4933 H         1 RES1    0.0000
     43 H7B       -1.4084    7.1586   -2.2463 H         1 RES1    0.0000
     44 C9B       -0.3895    7.0970   -0.4618 C.3       1 RES1    0.0000
     45 H8B       -1.1540    6.7430    0.0203 H         1 RES1    0.0000
     46 H9B        0.1751    6.3486   -0.7086 H         1 RES1    0.0000
@<TRIPOS>BOND
     1    1    4 2
     2    2    4 2
     3    3    5 1
     4    4    6 1
     5    5   16 2
     6    6    7 ar
     7    7    8 ar
     8    8    9 1
     9   10    8 ar
    10   11   10 1
    11   12   10 ar
    12   13   12 1
    13   14    6 ar
    14   15   14 1
    15   16    7 1
    16   17   16 1
    17   18    3 1
    18   19   18 1
    19   20   18 1
    20   21   18 1
    21   22   21 1
    22   23   21 1
    23   24   27 2
    24   25   27 2
    25   26   28 1
    26   27   29 1
    27   28   39 2
    28   29   30 ar
    29   30   31 ar
    30   31   32 1
    31   33   31 ar
    32   34   33 1
    33   35   33 ar
    34   36   35 1
    35   37   29 ar
    36   38   37 1
    37   39   30 1
    38   40   39 1
    39   41   26 1
    40   42   41 1
    41   43   41 1
    42   44   21 1
    43   45   44 1
    44   46   44 1
    45   12   14 ar
    46   35   37 ar
    47   41   44 1
@<TRIPOS>SUBSTRUCTURE
     1 RES1 1

@<TRIPOS>CRYSIN
   4.6680   15.1120   12.7560  90.0000  95.4590  90.0000  14 1

