# MOL2 file generated by ConQuest
# Please check atom types

@<TRIPOS>MOLECULE
EHOYAD
    41    43     1
SMALL
NO_CHARGES
****
Generated from CSD

@<TRIPOS>ATOM
      1 C1         0.4519    2.2819    9.5627 C.2       1 RES1    0.0000
      2 C2        -0.2833    1.4187    8.5686 C.3       1 RES1    0.0000
      3 H1        -1.0849    1.9037    8.2483 H         1 RES1    0.0000
      4 H2        -0.5894    0.5929    9.0210 H         1 RES1    0.0000
      5 C3         0.5734    1.0432    7.3824 C.ar      1 RES1    0.0000
      6 C4         0.1291    1.4067    6.1251 C.ar      1 RES1    0.0000
      7 H3        -0.7235    1.8140    6.0286 H         1 RES1    0.0000
      8 C5         0.9183    1.1822    4.9969 C.ar      1 RES1    0.0000
      9 C6         2.1733    0.6012    5.1347 C.ar      1 RES1    0.0000
     10 H4         2.7204    0.4568    4.3713 H         1 RES1    0.0000
     11 C7         2.6221    0.2334    6.3979 C.ar      1 RES1    0.0000
     12 C8         1.8195    0.4041    7.5419 C.ar      1 RES1    0.0000
     13 C9         2.3109   -0.0160    8.8714 C.2       1 RES1    0.0000
     14 C10        3.6875    0.2326    9.4239 C.3       1 RES1    0.0000
     15 H5         3.9094    1.1975    9.4169 H         1 RES1    0.0000
     16 H6         4.3758   -0.2633    8.9132 H         1 RES1    0.0000
     17 C11        3.5638   -0.3009   10.8540 C.3       1 RES1    0.0000
     18 H7         4.2022   -1.0622   10.9650 H         1 RES1    0.0000
     19 C12        3.8267    0.7150   11.9576 C.3       1 RES1    0.0000
     20 H8         4.7865    0.9570   11.9343 H         1 RES1    0.0000
     21 H9         3.6533    0.2788   12.8285 H         1 RES1    0.0000
     22 C13        3.0033    2.0060   11.8948 C.3       1 RES1    0.0000
     23 H10        2.9134    2.2789   10.9473 H         1 RES1    0.0000
     24 H11        3.4992    2.7217   12.3671 H         1 RES1    0.0000
     25 C14        1.5980    1.8912   12.5109 C.3       1 RES1    0.0000
     26 H12        1.2704    0.9651   12.3862 H         1 RES1    0.0000
     27 H13        1.6623    2.0589   13.4851 H         1 RES1    0.0000
     28 C15        0.5808    2.8585   11.9110 C.3       1 RES1    0.0000
     29 H14        1.0435    3.6824   11.5834 H         1 RES1    0.0000
     30 C16       -0.5471    3.2351   12.8509 C.3       1 RES1    0.0000
     31 H15       -1.1553    3.8560   12.3985 H         1 RES1    0.0000
     32 H16       -0.1766    3.6647   13.6503 H         1 RES1    0.0000
     33 H17       -1.0383    2.4282   13.1111 H         1 RES1    0.0000
     34 O1        -0.0688    2.1596   10.7815 O.3       1 RES1    0.0000
     35 O2         1.3900    3.0101    9.3008 O.2       1 RES1    0.0000
     36 O3         0.5015    1.5553    3.7505 O.3       1 RES1    0.0000
     37 H18       -0.2676    1.8897    3.8006 H         1 RES1    0.0000
     38 O4         3.8531   -0.3098    6.5917 O.3       1 RES1    0.0000
     39 H19        4.2506   -0.3729    5.8538 H         1 RES1    0.0000
     40 O5         2.1923   -0.8266   10.9369 O.3       1 RES1    0.0000
     41 N1         1.5307   -0.6085    9.7063 N.2       1 RES1    0.0000
@<TRIPOS>BOND
     1    1    2 1
     2    2    3 1
     3    4    2 1
     4    5    2 1
     5    6    5 ar
     6    7    6 1
     7    8    6 ar
     8    9    8 ar
     9   10    9 1
    10   11    9 ar
    11   12    5 ar
    12   13   12 1
    13   14   13 1
    14   15   14 1
    15   16   14 1
    16   17   14 1
    17   18   17 1
    18   19   17 1
    19   20   19 1
    20   21   19 1
    21   22   19 1
    22   23   22 1
    23   24   22 1
    24   25   22 1
    25   26   25 1
    26   27   25 1
    27   28   25 1
    28   29   28 1
    29   30   28 1
    30   31   30 1
    31   32   30 1
    32   33   30 1
    33   34    1 1
    34   35    1 2
    35   36    8 1
    36   37   36 1
    37   38   11 1
    38   39   38 1
    39   40   17 1
    40   41   13 2
    41   11   12 ar
    42   28   34 1
    43   40   41 1
@<TRIPOS>SUBSTRUCTURE
     1 RES1 1

@<TRIPOS>CRYSIN
   7.2483    7.3559   13.6601  90.0000  92.0120  90.0000   4 1

