# MOL2 file generated by ConQuest
# Please check atom types

@<TRIPOS>MOLECULE
EHUPII
    74    76     1
SMALL
USER_CHARGES
****
Generated from CSD

@<TRIPOS>ATOM
      1 O1        -1.5282    3.6553    3.0634 O.3       1 RES1    0.0000
      2 O2         1.9426    3.9235    1.5535 O.3       1 RES1    0.0000
      3 O3         0.2791    2.3727    6.6741 O.2       1 RES1   -1.0000
      4 O4         2.7192    5.9945    1.0505 O.2       1 RES1    0.0000
      5 O5        -0.8705    5.0718    1.4042 O.2       1 RES1    0.0000
      6 O6         0.0472    7.4152    3.5202 O.2       1 RES1    0.0000
      7 O7         6.4348   10.5307    3.0668 O.2       1 RES1    0.0000
      8 N1         0.3294    4.8122    3.3298 N.am      1 RES1    0.0000
      9 N2        -0.6102    3.3267    6.5765 N.pl3     1 RES1    1.0000
     10 C1         1.1060    7.0278    3.0901 C.2       1 RES1    0.0000
     11 N3         1.3104    5.6515    2.8318 N.am      1 RES1    0.0000
     12 C2         0.7062    2.5803    4.1567 C.1       1 RES1    0.0000
     13 C3        -0.7459    4.5466    2.4755 C.2       1 RES1    0.0000
     14 C4         2.0712    5.2354    1.7057 C.2       1 RES1    0.0000
     15 C5         1.9926    9.2072    2.3887 C.ar      1 RES1    0.0000
     16 H1         1.1122    9.4260    2.1077 H         1 RES1    0.0000
     17 C6        -1.4150    5.2919    5.5203 C.ar      1 RES1    0.0000
     18 H2        -1.3367    5.9450    4.8349 H         1 RES1    0.0000
     19 C7         0.6131    4.0248    4.5600 C.3       1 RES1    0.0000
     20 N4         5.3267   10.8060    2.6453 N.pl3     1 RES1    0.0000
     21 C8        -2.4190    5.4094    6.4648 C.ar      1 RES1    0.0000
     22 H3        -3.0237    6.1420    6.4428 H         1 RES1    0.0000
     23 C9        -1.6183    3.4131    7.4851 C.ar      1 RES1    0.0000
     24 H4        -1.6961    2.7519    8.1620 H         1 RES1    0.0000
     25 N5         0.8133    1.5240    3.7254 N.1       1 RES1    0.0000
     26 C10        1.9799    5.5280    6.0750 C.ar      1 RES1    0.0000
     27 H5         1.1763    5.9761    6.3109 H         1 RES1    0.0000
     28 C11        4.5420    8.5817    3.3149 C.ar      1 RES1    0.0000
     29 H6         5.4098    8.3882    3.6509 H         1 RES1    0.0000
     30 C12       -0.5228    4.2321    5.5631 C.ar      1 RES1    0.0000
     31 C13        1.9470    4.4648    5.1843 C.ar      1 RES1    0.0000
     32 C14        4.2571    9.8050    2.7418 C.ar      1 RES1    0.0000
     33 C15        2.2554    7.9574    2.9141 C.ar      1 RES1    0.0000
     34 C16       -2.5242    4.4394    7.4411 C.ar      1 RES1    0.0000
     35 H7        -3.2239    4.4844    8.0813 H         1 RES1    0.0000
     36 O8         5.0502   11.8888    2.1468 O.2       1 RES1    0.0000
     37 C17        2.9996   10.1368    2.2739 C.ar      1 RES1    0.0000
     38 H8         2.8359   10.9869    1.8804 H         1 RES1    0.0000
     39 C18        2.3833    3.2898    0.2737 C.3       1 RES1    0.0000
     40 C19        3.5262    7.6464    3.3845 C.ar      1 RES1    0.0000
     41 H9         3.6978    6.7882    3.7560 H         1 RES1    0.0000
     42 C20        3.1349    3.8462    4.8275 C.ar      1 RES1    0.0000
     43 H10        3.1264    3.1309    4.2019 H         1 RES1    0.0000
     44 C21        3.1843    5.9381    6.6200 C.ar      1 RES1    0.0000
     45 H11        3.1980    6.6580    7.2395 H         1 RES1    0.0000
     46 C22        4.3349    4.2667    5.3798 C.ar      1 RES1    0.0000
     47 H12        5.1436    3.8289    5.1416 H         1 RES1    0.0000
     48 C23        4.3620    5.3160    6.2754 C.ar      1 RES1    0.0000
     49 H13        5.1855    5.6075    6.6493 H         1 RES1    0.0000
     50 C24        3.8906    3.2564    0.2346 C.3       1 RES1    0.0000
     51 H14        4.2371    4.1734    0.2395 H         1 RES1    0.0000
     52 H15        4.1867    2.7991   -0.5804 H         1 RES1    0.0000
     53 H16        4.2270    2.7761    1.0202 H         1 RES1    0.0000
     54 C25       -3.7051    4.5558    2.4058 C.3       1 RES1    0.0000
     55 H17       -3.6479    5.0672    3.2391 H         1 RES1    0.0000
     56 H18       -4.6393    4.3173    2.2323 H         1 RES1    0.0000
     57 H19       -3.3626    5.0983    1.6654 H         1 RES1    0.0000
     58 C26       -2.8700    3.2841    2.5317 C.3       1 RES1    0.0000
     59 C27       -3.3903    2.3983    3.6338 C.3       1 RES1    0.0000
     60 H20       -2.8021    1.6207    3.7340 H         1 RES1    0.0000
     61 H21       -4.2960    2.0953    3.4102 H         1 RES1    0.0000
     62 H22       -3.4135    2.9017    4.4744 H         1 RES1    0.0000
     63 C28       -2.7026    2.5388    1.2451 C.3       1 RES1    0.0000
     64 H23       -2.3482    3.1436    0.5608 H         1 RES1    0.0000
     65 H24       -3.5702    2.1886    0.9543 H         1 RES1    0.0000
     66 H25       -2.0776    1.7947    1.3770 H         1 RES1    0.0000
     67 C29        1.7793    4.0340   -0.8956 C.3       1 RES1    0.0000
     68 H26        0.8510    4.2690   -0.6879 H         1 RES1    0.0000
     69 H27        1.8030    3.4638   -1.6923 H         1 RES1    0.0000
     70 H28        2.2940    4.8518   -1.0630 H         1 RES1    0.0000
     71 C30        1.7905    1.9099    0.4167 C.3       1 RES1    0.0000
     72 H29        2.1239    1.4952    1.2402 H         1 RES1    0.0000
     73 H30        2.0499    1.3616   -0.3531 H         1 RES1    0.0000
     74 H31        0.8145    1.9767    0.4558 H         1 RES1    0.0000
@<TRIPOS>BOND
     1    1   13 1
     2    2   14 1
     3    3    9 1
     4    4   14 2
     5    5   13 2
     6    6   10 2
     7    7   20 2
     8    8   11 1
     9    9   23 ar
    10   10   11 1
    11   11   14 1
    12   12   19 1
    13   13    8 1
    14   15   16 1
    15   17   18 1
    16   19    8 1
    17   20   32 1
    18   21   17 ar
    19   22   21 1
    20   23   24 1
    21   25   12 3
    22   26   27 1
    23   28   29 1
    24   30    9 ar
    25   31   19 1
    26   32   28 ar
    27   33   10 1
    28   34   21 ar
    29   35   34 1
    30   36   20 2
    31   37   15 ar
    32   38   37 1
    33   39    2 1
    34   40   28 ar
    35   41   40 1
    36   42   31 ar
    37   43   42 1
    38   44   26 ar
    39   45   44 1
    40   46   42 ar
    41   47   46 1
    42   48   44 ar
    43   49   48 1
    44   50   39 1
    45   51   50 1
    46   52   50 1
    47   53   50 1
    48   54   55 1
    49   56   54 1
    50   57   54 1
    51   58    1 1
    52   59   58 1
    53   60   59 1
    54   61   59 1
    55   62   59 1
    56   63   58 1
    57   64   63 1
    58   65   63 1
    59   66   63 1
    60   67   39 1
    61   68   67 1
    62   69   67 1
    63   70   67 1
    64   71   39 1
    65   72   71 1
    66   73   71 1
    67   74   71 1
    68   15   33 ar
    69   17   30 ar
    70   19   30 1
    71   23   34 ar
    72   26   31 ar
    73   32   37 ar
    74   33   40 ar
    75   46   48 ar
    76   54   58 1
@<TRIPOS>SUBSTRUCTURE
     1 RES1 1

@<TRIPOS>CRYSIN
  10.8427   11.5191   12.7877  90.0000 107.1590  90.0000   4 1

