# MOL2 file generated by ConQuest
# Please check atom types

@<TRIPOS>MOLECULE
EHUXOU
    48    49     2
SMALL
NO_CHARGES
****
Generated from CSD

@<TRIPOS>ATOM
      1 O1         1.2896    1.4630   -0.0601 O.2       1 RES1    0.0000
      2 C1         0.7787    1.5623    1.0491 C.2       1 RES1    0.0000
      3 N1        -0.2400    0.8229    1.5289 N.am      1 RES1    0.0000
      4 C2        -0.6182    1.2545    2.8130 C.ar      1 RES1    0.0000
      5 C3        -1.6047    0.7169    3.6191 C.ar      1 RES1    0.0000
      6 C4        -1.8293    1.3649    4.8425 C.ar      1 RES1    0.0000
      7 C5        -1.1102    2.4659    5.2216 C.ar      1 RES1    0.0000
      8 C6        -0.0911    2.9519    4.4099 C.ar      1 RES1    0.0000
      9 C7         0.1563    2.3257    3.2069 C.ar      1 RES1    0.0000
     10 C8         1.2510    2.4888    2.1876 C.3       1 RES1    0.0000
     11 O2         1.4441    3.8465    1.7475 O.3       1 RES1    0.0000
     12 N2         2.8334    4.0847    1.5314 N.2       1 RES1    0.0000
     13 C9         3.5042    3.0920    1.9741 C.2       1 RES1    0.0000
     14 C10        2.6787    2.0191    2.6264 C.3       1 RES1    0.0000
     15 C11        2.8814    1.9126    4.1234 C.ar      1 RES1    0.0000
     16 C12        2.4436    0.7792    4.7775 C.ar      1 RES1    0.0000
     17 C13        2.5284    0.6906    6.1655 C.ar      1 RES1    0.0000
     18 C14        3.0579    1.7130    6.9178 C.ar      1 RES1    0.0000
     19 C15        3.5174    2.8246    6.2576 C.ar      1 RES1    0.0000
     20 C16        3.4205    2.9345    4.8725 C.ar      1 RES1    0.0000
     21 C17        3.1400    1.6138    8.4460 C.3       1 RES1    0.0000
     22 H1         3.5369    2.4137    8.7967 H         1 RES1    0.0000
     23 H2         3.6784    0.8565    8.6893 H         1 RES1    0.0000
     24 H3         2.2570    1.5084    8.8074 H         1 RES1    0.0000
     25 C18        4.9765    3.0589    1.8737 C.ar      1 RES1    0.0000
     26 C19        5.6919    4.0943    1.2910 C.ar      1 RES1    0.0000
     27 C20        7.0708    4.0219    1.1933 C.ar      1 RES1    0.0000
     28 C21        7.7495    2.9395    1.6680 C.ar      1 RES1    0.0000
     29 C22        7.0543    1.9092    2.2470 C.ar      1 RES1    0.0000
     30 C23        5.6699    1.9619    2.3509 C.ar      1 RES1    0.0000
     31 H4        -0.6121    0.0504    1.1197 H         1 RES1    0.0000
     32 H5        -2.1276   -0.1289    3.3457 H         1 RES1    0.0000
     33 H6        -2.4925    0.9754    5.4644 H         1 RES1    0.0000
     34 H7        -1.3107    2.9261    6.1195 H         1 RES1    0.0000
     35 H8         0.4091    3.7164    4.6588 H         1 RES1    0.0000
     36 H9         2.8746    1.1491    2.2529 H         1 RES1    0.0000
     37 H10        2.0320    0.0000    4.2668 H         1 RES1    0.0000
     38 H11        2.2268   -0.1738    6.5895 H         1 RES1    0.0000
     39 H12        3.8982    3.5595    6.7157 H         1 RES1    0.0000
     40 H13        3.7003    3.7669    4.4171 H         1 RES1    0.0000
     41 H14        5.2079    4.8151    0.9801 H         1 RES1    0.0000
     42 H15        7.4787    4.7815    0.8082 H         1 RES1    0.0000
     43 H16        7.5304    1.1603    2.6019 H         1 RES1    0.0000
     44 H17        8.6816    2.8868    1.5735 H         1 RES1    0.0000
     45 H18        5.2045    1.2052    2.7362 H         1 RES1    0.0000
     46 H19        2.7775    0.7719    8.7322 Du        2 SUP2    0.0000
     47 H20        2.6372    2.3291    8.8396 Du        2 SUP2    0.0000
     48 H21        4.0575    1.6772    8.7215 Du        2 SUP2    0.0000
@<TRIPOS>BOND
     1    1    2 2
     2    2    3 1
     3    3    4 1
     4    4    5 ar
     5    5    6 ar
     6    6    7 ar
     7    7    8 ar
     8    8    9 ar
     9    9    4 ar
    10   10    2 1
    11   11   10 1
    12   12   11 1
    13   13   12 2
    14   14   10 1
    15   15   14 1
    16   16   15 ar
    17   17   16 ar
    18   18   17 ar
    19   19   18 ar
    20   20   15 ar
    21   21   18 1
    22   22   21 1
    23   23   21 1
    24   24   21 1
    25   25   13 1
    26   26   25 ar
    27   27   26 ar
    28   28   27 ar
    29   29   28 ar
    30   30   25 ar
    31   31    3 1
    32   32    5 1
    33   33    6 1
    34   34    7 1
    35   35    8 1
    36   36   14 1
    37   37   16 1
    38   38   17 1
    39   39   19 1
    40   40   20 1
    41   41   26 1
    42   42   27 1
    43   43   29 1
    44   44   28 1
    45   45   30 1
    46    9   10 1
    47   13   14 1
    48   19   20 ar
    49   29   30 ar
@<TRIPOS>SUBSTRUCTURE
     1 RES1 1
     2 SUP2 46

@<TRIPOS>CRYSIN
  11.7190    5.6055   27.0710  90.0000  97.2950  90.0000  14 1

