# MOL2 file generated by ConQuest
# Please check atom types

@<TRIPOS>MOLECULE
EHUZAJ
   224   232     4
SMALL
NO_CHARGES
****
Generated from CSD

@<TRIPOS>ATOM
      1 O1         5.8572   16.0272   12.0626 O.3       1 RES1    0.0000
      2 H1         5.9086   16.0295   12.9637 H         1 RES1    0.0000
      3 O2         5.4519   13.4822   12.7771 O.2       1 RES1    0.0000
      4 O3         1.2872   13.5307   10.4965 O.3       1 RES1    0.0000
      5 H2         1.4582   12.7404   10.5916 H         1 RES1    0.0000
      6 O4         2.5101   11.3201   11.0051 O.3       1 RES1    0.0000
      7 N1         4.6798   15.3719   11.7370 N.am      1 RES1    0.0000
      8 C1         4.5542   14.0403   12.1185 C.2       1 RES1    0.0000
      9 C2         3.3397   13.4236   11.6954 C.2       1 RES1    0.0000
     10 C3         2.4061   14.1151   10.9484 C.2       1 RES1    0.0000
     11 C4         2.5758   15.5148   10.6531 C.2       1 RES1    0.0000
     12 C5         3.7393   16.0769   11.0661 C.2       1 RES1    0.0000
     13 H3         3.8985   16.9941   10.8780 H         1 RES1    0.0000
     14 C6         1.4963   16.3372   10.0403 C.ar      1 RES1    0.0000
     15 C7         1.1179   17.5349   10.6467 C.ar      1 RES1    0.0000
     16 H4         1.5745   17.8326   11.4254 H         1 RES1    0.0000
     17 C8         0.0811   18.2983   10.1245 C.ar      1 RES1    0.0000
     18 H5        -0.1627   19.1132   10.5495 H         1 RES1    0.0000
     19 C9        -0.6023   17.8849    8.9935 C.ar      1 RES1    0.0000
     20 H6        -1.3173   18.4034    8.6434 H         1 RES1    0.0000
     21 C10       -0.2244   16.6959    8.3765 C.ar      1 RES1    0.0000
     22 H7        -0.6821   16.4026    7.5963 H         1 RES1    0.0000
     23 C11        0.8179   15.9362    8.8919 C.ar      1 RES1    0.0000
     24 H8         1.0720   15.1312    8.4553 H         1 RES1    0.0000
     25 C12        3.0971   11.9973   12.1418 C.3       1 RES1    0.0000
     26 H9         3.9732   11.5691   12.3630 H         1 RES1    0.0000
     27 C13        2.1664   11.9150   13.3683 C.3       1 RES1    0.0000
     28 H10        1.3585   12.4752   13.1883 H         1 RES1    0.0000
     29 C14        1.7099   10.4703   13.5931 C.3       1 RES1    0.0000
     30 H11        2.4773    9.9362   13.9182 H         1 RES1    0.0000
     31 H12        1.0137   10.4575   14.2972 H         1 RES1    0.0000
     32 C15        1.1507    9.8230   12.3259 C.3       1 RES1    0.0000
     33 H13        0.3554   10.3509   12.0289 H         1 RES1    0.0000
     34 C16        2.2266    9.9226   11.2438 C.3       1 RES1    0.0000
     35 H14        3.0586    9.4955   11.5966 H         1 RES1    0.0000
     36 C17        2.8586   12.4595   14.6183 C.3       1 RES1    0.0000
     37 H15        2.2546   12.3816   15.3864 H         1 RES1    0.0000
     38 H16        3.0904   13.4021   14.4796 H         1 RES1    0.0000
     39 H17        3.6742   11.9448   14.7912 H         1 RES1    0.0000
     40 C18        0.7034    8.3858   12.5867 C.3       1 RES1    0.0000
     41 H18        0.2167    8.0485   11.8072 H         1 RES1    0.0000
     42 H19        0.1180    8.3632   13.3736 H         1 RES1    0.0000
     43 H20        1.4899    7.8236   12.7504 H         1 RES1    0.0000
     44 C19        1.9184    9.2965    9.8831 C.3       1 RES1    0.0000
     45 H21        1.7532    8.3216   10.0330 H         1 RES1    0.0000
     46 C20        3.1488    9.4163    8.9752 C.3       1 RES1    0.0000
     47 H22        3.3358   10.3626    8.8034 H         1 RES1    0.0000
     48 H23        2.9743    8.9573    8.1269 H         1 RES1    0.0000
     49 H24        3.9218    9.0054    9.4154 H         1 RES1    0.0000
     50 C21        0.6530    9.8797    9.2293 C.3       1 RES1    0.0000
     51 H25       -0.0909    9.8387    9.8814 H         1 RES1    0.0000
     52 H26        0.8137   10.8332    9.0168 H         1 RES1    0.0000
     53 C22        0.2300    9.1571    7.9545 C.3       1 RES1    0.0000
     54 H27        0.9027    9.3031    7.2567 H         1 RES1    0.0000
     55 H28       -0.6346    9.5072    7.6525 H         1 RES1    0.0000
     56 H29        0.1484    8.1968    8.1353 H         1 RES1    0.0000
     57 O5        -1.0444   12.7880    1.8539 O.3       2 RES2    0.0000
     58 H30       -0.7092   12.8444    0.9657 H         2 RES2    0.0000
     59 O6        -0.3223   10.2720    1.2661 O.2       2 RES2    0.0000
     60 O7         2.8477   10.3552    4.7992 O.3       2 RES2    0.0000
     61 H31        2.6950    9.5033    4.6544 H         2 RES2    0.0000
     62 O8         1.9023    8.1177    3.8919 O.3       2 RES2    0.0000
     63 N2        -0.0069   12.1564    2.5240 N.am      2 RES2    0.0000
     64 C23        0.2791   10.8390    2.1997 C.2       2 RES2    0.0000
     65 C24        1.2896   10.2291    3.0026 C.2       2 RES2    0.0000
     66 C25        1.8991   10.9197    4.0211 C.2       2 RES2    0.0000
     67 C26        1.5794   12.2930    4.2877 C.2       2 RES2    0.0000
     68 C27        0.6097   12.8493    3.5026 C.2       2 RES2    0.0000
     69 H32        0.3615   13.7544    3.6494 H         2 RES2    0.0000
     70 C28        2.2899   13.1112    5.3009 C.ar      2 RES2    0.0000
     71 C29        2.6780   14.4232    4.9901 C.ar      2 RES2    0.0000
     72 H33        2.4839   14.7789    4.1322 H         2 RES2    0.0000
     73 C30        3.3429   15.2067    5.9244 C.ar      2 RES2    0.0000
     74 H34        3.6020   16.0919    5.6987 H         2 RES2    0.0000
     75 C31        3.6278   14.7072    7.1767 C.ar      2 RES2    0.0000
     76 H35        4.0842   15.2443    7.8125 H         2 RES2    0.0000
     77 C32        3.2430   13.4128    7.5034 C.ar      2 RES2    0.0000
     78 H36        3.4360   13.0667    8.3655 H         2 RES2    0.0000
     79 C33        2.5792   12.6230    6.5756 C.ar      2 RES2    0.0000
     80 H37        2.3189   11.7407    6.8103 H         2 RES2    0.0000
     81 C34        1.6869    8.8091    2.6455 C.3       2 RES2    0.0000
     82 H38        0.9354    8.3710    2.1531 H         2 RES2    0.0000
     83 C35        2.9565    8.7615    1.7806 C.3       2 RES2    0.0000
     84 H39        3.6703    9.2888    2.2430 H         2 RES2    0.0000
     85 C36        3.4384    7.3123    1.6473 C.3       2 RES2    0.0000
     86 H40        2.8010    6.8109    1.0780 H         2 RES2    0.0000
     87 H41        4.3189    7.3049    1.1931 H         2 RES2    0.0000
     88 C37        3.5670    6.6023    2.9978 C.3       2 RES2    0.0000
     89 H42        4.2622    7.0709    3.5427 H         2 RES2    0.0000
     90 C38        2.2225    6.7174    3.7128 C.3       2 RES2    0.0000
     91 H43        1.5266    6.3208    3.1132 H         2 RES2    0.0000
     92 C39        2.7232    9.3751    0.4068 C.3       2 RES2    0.0000
     93 H44        3.5520    9.3330   -0.1151 H         2 RES2    0.0000
     94 H45        2.4487   10.3106    0.5081 H         2 RES2    0.0000
     95 H46        2.0184    8.8767   -0.0590 H         2 RES2    0.0000
     96 C40        3.9903    5.1466    2.8064 C.3       2 RES2    0.0000
     97 H47        3.2535    4.6437    2.4002 H         2 RES2    0.0000
     98 H48        4.2133    4.7542    3.6775 H         2 RES2    0.0000
     99 H49        4.7747    5.1092    2.2205 H         2 RES2    0.0000
    100 C41        2.0894    6.0521    5.0828 C.3       2 RES2    0.0000
    101 H50        2.2961    5.0819    4.9604 H         2 RES2    0.0000
    102 C42        0.6380    6.1462    5.5524 C.3       2 RES2    0.0000
    103 H51        0.5293    5.6357    6.3808 H         2 RES2    0.0000
    104 H52        0.0471    5.7787    4.8621 H         2 RES2    0.0000
    105 H53        0.4073    7.0852    5.7155 H         2 RES2    0.0000
    106 C43        3.0886    6.6002    6.1051 C.3       2 RES2    0.0000
    107 H54        4.0018    6.5171    5.7323 H         2 RES2    0.0000
    108 H55        2.9071    7.5636    6.2405 H         2 RES2    0.0000
    109 C44        3.0506    5.9008    7.4658 C.3       2 RES2    0.0000
    110 H56        2.1827    6.0634    7.8911 H         2 RES2    0.0000
    111 H57        3.7650    6.2545    8.0343 H         2 RES2    0.0000
    112 H58        3.1785    4.9376    7.3409 H         2 RES2    0.0000
    113 O9         4.1518    7.3021   13.1201 O.3       3 RES3    0.0000
    114 H59        4.5977    7.2672   13.9238 H         3 RES3    0.0000
    115 O10        5.2929    9.7032   13.4564 O.2       3 RES3    0.0000
    116 O11        7.9428    8.9672    9.5740 O.3       3 RES3    0.0000
    117 H60        7.9833    9.8413    9.7130 H         3 RES3    0.0000
    118 O12        7.5157   11.3497   10.4726 O.3       3 RES3    0.0000
    119 N3         5.1599    7.7504   12.2768 N.am      3 RES3    0.0000
    120 C45        5.6840    9.0142   12.4933 C.2       3 RES3    0.0000
    121 C46        6.6738    9.4092   11.5439 C.2       3 RES3    0.0000
    122 C47        7.0189    8.5955   10.4850 C.2       3 RES3    0.0000
    123 C48        6.4261    7.2993   10.3182 C.2       3 RES3    0.0000
    124 C49        5.5018    6.9401   11.2600 C.2       3 RES3    0.0000
    125 H61        5.0862    6.0881   11.1924 H         3 RES3    0.0000
    126 C50        6.7393    6.3558    9.2096 C.ar      3 RES3    0.0000
    127 C51        6.7975    4.9833    9.4716 C.ar      3 RES3    0.0000
    128 H62        6.7237    4.6723   10.3671 H         3 RES3    0.0000
    129 C52        6.9610    4.0722    8.4419 C.ar      3 RES3    0.0000
    130 H63        6.9818    3.1422    8.6350 H         3 RES3    0.0000
    131 C53        7.0934    4.5029    7.1376 C.ar      3 RES3    0.0000
    132 H64        7.1911    3.8741    6.4313 H         3 RES3    0.0000
    133 C54        7.0809    5.8698    6.8645 C.ar      3 RES3    0.0000
    134 H65        7.1990    6.1752    5.9738 H         3 RES3    0.0000
    135 C55        6.8983    6.7889    7.8908 C.ar      3 RES3    0.0000
    136 H66        6.8808    7.7183    7.6946 H         3 RES3    0.0000
    137 C56        7.2909   10.7741   11.7715 C.3       3 RES3    0.0000
    138 H67        6.6414   11.3454   12.2732 H         3 RES3    0.0000
    139 C57        8.6214   10.7383   12.5365 C.3       3 RES3    0.0000
    140 H68        9.2742   10.1923   12.0121 H         3 RES3    0.0000
    141 C58        9.1494   12.1688   12.6274 C.3       3 RES3    0.0000
    142 H69       10.0464   12.1489   13.0452 H         3 RES3    0.0000
    143 H70        8.5531   12.6897   13.2220 H         3 RES3    0.0000
    144 C59        9.2527   12.8915   11.2819 C.3       3 RES3    0.0000
    145 H71        9.9868   12.4726   10.7460 H         3 RES3    0.0000
    146 C60        7.9399   12.7394   10.5187 C.3       3 RES3    0.0000
    147 H72        7.2381   13.2591   11.0071 H         3 RES3    0.0000
    148 C61        8.4874   10.1271   13.9238 C.3       3 RES3    0.0000
    149 H73        9.3635   10.1182   14.3617 H         3 RES3    0.0000
    150 H74        8.1528    9.2095   13.8452 H         3 RES3    0.0000
    151 H75        7.8608   10.6590   14.4572 H         3 RES3    0.0000
    152 C62        9.5801   14.3701   11.4942 C.3       3 RES3    0.0000
    153 H76        9.8316   14.7750   10.6366 H         3 RES3    0.0000
    154 H77       10.3252   14.4525   12.1272 H         3 RES3    0.0000
    155 H78        8.7940   14.8309   11.8549 H         3 RES3    0.0000
    156 C63        7.9442   13.2057    9.0592 C.3       3 RES3    0.0000
    157 H79        8.2969   14.1405    9.0449 H         3 RES3    0.0000
    158 C64        6.5188   13.2483    8.5348 C.3       3 RES3    0.0000
    159 H80        6.1629   12.3374    8.4806 H         3 RES3    0.0000
    160 H81        6.5113   13.6556    7.6441 H         3 RES3    0.0000
    161 H82        5.9629   13.7804    9.1431 H         3 RES3    0.0000
    162 C65        8.8639   12.3453    8.1482 C.3       3 RES3    0.0000
    163 H83        9.0945   11.5119    8.6294 H         3 RES3    0.0000
    164 H84        8.3554   12.0904    7.3381 H         3 RES3    0.0000
    165 C66       10.1457   13.0250    7.7201 C.3       3 RES3    0.0000
    166 H85        9.9328   13.8610    7.2539 H         3 RES3    0.0000
    167 H86       10.6436   12.4336    7.1191 H         3 RES3    0.0000
    168 H87       10.6911   13.2214    8.5115 H         3 RES3    0.0000
    169 O13       12.1802    4.3219    1.0959 O.3       4 RES4    0.0000
    170 H88       11.9658    4.1731    0.1937 H         4 RES4    0.0000
    171 O14       11.1630    6.7202    0.4640 O.2       4 RES4    0.0000
    172 O15        7.4036    5.8185    3.2303 O.3       4 RES4    0.0000
    173 H89        7.3305    6.5912    3.1525 H         4 RES4    0.0000
    174 O16        8.1730    8.2464    2.7578 O.3       4 RES4    0.0000
    175 N4        10.9375    4.7216    1.5617 N.am      4 RES4    0.0000
    176 C67       10.4934    5.9946    1.2209 C.2       4 RES4    0.0000
    177 C68        9.2440    6.3591    1.8143 C.2       4 RES4    0.0000
    178 C69        8.5535    5.4726    2.6113 C.2       4 RES4    0.0000
    179 C70        9.0184    4.1335    2.8246 C.2       4 RES4    0.0000
    180 C71       10.2263    3.8246    2.2736 C.2       4 RES4    0.0000
    181 H90       10.5776    2.9498    2.3946 H         4 RES4    0.0000
    182 C72        8.2038    3.0841    3.4885 C.ar      4 RES4    0.0000
    183 C73        8.7753    2.1835    4.3911 C.ar      4 RES4    0.0000
    184 H91        9.6849    2.2777    4.6488 H         4 RES4    0.0000
    185 C74        7.9981    1.1401    4.9124 C.ar      4 RES4    0.0000
    186 H92        8.3948    0.5148    5.5078 H         4 RES4    0.0000
    187 C75        6.6802    1.0064    4.5805 C.ar      4 RES4    0.0000
    188 H93        6.1626    0.3016    4.9519 H         4 RES4    0.0000
    189 C76        6.1018    1.9042    3.6977 C.ar      4 RES4    0.0000
    190 H94        5.1854    1.8201    3.4641 H         4 RES4    0.0000
    191 C77        6.8670    2.9261    3.1564 C.ar      4 RES4    0.0000
    192 H95        6.4671    3.5322    2.5433 H         4 RES4    0.0000
    193 C78        8.7151    7.7447    1.5128 C.3       4 RES4    0.0000
    194 H96        9.4743    8.3294    1.2268 H         4 RES4    0.0000
    195 C79        7.6303    7.7627    0.4270 C.3       4 RES4    0.0000
    196 H97        6.8977    7.1398    0.6990 H         4 RES4    0.0000
    197 C80        7.0536    9.1766    0.3284 C.3       4 RES4    0.0000
    198 H98        6.2856    9.1679   -0.2948 H         4 RES4    0.0000
    199 H99        7.7423    9.7789   -0.0477 H         4 RES4    0.0000
    200 C81        6.5919    9.7318    1.6798 C.3       4 RES4    0.0000
    201 H100       5.8404    9.1653    2.0156 H         4 RES4    0.0000
    202 C82        7.7546    9.6316    2.6666 C.3       4 RES4    0.0000
    203 H101       8.5181   10.1598    2.2963 H         4 RES4    0.0000
    204 C83        8.1819    7.3009   -0.9233 C.3       4 RES4    0.0000
    205 H102       7.4720    7.3439   -1.5973 H         4 RES4    0.0000
    206 H103       8.5038    6.3780   -0.8450 H         4 RES4    0.0000
    207 H104       8.9220    7.8847   -1.1903 H         4 RES4    0.0000
    208 C84        6.0891   11.1733    1.5370 C.3       4 RES4    0.0000
    209 H105       5.6527   11.4508    2.3693 H         4 RES4    0.0000
    210 H106       5.4473   11.2232    0.7973 H         4 RES4    0.0000
    211 H107       6.8471   11.7667    1.3503 H         4 RES4    0.0000
    212 C85        7.5041   10.1078    4.1044 C.3       4 RES4    0.0000
    213 H108       7.2613   11.0763    4.0564 H         4 RES4    0.0000
    214 C86        8.8029   10.0064    4.9070 C.3       4 RES4    0.0000
    215 H109       9.0729    9.0665    4.9744 H         4 RES4    0.0000
    216 H110       8.6611   10.3691    5.8053 H         4 RES4    0.0000
    217 H111       9.5069   10.5173    4.4551 H         4 RES4    0.0000
    218 C87        6.3441    9.3839    4.7961 C.3       4 RES4    0.0000
    219 H112       5.5678    9.3642    4.1828 H         4 RES4    0.0000
    220 H113       6.6115    8.4477    4.9716 H         4 RES4    0.0000
    221 C88        5.9144   10.0277    6.1102 C.3       4 RES4    0.0000
    222 H114       6.6674   10.0233    6.7373 H         4 RES4    0.0000
    223 H115       5.1672    9.5215    6.4931 H         4 RES4    0.0000
    224 H116       5.6326   10.9515    5.9457 H         4 RES4    0.0000
@<TRIPOS>BOND
     1    1    2 1
     2    3    8 2
     3    4    5 1
     4    6   25 1
     5    7    1 1
     6    8    7 1
     7    9    8 1
     8   10    4 1
     9   11   10 1
    10   12    7 1
    11   13   12 1
    12   14   11 1
    13   15   14 ar
    14   16   15 1
    15   17   15 ar
    16   18   17 1
    17   19   17 ar
    18   20   19 1
    19   21   19 ar
    20   22   21 1
    21   23   14 ar
    22   24   23 1
    23   25    9 1
    24   26   25 1
    25   27   25 1
    26   28   27 1
    27   29   27 1
    28   30   29 1
    29   31   29 1
    30   32   29 1
    31   33   32 1
    32   34    6 1
    33   35   34 1
    34   36   27 1
    35   37   36 1
    36   38   36 1
    37   39   36 1
    38   40   32 1
    39   41   40 1
    40   42   40 1
    41   43   40 1
    42   44   34 1
    43   45   44 1
    44   46   44 1
    45   47   46 1
    46   48   46 1
    47   49   46 1
    48   50   44 1
    49   51   50 1
    50   52   50 1
    51   53   50 1
    52   54   53 1
    53   55   53 1
    54   56   53 1
    55   57   58 1
    56   59   64 2
    57   60   61 1
    58   62   81 1
    59   63   57 1
    60   64   63 1
    61   65   64 1
    62   66   60 1
    63   67   66 1
    64   68   63 1
    65   69   68 1
    66   70   67 1
    67   71   70 ar
    68   72   71 1
    69   73   71 ar
    70   74   73 1
    71   75   73 ar
    72   76   75 1
    73   77   75 ar
    74   78   77 1
    75   79   70 ar
    76   80   79 1
    77   81   65 1
    78   82   81 1
    79   83   81 1
    80   84   83 1
    81   85   83 1
    82   86   85 1
    83   87   85 1
    84   88   85 1
    85   89   88 1
    86   90   62 1
    87   91   90 1
    88   92   83 1
    89   93   92 1
    90   94   92 1
    91   95   92 1
    92   96   88 1
    93   97   96 1
    94   98   96 1
    95   99   96 1
    96  100   90 1
    97  101  100 1
    98  102  100 1
    99  103  102 1
   100  104  102 1
   101  105  102 1
   102  106  100 1
   103  107  106 1
   104  108  106 1
   105  109  106 1
   106  110  109 1
   107  111  109 1
   108  112  109 1
   109  113  114 1
   110  115  120 2
   111  116  117 1
   112  118  137 1
   113  119  113 1
   114  120  119 1
   115  121  120 1
   116  122  116 1
   117  123  122 1
   118  124  119 1
   119  125  124 1
   120  126  123 1
   121  127  126 ar
   122  128  127 1
   123  129  127 ar
   124  130  129 1
   125  131  129 ar
   126  132  131 1
   127  133  131 ar
   128  134  133 1
   129  135  126 ar
   130  136  135 1
   131  137  121 1
   132  138  137 1
   133  139  137 1
   134  140  139 1
   135  141  139 1
   136  142  141 1
   137  143  141 1
   138  144  141 1
   139  145  144 1
   140  146  118 1
   141  147  146 1
   142  148  139 1
   143  149  148 1
   144  150  148 1
   145  151  148 1
   146  152  144 1
   147  153  152 1
   148  154  152 1
   149  155  152 1
   150  156  146 1
   151  157  156 1
   152  158  156 1
   153  159  158 1
   154  160  158 1
   155  161  158 1
   156  162  156 1
   157  163  162 1
   158  164  162 1
   159  165  162 1
   160  166  165 1
   161  167  165 1
   162  168  165 1
   163  169  170 1
   164  171  176 2
   165  172  173 1
   166  174  193 1
   167  175  169 1
   168  176  175 1
   169  177  176 1
   170  178  172 1
   171  179  178 1
   172  180  175 1
   173  181  180 1
   174  182  179 1
   175  183  182 ar
   176  184  183 1
   177  185  183 ar
   178  186  185 1
   179  187  185 ar
   180  188  187 1
   181  189  187 ar
   182  190  189 1
   183  191  182 ar
   184  192  191 1
   185  193  177 1
   186  194  193 1
   187  195  193 1
   188  196  195 1
   189  197  195 1
   190  198  197 1
   191  199  197 1
   192  200  197 1
   193  201  200 1
   194  202  174 1
   195  203  202 1
   196  204  195 1
   197  205  204 1
   198  206  204 1
   199  207  204 1
   200  208  200 1
   201  209  208 1
   202  210  208 1
   203  211  208 1
   204  212  202 1
   205  213  212 1
   206  214  212 1
   207  215  214 1
   208  216  214 1
   209  217  214 1
   210  218  212 1
   211  219  218 1
   212  220  218 1
   213  221  218 1
   214  222  221 1
   215  223  221 1
   216  224  221 1
   217    9   10 2
   218   11   12 2
   219   21   23 ar
   220   32   34 1
   221   65   66 2
   222   67   68 2
   223   77   79 ar
   224   88   90 1
   225  121  122 2
   226  123  124 2
   227  133  135 ar
   228  144  146 1
   229  177  178 2
   230  179  180 2
   231  189  191 ar
   232  200  202 1
@<TRIPOS>SUBSTRUCTURE
     1 RES1 1
     2 RES2 57
     3 RES3 113
     4 RES4 169

@<TRIPOS>CRYSIN
  11.1427   13.0004   28.0730  90.0000  90.4300  90.0000   4 1

