# MOL2 file generated by ConQuest
# Please check atom types

@<TRIPOS>MOLECULE
EIMTNB
    24    25     1
SMALL
NO_CHARGES
****
Generated from CSD

@<TRIPOS>ATOM
      1 C1         0.0418  -12.0579    2.8192 C.ar      1 RES1    0.0000
      2 C2        -0.4462  -10.9149    2.1329 C.ar      1 RES1    0.0000
      3 C3        -0.0950   -9.6195    2.4584 C.ar      1 RES1    0.0000
      4 C4         0.7671   -9.4244    3.5048 C.ar      1 RES1    0.0000
      5 C5         1.2712  -10.4760    4.2447 C.ar      1 RES1    0.0000
      6 C6         0.8801  -11.7561    3.9001 C.ar      1 RES1    0.0000
      7 C7        -0.1264  -13.8501    1.0951 C.3       1 RES1    0.0000
      8 C8         0.6945  -14.3896    2.2233 C.3       1 RES1    0.0000
      9 N1        -0.3057  -13.3380    2.4542 N.3       1 RES1    0.0000
     10 N2        -1.3361  -11.0642    0.9842 N.pl3     1 RES1    0.0000
     11 N3         1.1696   -8.0589    3.8528 N.pl3     1 RES1    0.0000
     12 N4         1.4402  -12.8229    4.7474 N.pl3     1 RES1    0.0000
     13 O1        -1.1236  -10.3205    0.0438 O.2       1 RES1    0.0000
     14 O2        -2.2368  -11.8842    1.0329 O.2       1 RES1    0.0000
     15 O3         0.5553   -7.1445    3.3480 O.2       1 RES1    0.0000
     16 O4         2.1134   -7.9370    4.6351 O.2       1 RES1    0.0000
     17 O5         0.7285  -13.7739    5.0227 O.2       1 RES1    0.0000
     18 O6         2.5798  -12.6858    5.1449 O.2       1 RES1    0.0000
     19 H1         1.7763  -10.3937    4.8646 H         1 RES1    0.0000
     20 H2        -0.3612   -9.0830    1.9204 H         1 RES1    0.0000
     21 H3        -0.9545  -14.2646    0.8190 H         1 RES1    0.0000
     22 H4         0.2954  -13.1674    0.4872 H         1 RES1    0.0000
     23 H5         1.4167  -14.1732    2.2099 H         1 RES1    0.0000
     24 H6         0.4150  -15.2095    2.5911 H         1 RES1    0.0000
@<TRIPOS>BOND
     1    1    2 ar
     2    2    3 ar
     3    3    4 ar
     4    4    5 ar
     5    5    6 ar
     6    6    1 ar
     7    7    8 1
     8    8    9 1
     9    9    1 1
    10   10    2 1
    11   11    4 1
    12   12    6 1
    13   13   10 2
    14   14   10 2
    15   15   11 2
    16   16   11 2
    17   17   12 2
    18   18   12 2
    19   19    5 1
    20   20    3 1
    21   21    7 1
    22   22    7 1
    23   23    8 1
    24   24    8 1
    25    7    9 1
@<TRIPOS>SUBSTRUCTURE
     1 RES1 1

@<TRIPOS>CRYSIN
   4.7150   30.4800    7.1190  90.0000  97.3600  90.0000  14 1

