# MOL2 file generated by ConQuest
# Please check atom types

@<TRIPOS>MOLECULE
EJEJOS
    72    78     2
SMALL
NO_CHARGES
****
Generated from CSD

@<TRIPOS>ATOM
      1 O1         3.4092    4.2311   13.5687 O.2       1 RES1    0.0000
      2 O2         3.9839    5.6400   15.0970 O.2       1 RES1    0.0000
      3 O3         0.2619    6.5957    7.8339 O.2       2 RES2    0.0000
      4 O4        -0.4808    8.0422    9.2504 O.2       2 RES2    0.0000
      5 N1         6.5515    6.1358    8.7094 N.ar      1 RES1    0.0000
      6 N2         3.9490    5.7028    7.1867 N.ar      1 RES1    0.0000
      7 N3         4.2940    5.8120   11.3309 N.ar      1 RES1    0.0000
      8 N4         2.9027    7.7048    9.7769 N.ar      1 RES1    0.0000
      9 N5         3.4812    5.3649   14.0167 N.pl3     1 RES1    0.0000
     10 N6        -2.4675    7.3250    2.4983 N.ar      2 RES2    0.0000
     11 N7         0.5047    7.3492    1.3399 N.ar      2 RES2    0.0000
     12 N8        -0.5570    7.7589    5.3928 N.ar      2 RES2    0.0000
     13 N9         0.6878    9.6600    3.7362 N.ar      2 RES2    0.0000
     14 N10        0.0426    7.7433    8.1900 N.pl3     2 RES2    0.0000
     15 C1         7.7155    5.6371    8.2952 C.ar      1 RES1    0.0000
     16 H1         8.2135    6.1384    7.6926 H         1 RES1    0.0000
     17 C2         8.2238    4.4385    8.6987 C.ar      1 RES1    0.0000
     18 H2         9.0373    4.1317    8.3675 H         1 RES1    0.0000
     19 C3         7.5086    3.6928    9.6052 C.ar      1 RES1    0.0000
     20 H3         7.8342    2.8760    9.9090 H         1 RES1    0.0000
     21 C4         6.2993    4.1769   10.0559 C.ar      1 RES1    0.0000
     22 H4         5.7920    3.6929   10.6673 H         1 RES1    0.0000
     23 C5         5.8521    5.4009    9.5784 C.ar      1 RES1    0.0000
     24 C6         4.5928    6.0178   10.0679 C.ar      1 RES1    0.0000
     25 C7         3.7998    6.8949    9.2533 C.ar      1 RES1    0.0000
     26 C8         3.8789    6.9056    7.7646 C.ar      1 RES1    0.0000
     27 C9         3.8272    8.0857    7.0581 C.ar      1 RES1    0.0000
     28 H5         3.7823    8.9031    7.4996 H         1 RES1    0.0000
     29 C10        3.8436    8.0287    5.6812 C.ar      1 RES1    0.0000
     30 H6         3.8080    8.8092    5.1774 H         1 RES1    0.0000
     31 C11        3.9124    6.8164    5.0692 C.ar      1 RES1    0.0000
     32 H7         3.9273    6.7539    4.1414 H         1 RES1    0.0000
     33 C12        3.9588    5.6860    5.8504 C.ar      1 RES1    0.0000
     34 H8         3.9987    4.8599    5.4239 H         1 RES1    0.0000
     35 C13        2.6789    7.6054   11.1279 C.ar      1 RES1    0.0000
     36 C14        1.8133    8.5292   11.7592 C.ar      1 RES1    0.0000
     37 H9         1.4285    9.2190   11.2687 H         1 RES1    0.0000
     38 C15        1.5478    8.4056   13.0816 C.ar      1 RES1    0.0000
     39 H10        0.9838    9.0177   13.4963 H         1 RES1    0.0000
     40 C16        2.1088    7.3727   13.8275 C.ar      1 RES1    0.0000
     41 H11        1.9175    7.2954   14.7352 H         1 RES1    0.0000
     42 C17        2.9401    6.4709   13.2273 C.ar      1 RES1    0.0000
     43 C18        3.2920    6.5812   11.8584 C.ar      1 RES1    0.0000
     44 C19       -3.5009    6.6088    2.0732 C.ar      2 RES2    0.0000
     45 H12       -3.9769    6.9151    1.3348 H         2 RES2    0.0000
     46 C20       -3.9029    5.4397    2.6671 C.ar      2 RES2    0.0000
     47 H13       -4.6274    4.9669    2.3272 H         2 RES2    0.0000
     48 C21       -3.2328    4.9738    3.7616 C.ar      2 RES2    0.0000
     49 H14       -3.4965    4.1858    4.1800 H         2 RES2    0.0000
     50 C22       -2.1505    5.7029    4.2385 C.ar      2 RES2    0.0000
     51 H15       -1.6708    5.4193    4.9831 H         2 RES2    0.0000
     52 C23       -1.8079    6.8657    3.5674 C.ar      2 RES2    0.0000
     53 C24       -0.7349    7.7571    4.0865 C.ar      2 RES2    0.0000
     54 C25       -0.0194    8.6711    3.2355 C.ar      2 RES2    0.0000
     55 C26        0.0383    8.5189    1.7491 C.ar      2 RES2    0.0000
     56 C27       -0.2863    9.5492    0.9034 C.ar      2 RES2    0.0000
     57 H16       -0.6048   10.3550    1.2402 H         2 RES2    0.0000
     58 C28       -0.1324    9.3690   -0.4470 C.ar      2 RES2    0.0000
     59 H17       -0.3670   10.0429   -1.0434 H         2 RES2    0.0000
     60 C29        0.3672    8.1929   -0.8978 C.ar      2 RES2    0.0000
     61 H18        0.5087    8.0520   -1.8055 H         2 RES2    0.0000
     62 C30        0.6580    7.2214    0.0149 C.ar      2 RES2    0.0000
     63 H19        0.9863    6.4124   -0.3051 H         2 RES2    0.0000
     64 C31        0.7849    9.7461    5.1010 C.ar      2 RES2    0.0000
     65 C32        1.4669   10.8368    5.6743 C.ar      2 RES2    0.0000
     66 H20        1.8318   11.4977    5.1313 H         2 RES2    0.0000
     67 C33        1.5896   10.9191    7.0305 C.ar      2 RES2    0.0000
     68 H21        2.0136   11.6540    7.4112 H         2 RES2    0.0000
     69 C34        1.0831    9.9073    7.8545 C.ar      2 RES2    0.0000
     70 H22        1.1712    9.9720    8.7784 H         2 RES2    0.0000
     71 C35        0.4679    8.8354    7.3086 C.ar      2 RES2    0.0000
     72 C36        0.2434    8.7296    5.9144 C.ar      2 RES2    0.0000
@<TRIPOS>BOND
     1    1    9 2
     2    2    9 2
     3    3   14 2
     4    4   14 2
     5    5   15 ar
     6    6   26 ar
     7    7   24 ar
     8    8   25 ar
     9    9   42 1
    10   10   44 ar
    11   11   55 ar
    12   12   53 ar
    13   13   54 ar
    14   14   71 1
    15   15   16 1
    16   17   15 ar
    17   18   17 1
    18   19   17 ar
    19   20   19 1
    20   21   19 ar
    21   22   21 1
    22   23    5 ar
    23   24   23 1
    24   25   24 ar
    25   26   25 1
    26   27   26 ar
    27   28   27 1
    28   29   27 ar
    29   30   29 1
    30   31   29 ar
    31   32   31 1
    32   33    6 ar
    33   34   33 1
    34   35    8 ar
    35   36   35 ar
    36   37   36 1
    37   38   36 ar
    38   39   38 1
    39   40   38 ar
    40   41   40 1
    41   42   40 ar
    42   43    7 ar
    43   44   45 1
    44   46   44 ar
    45   47   46 1
    46   48   46 ar
    47   49   48 1
    48   50   48 ar
    49   51   50 1
    50   52   10 ar
    51   53   52 1
    52   54   53 ar
    53   55   54 1
    54   56   55 ar
    55   57   56 1
    56   58   56 ar
    57   59   58 1
    58   60   58 ar
    59   61   60 1
    60   62   11 ar
    61   63   62 1
    62   64   13 ar
    63   65   64 ar
    64   66   65 1
    65   67   65 ar
    66   68   67 1
    67   69   67 ar
    68   70   69 1
    69   71   69 ar
    70   72   12 ar
    71   21   23 ar
    72   31   33 ar
    73   35   43 ar
    74   42   43 ar
    75   50   52 ar
    76   60   62 ar
    77   64   72 ar
    78   71   72 ar
@<TRIPOS>SUBSTRUCTURE
     1 RES1 1
     2 RES2 3

@<TRIPOS>CRYSIN
  10.9420   11.6300   12.9060 104.6150  93.4190  93.2920   2 1

