# MOL2 file generated by ConQuest
# Please check atom types

@<TRIPOS>MOLECULE
EJEPUE
    30    31     1
SMALL
NO_CHARGES
****
Generated from CSD

@<TRIPOS>ATOM
      1 O1         5.6074    3.1062    4.6916 O.2       1 RES1    0.0000
      2 O2         3.7659    3.1766    3.6279 O.2       1 RES1    0.0000
      3 O3         0.2357   15.7047    1.5271 O.2       1 RES1    0.0000
      4 O4        -1.0082   14.0029    1.1410 O.2       1 RES1    0.0000
      5 N1         4.7498    9.3053    4.3848 N.pl3     1 RES1    0.0000
      6 H1         5.3954    9.7064    4.7892 H         1 RES1    0.0000
      7 N2         3.7687   10.0204    3.8182 N.2       1 RES1    0.0000
      8 N3         3.9089   11.2612    4.0071 N.2       1 RES1    0.0000
      9 N4         4.6917    3.7344    4.1833 N.pl3     1 RES1    0.0000
     10 N5         0.0003   14.5138    1.5917 N.pl3     1 RES1    0.0000
     11 C1         4.7266    7.9241    4.3209 C.ar      1 RES1    0.0000
     12 C2         5.6778    7.1957    5.0301 C.ar      1 RES1    0.0000
     13 H2         6.3176    7.6407    5.5384 H         1 RES1    0.0000
     14 C3         5.6770    5.8315    4.9830 C.ar      1 RES1    0.0000
     15 H3         6.3162    5.3426    5.4485 H         1 RES1    0.0000
     16 C4         4.7072    5.1864    4.2317 C.ar      1 RES1    0.0000
     17 C5         3.7538    5.8882    3.5317 C.ar      1 RES1    0.0000
     18 H4         3.1061    5.4342    3.0416 H         1 RES1    0.0000
     19 C6         3.7605    7.2544    3.5584 C.ar      1 RES1    0.0000
     20 H5         3.1283    7.7364    3.0739 H         1 RES1    0.0000
     21 C7         2.8587   12.0206    3.4018 C.ar      1 RES1    0.0000
     22 C8         1.7670   11.4579    2.7341 C.ar      1 RES1    0.0000
     23 H6         1.6748   10.5335    2.6828 H         1 RES1    0.0000
     24 C9         0.8315   12.2783    2.1555 C.ar      1 RES1    0.0000
     25 H7         0.0988   11.9170    1.7125 H         1 RES1    0.0000
     26 C10        0.9913   13.6416    2.2391 C.ar      1 RES1    0.0000
     27 C11        2.0468   14.2218    2.8977 C.ar      1 RES1    0.0000
     28 H8         2.1285   15.1475    2.9454 H         1 RES1    0.0000
     29 C12        2.9830   13.3955    3.4868 C.ar      1 RES1    0.0000
     30 H9         3.7029   13.7667    3.9439 H         1 RES1    0.0000
@<TRIPOS>BOND
     1    1    9 2
     2    2    9 2
     3    3   10 2
     4    4   10 2
     5    5    6 1
     6    7    5 1
     7    8    7 2
     8    9   16 1
     9   10   26 1
    10   11    5 1
    11   12   11 ar
    12   13   12 1
    13   14   12 ar
    14   15   14 1
    15   16   14 ar
    16   17   16 ar
    17   18   17 1
    18   19   11 ar
    19   20   19 1
    20   21    8 1
    21   22   21 ar
    22   23   22 1
    23   24   22 ar
    24   25   24 1
    25   26   24 ar
    26   27   26 ar
    27   28   27 1
    28   29   21 ar
    29   30   29 1
    30   17   19 ar
    31   27   29 ar
@<TRIPOS>SUBSTRUCTURE
     1 RES1 1

@<TRIPOS>CRYSIN
  13.4520   13.6710    7.0340  90.0000  93.4420  90.0000  14 1

