# MOL2 file generated by ConQuest
# Please check atom types

@<TRIPOS>MOLECULE
EJEXUO
    44    47     1
SMALL
NO_CHARGES
****
Generated from CSD

@<TRIPOS>ATOM
      1 N1        12.6172    7.8581   -3.6432 N.pl3     1 RES1    0.0000
      2 C1        11.3219    6.4902    1.8806 C.3       1 RES1    0.0000
      3 H1        12.1796    6.8367    2.1734 H         1 RES1    0.0000
      4 H2        11.2929    5.5435    2.0880 H         1 RES1    0.0000
      5 O1        15.9773    6.1933   -6.3704 O.2       1 RES1    0.0000
      6 N2        11.7931    8.9358   -3.5354 N.2       1 RES1    0.0000
      7 O2        14.9663    7.9937   -6.9758 O.2       1 RES1    0.0000
      8 C2        10.2219    7.1966    2.6027 C.3       1 RES1    0.0000
      9 H3        10.3030    7.0211    3.5536 H         1 RES1    0.0000
     10 H4        10.3169    8.1531    2.4682 H         1 RES1    0.0000
     11 O3         8.9381    6.7930    2.1654 O.3       1 RES1    0.0000
     12 C3         8.8062    7.0815    0.7887 C.3       1 RES1    0.0000
     13 H5         8.8912    8.0383    0.6540 H         1 RES1    0.0000
     14 H6         7.9221    6.8155    0.4903 H         1 RES1    0.0000
     15 N3        12.0461    9.6630   -4.5683 N.2       1 RES1    0.0000
     16 C4         9.8332    6.3773   -0.0323 C.3       1 RES1    0.0000
     17 H7         9.6844    5.4203    0.0158 H         1 RES1    0.0000
     18 H8         9.7460    6.6487   -0.9595 H         1 RES1    0.0000
     19 N4        13.0047    9.1359   -5.3605 N.2       1 RES1    0.0000
     20 N5        15.1192    7.0533   -6.2166 N.pl3     1 RES1    0.0000
     21 C5        13.3601    7.9923   -4.7795 C.2       1 RES1    0.0000
     22 N6        11.8658    6.8881   -1.6887 N.2       1 RES1    0.0000
     23 C6        14.2820    6.9781   -5.0542 C.2       1 RES1    0.0000
     24 N7        11.1803    6.6827    0.4377 N.pl3     1 RES1    0.0000
     25 C7        14.3760    5.9178   -4.1953 C.2       1 RES1    0.0000
     26 H9        14.9976    5.2535   -4.3925 H         1 RES1    0.0000
     27 C8        13.6093    5.8435   -3.0448 C.2       1 RES1    0.0000
     28 H10       13.7065    5.0801   -2.4647 H         1 RES1    0.0000
     29 C9        12.7142    6.8352   -2.7120 C.2       1 RES1    0.0000
     30 C10       12.1840    6.8531   -0.4290 C.2       1 RES1    0.0000
     31 C11       13.5789    7.1573    0.0361 C.3       1 RES1    0.0000
     32 H11       14.0536    7.1621   -0.7297 H         1 RES1    0.0000
     33 C12       14.3149    6.1708    0.9658 C.3       1 RES1    0.0000
     34 H12       13.6967    5.5229    1.3389 H         1 RES1    0.0000
     35 H13       15.0122    5.6985    0.4841 H         1 RES1    0.0000
     36 C13       14.9132    7.0472    2.0660 C.3       1 RES1    0.0000
     37 H14       14.3558    7.0286    2.8600 H         1 RES1    0.0000
     38 H15       15.8032    6.7408    2.3019 H         1 RES1    0.0000
     39 C14       14.9671    8.4391    1.4876 C.3       1 RES1    0.0000
     40 H16       14.9859    9.1078    2.1901 H         1 RES1    0.0000
     41 H17       15.7473    8.5517    0.9234 H         1 RES1    0.0000
     42 C15       13.7021    8.5361    0.6848 C.3       1 RES1    0.0000
     43 H18       13.7694    9.2319    0.0123 H         1 RES1    0.0000
     44 H19       12.9402    8.7210    1.2561 H         1 RES1    0.0000
@<TRIPOS>BOND
     1    1    6 1
     2    2    3 1
     3    4    2 1
     4    5   20 2
     5    6   15 2
     6    7   20 2
     7    8    2 1
     8    9    8 1
     9   10    8 1
    10   11    8 1
    11   12   11 1
    12   13   12 1
    13   14   12 1
    14   15   19 1
    15   16   12 1
    16   17   16 1
    17   18   16 1
    18   19   21 2
    19   20   23 1
    20   21    1 1
    21   22   29 1
    22   23   21 1
    23   24    2 1
    24   25   23 2
    25   26   25 1
    26   27   25 1
    27   28   27 1
    28   29    1 1
    29   30   22 2
    30   31   30 1
    31   32   31 1
    32   33   31 1
    33   34   33 1
    34   35   33 1
    35   36   33 1
    36   37   36 1
    37   38   36 1
    38   39   36 1
    39   40   39 1
    40   41   39 1
    41   42   31 1
    42   43   42 1
    43   44   42 1
    44   16   24 1
    45   24   30 1
    46   27   29 2
    47   39   42 1
@<TRIPOS>SUBSTRUCTURE
     1 RES1 1

@<TRIPOS>CRYSIN
   9.6422    9.7994    9.9546  63.2720  76.2580  75.0280   2 1

