# MOL2 file generated by ConQuest
# Please check atom types

@<TRIPOS>MOLECULE
EJEYAV
    58    45     2
SMALL
NO_CHARGES
****
Generated from CSD

@<TRIPOS>ATOM
      1 O1        -2.4117    4.5837    9.2669 O.2       1 RES1    0.0000
      2 N1        -1.8611    8.3908    7.8885 N.3       1 RES1    0.0000
      3 O2        -0.5128    4.9334   10.2199 O.2       1 RES1    0.0000
      4 N2        -1.4611    5.3222    9.5408 N.pl3     1 RES1    0.0000
      5 C1        -0.6778    8.4837    8.5686 C.2       1 RES1    0.0000
      6 O3        -6.9287    3.5392    6.6480 O.3       1 RES1    0.0000
      7 N3        -0.3987    7.4462    9.2634 N.2       1 RES1    0.0000
      8 N4        -5.5134    5.6844    7.7118 N.3       1 RES1    0.0000
      9 C2        -1.4550    6.6207    9.0299 C.2       1 RES1    0.0000
     10 N5        -3.5299    6.7387    7.6234 N.2       1 RES1    0.0000
     11 C3        -2.3956    7.1799    8.1949 C.2       1 RES1    0.0000
     12 C4        -4.5674    6.3914    8.3328 C.2       1 RES1    0.0000
     13 C5        -4.7701    6.8599    9.7424 C.3       1 RES1    0.0000
     14 C6        -5.9067    7.8696    9.9313 C.3       1 RES1    0.0000
     15 H1        -5.5975    8.7739    9.7703 H         1 RES1    0.0000
     16 H2        -6.6443    7.6768    9.3314 H         1 RES1    0.0000
     17 C7        -6.3201    7.6892   11.3685 C.3       1 RES1    0.0000
     18 H3        -7.2037    8.0287   11.5321 H         1 RES1    0.0000
     19 H4        -5.7018    8.1446   11.9450 H         1 RES1    0.0000
     20 C8        -4.9708    5.8213   10.8415 C.3       1 RES1    0.0000
     21 H5        -4.2209    5.7711   11.4392 H         1 RES1    0.0000
     22 H6        -5.1138    4.9583   10.4448 H         1 RES1    0.0000
     23 C9        -2.4104    9.3498    6.9598 C.3       1 RES1    0.0000
     24 H7        -3.3534    9.4418    7.1157 H         1 RES1    0.0000
     25 H8        -2.2623    9.0458    6.0618 H         1 RES1    0.0000
     26 H9        -1.9812   10.1994    7.0859 H         1 RES1    0.0000
     27 C10       -6.2790    6.2899   11.5917 C.3       1 RES1    0.0000
     28 H10       -7.0655    5.8566   11.2234 H         1 RES1    0.0000
     29 H11       -6.2254    6.0912   12.5402 H         1 RES1    0.0000
     30 C11       -5.3961    5.3419    6.2850 C.3       1 RES1    0.0000
     31 H12       -4.5245    5.5972    5.9428 H         1 RES1    0.0000
     32 H13       -6.0786    5.7973    5.7667 H         1 RES1    0.0000
     33 C12       -5.5771    3.8626    6.2093 C.3       1 RES1    0.0000
     34 H14       -5.4431    3.5576    5.2980 H         1 RES1    0.0000
     35 H15       -4.9289    3.4196    6.7784 H         1 RES1    0.0000
     36 C13       -6.8473    5.3695    8.1820 C.3       1 RES1    0.0000
     37 H16       -7.5151    5.8304    7.6501 H         1 RES1    0.0000
     38 H17       -6.9529    5.6317    9.1094 H         1 RES1    0.0000
     39 C14       -6.9920    3.8639    8.0332 C.3       1 RES1    0.0000
     40 H18       -6.2784    3.4127    8.5118 H         1 RES1    0.0000
     41 H19       -7.8397    3.5728    8.4039 H         1 RES1    0.0000
     42 H20       -3.9637    7.3249    9.9612 H         1 RES1    0.0000
     43 H21       -0.1667    9.2293    8.4820 H         1 RES1    0.0000
     44 C15       -4.9902    4.7168    6.6284 Du        2 SUP2    0.0000
     45 H22       -4.3097    5.1432    6.0841 Du        2 SUP2    0.0000
     46 H23       -4.6149    3.9178    7.0314 Du        2 SUP2    0.0000
     47 C16       -6.1722    4.3911    5.8250 Du        2 SUP2    0.0000
     48 H24       -6.6725    5.1915    5.6043 Du        2 SUP2    0.0000
     49 H25       -5.9192    3.9412    5.0029 Du        2 SUP2    0.0000
     50 C17       -6.4546    4.7237    8.5775 Du        2 SUP2    0.0000
     51 H26       -5.9807    3.9205    8.8490 Du        2 SUP2    0.0000
     52 H27       -6.7869    5.1777    9.3673 Du        2 SUP2    0.0000
     53 C18       -7.4974    4.4187    7.6910 Du        2 SUP2    0.0000
     54 H28       -7.8491    5.2315    7.2930 Du        2 SUP2    0.0000
     55 H29       -8.2170    3.9674    8.1597 Du        2 SUP2    0.0000
     56 C19       -5.6415    6.5949   11.9686 Du        2 SUP2    0.0000
     57 H30       -6.2701    6.0264   12.4410 Du        2 SUP2    0.0000
     58 H31       -4.9782    6.9151   12.5997 Du        2 SUP2    0.0000
@<TRIPOS>BOND
     1    1    4 2
     2    2    5 1
     3    3    4 2
     4    4    9 1
     5    5    7 2
     6    6   33 1
     7    7    9 1
     8    8   12 1
     9    9   11 2
    10   10   11 1
    11   11    2 1
    12   12   10 2
    13   13   12 1
    14   14   13 1
    15   15   14 1
    16   16   14 1
    17   17   14 1
    18   18   17 1
    19   19   17 1
    20   20   13 1
    21   21   20 1
    22   22   20 1
    23   23    2 1
    24   24   23 1
    25   25   23 1
    26   26   23 1
    27   27   17 1
    28   28   27 1
    29   29   27 1
    30   30    8 1
    31   31   30 1
    32   32   30 1
    33   33   30 1
    34   34   33 1
    35   35   33 1
    36   36    8 1
    37   37   36 1
    38   38   36 1
    39   39    6 1
    40   40   39 1
    41   41   39 1
    42   42   13 1
    43   43    5 1
    44   20   27 1
    45   36   39 1
@<TRIPOS>SUBSTRUCTURE
     1 RES1 1
     2 SUP2 44

@<TRIPOS>CRYSIN
   8.9358   13.7998   12.9038  90.0000 106.0820  90.0000 231 1

