# MOL2 file generated by ConQuest
# Please check atom types

@<TRIPOS>MOLECULE
EJEYID
    35    36     1
SMALL
NO_CHARGES
****
Generated from CSD

@<TRIPOS>ATOM
      1 N1         5.7096   -0.7271    6.3950 N.pl3     1 RES1    0.0000
      2 O1         8.0284    2.8841    5.6077 O.2       1 RES1    0.0000
      3 C1         5.0514   -1.9317    6.8458 C.3       1 RES1    0.0000
      4 H1         4.3643   -2.1740    6.2212 H         1 RES1    0.0000
      5 H2         4.6598   -1.7781    7.7079 H         1 RES1    0.0000
      6 H3         5.6935   -2.6424    6.9083 H         1 RES1    0.0000
      7 O2         8.6222    1.9310    7.4527 O.2       1 RES1    0.0000
      8 N2         7.9229    1.9800    6.4330 N.pl3     1 RES1    0.0000
      9 C2         5.4410   -0.0176    5.2735 C.2       1 RES1    0.0000
     10 N3         6.1780    1.0178    5.1282 N.2       1 RES1    0.0000
     11 C3         9.3471   -1.1745    7.3791 C.3       1 RES1    0.0000
     12 H4         9.0035   -0.8381    6.5476 H         1 RES1    0.0000
     13 H5         9.4953   -2.1198    7.3048 H         1 RES1    0.0000
     14 H6        10.1755   -0.7349    7.5839 H         1 RES1    0.0000
     15 C4         6.9828    0.9760    6.2214 C.2       1 RES1    0.0000
     16 N4         7.1508   -0.5115    8.2516 N.2       1 RES1    0.0000
     17 N5         8.7586   -1.1158    9.7320 N.pl3     1 RES1    0.0000
     18 C5         6.7311   -0.1026    7.0357 C.2       1 RES1    0.0000
     19 C6         9.8673   -1.9558   10.1080 C.3       1 RES1    0.0000
     20 H7        10.3874   -1.5175   10.7990 H         1 RES1    0.0000
     21 H8        10.4442   -2.0950    9.3399 H         1 RES1    0.0000
     22 C7         9.3797   -3.2747   10.6106 C.3       1 RES1    0.0000
     23 H9        10.1334   -3.8026   10.9181 H         1 RES1    0.0000
     24 H10        8.9498   -3.7575    9.8883 H         1 RES1    0.0000
     25 C8         8.4012   -3.0873   11.7426 C.3       1 RES1    0.0000
     26 H11        8.0122   -3.9443   11.9773 H         1 RES1    0.0000
     27 H12        8.8713   -2.7489   12.5207 H         1 RES1    0.0000
     28 C9         7.3065   -2.1289   11.3649 C.3       1 RES1    0.0000
     29 H13        6.7426   -2.5353   10.6896 H         1 RES1    0.0000
     30 H14        6.7565   -1.9454   12.1437 H         1 RES1    0.0000
     31 C10        7.8626   -0.8518   10.8411 C.3       1 RES1    0.0000
     32 H15        7.1387   -0.2783   10.5460 H         1 RES1    0.0000
     33 H16        8.3438   -0.3926   11.5464 H         1 RES1    0.0000
     34 C11        8.3639   -0.9106    8.4672 C.2       1 RES1    0.0000
     35 H17        4.8195   -0.2874    4.7181 H         1 RES1    0.0000
@<TRIPOS>BOND
     1    1    3 1
     2    2    8 2
     3    3    4 1
     4    5    3 1
     5    6    3 1
     6    7    8 2
     7    8   15 1
     8    9    1 1
     9   10    9 2
    10   11   12 1
    11   13   11 1
    12   14   11 1
    13   15   10 1
    14   16   18 1
    15   17   19 1
    16   18    1 1
    17   19   20 1
    18   21   19 1
    19   22   19 1
    20   23   22 1
    21   24   22 1
    22   25   22 1
    23   26   25 1
    24   27   25 1
    25   28   25 1
    26   29   28 1
    27   30   28 1
    28   31   17 1
    29   32   31 1
    30   33   31 1
    31   34   11 1
    32   35    9 1
    33   15   18 2
    34   16   34 2
    35   17   34 1
    36   28   31 1
@<TRIPOS>SUBSTRUCTURE
     1 RES1 1

@<TRIPOS>CRYSIN
  11.8650    6.5325   16.4590  90.0000  97.4510  90.0000  14 1

