# MOL2 file generated by ConQuest
# Please check atom types

@<TRIPOS>MOLECULE
EJOXAC
    17    15     2
SMALL
NO_CHARGES
****
Generated from CSD

@<TRIPOS>ATOM
      1 O1         4.5169    0.0605    1.7497 O.2       1 RES1    0.0000
      2 O2         2.2091    2.5649    0.8471 O.2       1 RES1    0.0000
      3 O3         2.4234    1.7788    2.8194 O.2       1 RES1    0.0000
      4 O4         2.3364    1.9591    0.7024 Du        2 SUP2    0.0000
      5 O5         2.2597    2.5264    2.7344 Du        2 SUP2    0.0000
      6 N1         6.8403   -0.9213    1.7384 N.3       1 RES1    0.0000
      7 N2         2.8805    2.2648    1.7672 N.pl3     1 RES1    0.0000
      8 C1         5.0818    1.2104    1.7448 C.2       1 RES1    0.0000
      9 C2         6.5052    1.4105    1.7272 C.2       1 RES1    0.0000
     10 C3         7.0273    2.7122    1.7181 C.2       1 RES1    0.0000
     11 C4         6.2519    3.8446    1.7497 C.2       1 RES1    0.0000
     12 C5         4.8571    3.6764    1.7483 C.2       1 RES1    0.0000
     13 C6         4.3351    2.4165    1.7483 C.2       1 RES1    0.0000
     14 C7         7.3883    0.2518    1.7630 C.2       1 RES1    0.0000
     15 C8         8.8740    0.3991    1.7153 C.3       1 RES1    0.0000
     16 C9         7.5130   -2.2065    1.7405 C.3       1 RES1    0.0000
     17 C10        6.8805    5.2189    1.6935 C.3       1 RES1    0.0000
@<TRIPOS>BOND
     1    1    8 2
     2    2    7 2
     3    3    7 2
     4    6   14 1
     5    7   13 1
     6    8    9 1
     7    9   10 1
     8   10   11 2
     9   11   12 1
    10   12   13 2
    11   13    8 1
    12   14    9 2
    13   15   14 1
    14   16    6 1
    15   17   11 1
@<TRIPOS>SUBSTRUCTURE
     1 RES1 1
     2 SUP2 4

@<TRIPOS>CRYSIN
  12.9870   10.9940    7.0240  90.0000  90.0000  90.0000  33 5

