# MOL2 file generated by ConQuest
# Please check atom types

@<TRIPOS>MOLECULE
EJUKID
    70    66     2
SMALL
NO_CHARGES
****
Generated from CSD

@<TRIPOS>ATOM
      1 O1         6.4814   -0.8408    1.7809 O.2       1 RES1    0.0000
      2 O2         6.7275   -1.0609    3.9029 O.2       1 RES1    0.0000
      3 O3        10.0337    0.7277    1.4611 O.2       1 RES1    0.0000
      4 O4         9.3549   -1.2902    2.1220 O.3       1 RES1    0.0000
      5 O5         6.1741    1.9764    2.8150 O.3       1 RES1    0.0000
      6 O6         5.0180    2.3749    0.9319 O.2       1 RES1    0.0000
      7 O7         7.4804    4.0893    1.5714 O.3       1 RES1    0.0000
      8 O8         8.1399    3.5357   -0.4895 O.2       1 RES1    0.0000
      9 O9         9.4608    4.4864    3.5525 O.3       1 RES1    0.0000
     10 O10        9.4020    2.5997    5.6220 O.3       1 RES1    0.0000
     11 O11       11.6459    2.6184    5.4961 O.2       1 RES1    0.0000
     12 O12       11.5072    2.1374    5.7561 Du        2 SUP2    0.0000
     13 O13        9.2721   -0.1028    4.7441 O.3       1 RES1    0.0000
     14 O14        8.1285   -0.1041    6.6813 O.2       1 RES1    0.0000
     15 N1         6.9964   -0.5521    2.8361 N.pl3     1 RES1    0.0000
     16 C1         8.0479    0.5590    2.7898 C.3       1 RES1    0.0000
     17 C2         7.3847    1.7342    2.0736 C.3       1 RES1    0.0000
     18 H1         7.1727    1.5196    1.2133 H         1 RES1    0.0000
     19 C3         8.2314    2.9963    2.1253 C.3       1 RES1    0.0000
     20 H2         9.0022    2.8258    1.6592 H         1 RES1    0.0000
     21 C4         8.5759    3.3870    3.5456 C.3       1 RES1    0.0000
     22 H3         7.7951    3.6143    4.0438 H         1 RES1    0.0000
     23 C5         9.2691    2.2321    4.2373 C.3       1 RES1    0.0000
     24 H4        10.1303    2.1006    3.8775 H         1 RES1    0.0000
     25 C6         8.4639    0.9494    4.2150 C.3       1 RES1    0.0000
     26 H5         7.7089    1.0738    4.7553 H         1 RES1    0.0000
     27 C7         9.2626    0.0122    2.0148 C.2       1 RES1    0.0000
     28 C8        10.5497   -1.8917    1.4858 C.3       1 RES1    0.0000
     29 C9        11.4727   -2.2933    2.5384 C.3       1 RES1    0.0000
     30 H6        12.2462   -2.7037    2.1442 H         1 RES1    0.0000
     31 H7        11.0389   -2.9214    3.1213 H         1 RES1    0.0000
     32 H8        11.7406   -1.5210    3.0416 H         1 RES1    0.0000
     33 C10       10.8054   -2.9832    1.9429 Du        2 SUP2    0.0000
     34 H9        11.5859   -3.3363    1.5208 Du        2 SUP2    0.0000
     35 H10       10.0611   -3.5746    1.7948 Du        2 SUP2    0.0000
     36 H11       10.9592   -2.9038    2.8906 Du        2 SUP2    0.0000
     37 C11        5.0578    2.3418    2.1259 C.2       1 RES1    0.0000
     38 C12        3.9682    2.6919    3.0514 C.3       1 RES1    0.0000
     39 H12        3.8475    1.9564    3.7740 H         1 RES1    0.0000
     40 H13        4.2069    3.4275    3.5923 H         1 RES1    0.0000
     41 H14        3.1999    2.7655    2.6558 H         1 RES1    0.0000
     42 C13        7.5181    4.2474    0.2207 C.2       1 RES1    0.0000
     43 C14        6.6795    5.4163   -0.1761 C.3       1 RES1    0.0000
     44 H15        6.7882    5.6340   -0.9924 H         1 RES1    0.0000
     45 H16        6.4488    5.9723    0.4193 H         1 RES1    0.0000
     46 H17        5.6796    4.8690   -0.3634 H         1 RES1    0.0000
     47 C15        8.8942    5.6878    4.0997 C.3       1 RES1    0.0000
     48 H18        8.3314    5.5751    4.9342 H         1 RES1    0.0000
     49 H19        8.2046    5.9282    3.3687 H         1 RES1    0.0000
     50 C16        9.9696    6.7105    4.1527 C.ar      1 RES1    0.0000
     51 C17       10.5780    7.1947    3.0402 C.ar      1 RES1    0.0000
     52 H20       10.1899    6.9137    2.1945 H         1 RES1    0.0000
     53 C18       11.5722    8.1229    3.1031 C.ar      1 RES1    0.0000
     54 H21       11.8894    8.3995    2.1666 H         1 RES1    0.0000
     55 C19       11.9809    8.6128    4.2591 C.ar      1 RES1    0.0000
     56 H22       12.7904    9.3409    4.2912 H         1 RES1    0.0000
     57 C20       11.4192    8.1847    5.3871 C.ar      1 RES1    0.0000
     58 H23       11.8170    8.4877    6.1782 H         1 RES1    0.0000
     59 C21       10.4018    7.2227    5.3591 C.ar      1 RES1    0.0000
     60 H24        9.9604    6.9285    6.0524 H         1 RES1    0.0000
     61 C22       10.6098    2.7320    6.1600 C.2       1 RES1    0.0000
     62 C23       10.4984    3.2509    7.5522 C.3       1 RES1    0.0000
     63 H25       11.3766    3.3465    7.9296 H         1 RES1    0.0000
     64 H26        9.9863    2.6360    8.0834 H         1 RES1    0.0000
     65 H27       10.0611    4.1056    7.5411 H         1 RES1    0.0000
     66 C24        8.9624   -0.5663    5.9881 C.2       1 RES1    0.0000
     67 C25        9.8315   -1.7520    6.3040 C.3       1 RES1    0.0000
     68 H28        9.6154   -2.0830    7.1790 H         1 RES1    0.0000
     69 H29       10.7534   -1.4887    6.2789 H         1 RES1    0.0000
     70 H30        9.6777   -2.4433    5.6554 H         1 RES1    0.0000
@<TRIPOS>BOND
     1    1   15 2
     2    2   15 2
     3    3   27 2
     4    4   27 1
     5    5   17 1
     6    6   37 2
     7    7   19 1
     8    8   42 2
     9    9   21 1
    10   10   23 1
    11   11   61 2
    12   13   25 1
    13   14   66 2
    14   15   16 1
    15   16   17 1
    16   17   18 1
    17   19   17 1
    18   20   19 1
    19   21   19 1
    20   22   21 1
    21   23   21 1
    22   24   23 1
    23   25   16 1
    24   26   25 1
    25   27   16 1
    26   28    4 1
    27   29   28 1
    28   30   29 1
    29   31   29 1
    30   32   29 1
    31   37    5 1
    32   38   37 1
    33   39   38 1
    34   40   38 1
    35   41   38 1
    36   42    7 1
    37   43   42 1
    38   44   43 1
    39   45   43 1
    40   46   43 1
    41   47    9 1
    42   48   47 1
    43   49   47 1
    44   50   47 1
    45   51   50 ar
    46   52   51 1
    47   53   51 ar
    48   54   53 1
    49   55   53 ar
    50   56   55 1
    51   57   55 ar
    52   58   57 1
    53   59   50 ar
    54   60   59 1
    55   61   10 1
    56   62   61 1
    57   63   62 1
    58   64   62 1
    59   65   62 1
    60   66   13 1
    61   67   66 1
    62   68   67 1
    63   69   67 1
    64   70   67 1
    65   23   25 1
    66   57   59 ar
@<TRIPOS>SUBSTRUCTURE
     1 RES1 1
     2 SUP2 12

@<TRIPOS>CRYSIN
  13.4437   14.7101   14.2612  90.0000 101.4400  90.0000  14 1

