# MOL2 file generated by ConQuest
# Please check atom types

@<TRIPOS>MOLECULE
EKAGUU
    85    92     1
SMALL
NO_CHARGES
****
Generated from CSD

@<TRIPOS>ATOM
      1 C1         0.7176   10.4946    2.8648 C.2       1 RES1    0.0000
      2 C2         1.1095   11.9382    3.0956 C.3       1 RES1    0.0000
      3 H1         1.9442   11.9783    3.6071 H         1 RES1    0.0000
      4 C3         1.2801   12.7142    1.7410 C.3       1 RES1    0.0000
      5 H2         2.1789   13.0771    1.6912 H         1 RES1    0.0000
      6 H3         1.1659   12.0966    1.0023 H         1 RES1    0.0000
      7 C4         0.2851   13.8371    1.6086 C.3       1 RES1    0.0000
      8 H4         0.3581   14.3463    0.7763 H         1 RES1    0.0000
      9 C5        -1.1164   13.3117    1.9050 C.3       1 RES1    0.0000
     10 H5        -1.2406   12.3693    1.7179 H         1 RES1    0.0000
     11 H6        -1.8334   13.8471    1.5308 H         1 RES1    0.0000
     12 C6        -0.7803   13.6345    3.3848 C.3       1 RES1    0.0000
     13 H7        -1.5237   13.9854    3.9169 H         1 RES1    0.0000
     14 C7        -0.0693   12.4155    3.9776 C.3       1 RES1    0.0000
     15 C8         0.2423   14.6972    2.8794 C.3       1 RES1    0.0000
     16 C9         1.5265   14.9820    3.6192 C.3       1 RES1    0.0000
     17 H8         1.9903   14.1579    3.7845 H         1 RES1    0.0000
     18 H9         1.3267   15.4110    4.4551 H         1 RES1    0.0000
     19 H10        2.0803   15.5594    3.0883 H         1 RES1    0.0000
     20 C10       -0.4950   16.0306    2.6376 C.3       1 RES1    0.0000
     21 H11        0.0910   16.6482    2.1954 H         1 RES1    0.0000
     22 H12       -0.7755   16.4016    3.4783 H         1 RES1    0.0000
     23 H13       -1.2679   15.8742    2.0860 H         1 RES1    0.0000
     24 C11        0.2383   12.5959    5.4562 C.3       1 RES1    0.0000
     25 H14        0.5495   13.5142    5.6008 H         1 RES1    0.0000
     26 C12        1.5629    9.4780    2.1978 C.ar      1 RES1    0.0000
     27 C13        0.9879    8.5477    1.3546 C.ar      1 RES1    0.0000
     28 H15        0.0850    8.6138    1.1420 H         1 RES1    0.0000
     29 C14        1.7416    7.5191    0.8274 C.ar      1 RES1    0.0000
     30 H16        1.3547    6.8834    0.2709 H         1 RES1    0.0000
     31 C15        3.0661    7.4589    1.1408 C.ar      1 RES1    0.0000
     32 C16        3.6635    8.3632    1.9499 C.ar      1 RES1    0.0000
     33 H17        4.5710    8.3030    2.1443 H         1 RES1    0.0000
     34 C17        2.8889    9.3878    2.4821 C.ar      1 RES1    0.0000
     35 H18        3.2827   10.0194    3.0409 H         1 RES1    0.0000
     36 N1        -0.4394   10.1718    3.2900 N.2       1 RES1    0.0000
     37 N2         3.8843    6.3681    0.5589 N.pl3     1 RES1    0.0000
     38 O1        -1.0321   11.2846    3.9157 O.3       1 RES1    0.0000
     39 O2        -0.9080   12.3814    6.2386 O.3       1 RES1    0.0000
     40 H19       -1.4109   11.8641    5.8510 H         1 RES1    0.0000
     41 O3         5.0686    6.3661    0.7605 O.2       1 RES1    0.0000
     42 O4         3.3225    5.5059   -0.0948 O.2       1 RES1    0.0000
     43 O5         1.2681   11.7077    5.8231 O.3       1 RES1    0.0000
     44 C18        2.0074    8.8143    6.2823 C.2       1 RES1    0.0000
     45 C19        1.5146    9.5241    7.5009 C.3       1 RES1    0.0000
     46 H20        0.6146    9.8730    7.3320 H         1 RES1    0.0000
     47 C20        1.4914    8.6299    8.7717 C.3       1 RES1    0.0000
     48 H21        0.5900    8.6138    9.1301 H         1 RES1    0.0000
     49 H22        1.7278    7.7236    8.5251 H         1 RES1    0.0000
     50 C21        2.4437    9.1131    9.8518 C.3       1 RES1    0.0000
     51 H23        2.4764    8.5597   10.6597 H         1 RES1    0.0000
     52 C22        3.8111    9.4279    9.2164 C.3       1 RES1    0.0000
     53 H24        4.0246    8.8825    8.4437 H         1 RES1    0.0000
     54 H25        4.5472    9.4479    9.8481 H         1 RES1    0.0000
     55 C23        3.2406   10.8314    8.8640 C.3       1 RES1    0.0000
     56 H26        3.8733   11.5773    8.9272 H         1 RES1    0.0000
     57 C24        2.5191   10.6991    7.5629 C.3       1 RES1    0.0000
     58 C25        2.2597   10.6490   10.1008 C.3       1 RES1    0.0000
     59 C26        0.8752   11.2144   10.1154 C.3       1 RES1    0.0000
     60 H27        0.3997   10.9157    9.3366 H         1 RES1    0.0000
     61 H28        0.9207   12.1728   10.1154 H         1 RES1    0.0000
     62 H29        0.4160   10.9157   10.9039 H         1 RES1    0.0000
     63 C27        2.9940   11.1422   11.3583 C.3       1 RES1    0.0000
     64 H30        3.3094   12.0385   11.2149 H         1 RES1    0.0000
     65 H31        3.7406   10.5668   11.5393 H         1 RES1    0.0000
     66 H32        2.3928   11.1302   12.1067 H         1 RES1    0.0000
     67 C28        1.8885   12.0024    7.0490 C.3       1 RES1    0.0000
     68 H33        1.1898   12.2691    7.6831 H         1 RES1    0.0000
     69 C29        1.2855    7.7015    5.6105 C.ar      1 RES1    0.0000
     70 C30       -0.0403    7.4629    5.8741 C.ar      1 RES1    0.0000
     71 H34       -0.4802    7.9682    6.5193 H         1 RES1    0.0000
     72 C31       -0.7347    6.4644    5.1792 C.ar      1 RES1    0.0000
     73 H35       -1.6393    6.3160    5.3371 H         1 RES1    0.0000
     74 C32       -0.0498    5.7105    4.2595 C.ar      1 RES1    0.0000
     75 C33        1.2575    5.8769    4.0299 C.ar      1 RES1    0.0000
     76 H36        1.7011    5.3255    3.4273 H         1 RES1    0.0000
     77 C34        1.9524    6.8854    4.6993 C.ar      1 RES1    0.0000
     78 H37        2.8598    7.0118    4.5389 H         1 RES1    0.0000
     79 N3         3.0855    9.2394    5.7854 N.2       1 RES1    0.0000
     80 N4        -0.8278    4.6879    3.5026 N.pl3     1 RES1    0.0000
     81 O6         3.5353   10.3582    6.5302 O.3       1 RES1    0.0000
     82 O7         2.7882   13.0651    6.9335 O.3       1 RES1    0.0000
     83 H38        3.5285   12.7764    6.7319 H         1 RES1    0.0000
     84 O8        -0.2105    3.9961    2.7372 O.2       1 RES1    0.0000
     85 O9        -2.0205    4.6217    3.6593 O.2       1 RES1    0.0000
@<TRIPOS>BOND
     1    1    2 1
     2    2    3 1
     3    4    2 1
     4    5    4 1
     5    6    4 1
     6    7    4 1
     7    8    7 1
     8    9    7 1
     9   10    9 1
    10   11    9 1
    11   12    9 1
    12   13   12 1
    13   14    2 1
    14   15    7 1
    15   16   15 1
    16   17   16 1
    17   18   16 1
    18   19   16 1
    19   20   15 1
    20   21   20 1
    21   22   20 1
    22   23   20 1
    23   24   14 1
    24   25   24 1
    25   26    1 1
    26   27   26 ar
    27   28   27 1
    28   29   27 ar
    29   30   29 1
    30   31   29 ar
    31   32   31 ar
    32   33   32 1
    33   34   26 ar
    34   35   34 1
    35   36    1 2
    36   37   31 1
    37   38   14 1
    38   39   24 1
    39   40   39 1
    40   41   37 2
    41   42   37 2
    42   43   24 1
    43   44   45 1
    44   45   46 1
    45   47   45 1
    46   48   47 1
    47   49   47 1
    48   50   47 1
    49   51   50 1
    50   52   50 1
    51   53   52 1
    52   54   52 1
    53   55   52 1
    54   56   55 1
    55   57   45 1
    56   58   50 1
    57   59   58 1
    58   60   59 1
    59   61   59 1
    60   62   59 1
    61   63   58 1
    62   64   63 1
    63   65   63 1
    64   66   63 1
    65   67   43 1
    66   68   67 1
    67   69   44 1
    68   70   69 ar
    69   71   70 1
    70   72   70 ar
    71   73   72 1
    72   74   72 ar
    73   75   74 ar
    74   76   75 1
    75   77   69 ar
    76   78   77 1
    77   79   44 2
    78   80   74 1
    79   81   57 1
    80   82   67 1
    81   83   82 1
    82   84   80 2
    83   85   80 2
    84   12   14 1
    85   12   15 1
    86   32   34 ar
    87   36   38 1
    88   55   57 1
    89   55   58 1
    90   57   67 1
    91   75   77 ar
    92   79   81 1
@<TRIPOS>SUBSTRUCTURE
     1 RES1 1

@<TRIPOS>CRYSIN
   6.5085   20.0508   12.2732  90.0000  98.1520  90.0000   4 1

