# MOL2 file generated by ConQuest
# Please check atom types

@<TRIPOS>MOLECULE
EKAHUV
    30    33     1
SMALL
NO_CHARGES
****
Generated from CSD

@<TRIPOS>ATOM
      1 C1         3.9184   10.1274   11.7365 C.2       1 RES1    0.0000
      2 C2         4.9807   10.8334   12.5272 C.3       1 RES1    0.0000
      3 H1         4.9643   11.8007   12.3727 H         1 RES1    0.0000
      4 C3         4.9845   10.4963   14.0398 C.3       1 RES1    0.0000
      5 H2         5.1552   11.2894   14.5710 H         1 RES1    0.0000
      6 H3         4.1360   10.1119   14.3107 H         1 RES1    0.0000
      7 C4         6.0951    9.5020   14.1909 C.ar      1 RES1    0.0000
      8 C5         6.4739    8.8018   15.3265 C.ar      1 RES1    0.0000
      9 H4         6.0191    8.9212   16.1288 H         1 RES1    0.0000
     10 C6         7.5384    7.9231   15.2480 C.ar      1 RES1    0.0000
     11 H5         7.8050    7.4553   16.0068 H         1 RES1    0.0000
     12 C7         8.2091    7.7320   14.0610 C.ar      1 RES1    0.0000
     13 H6         8.9159    7.1287   14.0240 H         1 RES1    0.0000
     14 C8         7.8439    8.4264   12.9266 C.ar      1 RES1    0.0000
     15 H7         8.2957    8.2953   12.1246 H         1 RES1    0.0000
     16 C9         6.7898    9.3247   13.0053 C.ar      1 RES1    0.0000
     17 C10        6.2293   10.1840   11.9173 C.3       1 RES1    0.0000
     18 H8         6.8775   10.8601   11.6284 H         1 RES1    0.0000
     19 C11        2.4744   10.3255   11.9059 C.ar      1 RES1    0.0000
     20 C12        0.8159   11.6393   12.7560 C.ar      1 RES1    0.0000
     21 H9         0.5543   12.3829   13.2492 H         1 RES1    0.0000
     22 C13       -0.1675   10.8525   12.2077 C.ar      1 RES1    0.0000
     23 H10       -1.0655   11.0611   12.3259 H         1 RES1    0.0000
     24 C14        0.2089    9.7525   11.4821 C.ar      1 RES1    0.0000
     25 H11       -0.4314    9.2009   11.0935 H         1 RES1    0.0000
     26 C15        1.5425    9.4780   11.3379 C.ar      1 RES1    0.0000
     27 H12        1.8183    8.7279   10.8617 H         1 RES1    0.0000
     28 N1         4.3512    9.3434   10.8208 N.2       1 RES1    0.0000
     29 N2         2.1245   11.4033   12.6252 N.ar      1 RES1    0.0000
     30 O1         5.7553    9.3871   10.7915 O.3       1 RES1    0.0000
@<TRIPOS>BOND
     1    1    2 1
     2    2    3 1
     3    4    2 1
     4    5    4 1
     5    6    4 1
     6    7    4 1
     7    8    7 ar
     8    9    8 1
     9   10    8 ar
    10   11   10 1
    11   12   10 ar
    12   13   12 1
    13   14   12 ar
    14   15   14 1
    15   16    7 ar
    16   17    2 1
    17   18   17 1
    18   19    1 1
    19   20   21 1
    20   22   20 ar
    21   23   22 1
    22   24   22 ar
    23   25   24 1
    24   26   19 ar
    25   27   26 1
    26   28    1 2
    27   29   19 ar
    28   30   17 1
    29   14   16 ar
    30   16   17 1
    31   20   29 ar
    32   24   26 ar
    33   28   30 1
@<TRIPOS>SUBSTRUCTURE
     1 RES1 1

@<TRIPOS>CRYSIN
  10.7849   10.9235   20.3364  90.0000  90.0000  90.0000  61 1

