# MOL2 file generated by ConQuest
# Please check atom types

@<TRIPOS>MOLECULE
EKAHAB
    42    45     1
SMALL
NO_CHARGES
****
Generated from CSD

@<TRIPOS>ATOM
      1 C1         0.0490   -0.3706   13.1911 C.2       1 RES1    0.0000
      2 C2        -0.3826    0.8132   12.3561 C.3       1 RES1    0.0000
      3 H1        -1.2277    0.6001   11.9067 H         1 RES1    0.0000
      4 C3        -0.5569    2.1288   13.1779 C.3       1 RES1    0.0000
      5 H2        -1.4642    2.4539   13.0663 H         1 RES1    0.0000
      6 H3        -0.4245    1.9334   14.1198 H         1 RES1    0.0000
      7 C4         0.4144    3.2163   12.7558 C.3       1 RES1    0.0000
      8 H4         0.3495    4.0501   13.2662 H         1 RES1    0.0000
      9 C5         0.4736    3.3957   11.2162 C.3       1 RES1    0.0000
     10 C6         1.4589    2.1799   11.2494 C.3       1 RES1    0.0000
     11 H5         2.1971    2.2297   10.6063 H         1 RES1    0.0000
     12 C7         0.7566    0.8393   11.3094 C.3       1 RES1    0.0000
     13 C8         1.8185    2.6098   12.6840 C.3       1 RES1    0.0000
     14 H6         1.9645    1.8721   13.2957 H         1 RES1    0.0000
     15 H7         2.5356    3.2608   12.7359 H         1 RES1    0.0000
     16 C9         1.2179    4.6703   10.8047 C.3       1 RES1    0.0000
     17 H8         0.6788    5.4370   11.0131 H         1 RES1    0.0000
     18 H9         1.3915    4.6492    9.8605 H         1 RES1    0.0000
     19 H10        2.0493    4.7242   11.2826 H         1 RES1    0.0000
     20 C10       -0.8336    3.3506   10.4500 C.3       1 RES1    0.0000
     21 H11       -1.3260    2.5667   10.7037 H         1 RES1    0.0000
     22 H12       -0.6513    3.3239    9.5076 H         1 RES1    0.0000
     23 H13       -1.3509    4.1337   10.6533 H         1 RES1    0.0000
     24 C11        0.3653    0.3114    9.9457 C.3       1 RES1    0.0000
     25 H14       -0.0335   -0.5567   10.0413 H         1 RES1    0.0000
     26 H15        1.1470    0.2458    9.3912 H         1 RES1    0.0000
     27 H16       -0.2648    0.9111    9.5389 H         1 RES1    0.0000
     28 C12       -0.7102   -0.9726   14.2950 C.ar      1 RES1    0.0000
     29 C13       -0.1593   -2.0191   15.0403 C.ar      1 RES1    0.0000
     30 H17        0.6820   -2.3482   14.8186 H         1 RES1    0.0000
     31 C14       -0.8436   -2.5674   16.0952 C.ar      1 RES1    0.0000
     32 H18       -0.4745   -3.2666   16.5849 H         1 RES1    0.0000
     33 C15       -2.0844   -2.0680   16.4177 C.ar      1 RES1    0.0000
     34 C16       -2.6736   -1.0528   15.7000 C.ar      1 RES1    0.0000
     35 H19       -3.5171   -0.7353   15.9278 H         1 RES1    0.0000
     36 C17       -1.9776   -0.5142   14.6284 C.ar      1 RES1    0.0000
     37 H20       -2.3656    0.1646   14.1250 H         1 RES1    0.0000
     38 N1         1.2007   -0.8449   12.8846 N.2       1 RES1    0.0000
     39 N2        -2.7912   -2.6217   17.5864 N.pl3     1 RES1    0.0000
     40 O1         1.7503   -0.1217   11.8281 O.3       1 RES1    0.0000
     41 O2        -2.2408   -3.5103   18.2227 O.2       1 RES1    0.0000
     42 O3        -3.8851   -2.1686   17.8679 O.2       1 RES1    0.0000
@<TRIPOS>BOND
     1    1    2 1
     2    2    3 1
     3    4    2 1
     4    5    4 1
     5    6    4 1
     6    7    4 1
     7    8    7 1
     8    9    7 1
     9   10    9 1
    10   11   10 1
    11   12    2 1
    12   13    7 1
    13   14   13 1
    14   15   13 1
    15   16    9 1
    16   17   16 1
    17   18   16 1
    18   19   16 1
    19   20    9 1
    20   21   20 1
    21   22   20 1
    22   23   20 1
    23   24   12 1
    24   25   24 1
    25   26   24 1
    26   27   24 1
    27   28    1 1
    28   29   28 ar
    29   30   29 1
    30   31   29 ar
    31   32   31 1
    32   33   31 ar
    33   34   33 ar
    34   35   34 1
    35   36   28 ar
    36   37   36 1
    37   38    1 2
    38   39   33 1
    39   40   12 1
    40   41   39 2
    41   42   39 2
    42   10   12 1
    43   10   13 1
    44   34   36 ar
    45   38   40 1
@<TRIPOS>SUBSTRUCTURE
     1 RES1 1

@<TRIPOS>CRYSIN
   6.1621    7.7440   17.8938 102.4630  90.7170 111.3140   2 1

