# MOL2 file generated by ConQuest
# Please check atom types

@<TRIPOS>MOLECULE
EKAHOP
    29    31     1
SMALL
NO_CHARGES
****
Generated from CSD

@<TRIPOS>ATOM
      1 C1         0.7313    4.2056    8.4787 C.2       1 RES1    0.0000
      2 C2         1.4866    4.4556    7.2046 C.3       1 RES1    0.0000
      3 H1         2.4120    4.7313    7.3729 H         1 RES1    0.0000
      4 C3         1.4002    3.2938    6.1922 C.3       1 RES1    0.0000
      5 H2         2.1843    3.2732    5.6227 H         1 RES1    0.0000
      6 H3         1.3220    2.4416    6.6493 H         1 RES1    0.0000
      7 C4         0.1513    3.5897    5.3836 C.3       1 RES1    0.0000
      8 H4        -0.6452    3.2933    5.8520 H         1 RES1    0.0000
      9 H5         0.1873    3.1577    4.5163 H         1 RES1    0.0000
     10 C5         0.1699    5.1025    5.2412 C.3       1 RES1    0.0000
     11 H6         0.7788    5.3777    4.5373 H         1 RES1    0.0000
     12 H7        -0.7161    5.4436    5.0422 H         1 RES1    0.0000
     13 C6         0.6476    5.5891    6.5923 C.3       1 RES1    0.0000
     14 H8         1.1661    6.4166    6.5125 H         1 RES1    0.0000
     15 C7         1.1149    3.2532    9.5332 C.ar      1 RES1    0.0000
     16 C8         2.2844    2.5014    9.4154 C.ar      1 RES1    0.0000
     17 H9         2.8226    2.6020    8.6645 H         1 RES1    0.0000
     18 C9         2.6521    1.6073   10.4079 C.ar      1 RES1    0.0000
     19 H10        3.4288    1.1029   10.3283 H         1 RES1    0.0000
     20 C10        1.8409    1.4799   11.5187 C.ar      1 RES1    0.0000
     21 C11        0.6767    2.2142   11.6693 C.ar      1 RES1    0.0000
     22 H11        0.1449    2.1112   12.4256 H         1 RES1    0.0000
     23 C12        0.3221    3.1005   10.6758 C.ar      1 RES1    0.0000
     24 H12       -0.4542    3.6036   10.7659 H         1 RES1    0.0000
     25 N1        -0.3403    4.8974    8.6018 N.2       1 RES1    0.0000
     26 N2         2.2380    0.5389   12.5737 N.pl3     1 RES1    0.0000
     27 O1        -0.4864    5.7532    7.4993 O.3       1 RES1    0.0000
     28 O2         3.2499   -0.1218   12.4197 O.2       1 RES1    0.0000
     29 O3         1.5352    0.4600   13.5697 O.2       1 RES1    0.0000
@<TRIPOS>BOND
     1    1    2 1
     2    2    3 1
     3    4    2 1
     4    5    4 1
     5    6    4 1
     6    7    4 1
     7    8    7 1
     8    9    7 1
     9   10    7 1
    10   11   10 1
    11   12   10 1
    12   13    2 1
    13   14   13 1
    14   15    1 1
    15   16   15 ar
    16   17   16 1
    17   18   16 ar
    18   19   18 1
    19   20   18 ar
    20   21   20 ar
    21   22   21 1
    22   23   15 ar
    23   24   23 1
    24   25    1 2
    25   26   20 1
    26   27   13 1
    27   28   26 2
    28   29   26 2
    29   10   13 1
    30   21   23 ar
    31   25   27 1
@<TRIPOS>SUBSTRUCTURE
     1 RES1 1

@<TRIPOS>CRYSIN
   5.4148    9.5485   21.1836  90.0000  96.7830  90.0000  14 1

