# MOL2 file generated by ConQuest
# Please check atom types

@<TRIPOS>MOLECULE
EKAMIO
    57    59     1
SMALL
NO_CHARGES
****
Generated from CSD

@<TRIPOS>ATOM
      1 O1         9.3390   16.5336    6.0523 O.3       1 RES1    0.0000
      2 H1         9.5580   16.4858    5.2639 H         1 RES1    0.0000
      3 C1         5.0453   17.5581   10.0280 C.ar      1 RES1    0.0000
      4 C2         7.7177   15.3163    7.3382 C.ar      1 RES1    0.0000
      5 C3         6.3509   18.3068    4.0417 C.ar      1 RES1    0.0000
      6 H2         5.6003   17.7726    4.1706 H         1 RES1    0.0000
      7 C4         7.1399   17.5819    6.3176 C.3       1 RES1    0.0000
      8 H3         6.1929   17.3443    6.4019 H         1 RES1    0.0000
      9 C5         5.3034   18.3573    8.7738 C.3       1 RES1    0.0000
     10 H4         4.9847   17.8515    8.0099 H         1 RES1    0.0000
     11 H5         4.7928   19.1814    8.8165 H         1 RES1    0.0000
     12 C6         7.2992   18.3983    5.0408 C.ar      1 RES1    0.0000
     13 O2         5.0019   14.1335   13.6116 O.3       1 RES1    0.0000
     14 C7         8.3859   19.2155    4.8164 C.ar      1 RES1    0.0000
     15 H6         9.0369   19.2979    5.4760 H         1 RES1    0.0000
     16 C8         7.5260   18.3607    7.5502 C.2       1 RES1    0.0000
     17 H7         8.4129   18.6365    7.6028 H         1 RES1    0.0000
     18 C9         4.4912   15.9698   12.2668 C.ar      1 RES1    0.0000
     19 O3         5.8854   12.1591   10.6355 O.2       1 RES1    0.0000
     20 C10        5.9649   16.6171   10.4820 C.ar      1 RES1    0.0000
     21 H8         6.7729   16.5144   10.0334 H         1 RES1    0.0000
     22 C11        7.9503   16.2556    6.1758 C.3       1 RES1    0.0000
     23 H9         7.6560   15.8047    5.3566 H         1 RES1    0.0000
     24 C12        3.5861   16.9360   11.8449 C.ar      1 RES1    0.0000
     25 H10        2.7894   17.0557   12.3084 H         1 RES1    0.0000
     26 C13        7.2650   13.5580    9.4154 C.ar      1 RES1    0.0000
     27 C14        8.7004   15.0938    8.3019 C.ar      1 RES1    0.0000
     28 H11        9.5139   15.5394    8.2422 H         1 RES1    0.0000
     29 N1         7.0049   12.6308   10.5257 N.pl3     1 RES1    0.0000
     30 C15        8.4756   14.2142    9.3493 C.ar      1 RES1    0.0000
     31 H12        9.1293   14.0697    9.9950 H         1 RES1    0.0000
     32 C16        3.8601   17.7207   10.7431 C.ar      1 RES1    0.0000
     33 H13        3.2462   18.3659   10.4735 H         1 RES1    0.0000
     34 O4         3.2156   15.3186   14.1476 O.2       1 RES1    0.0000
     35 C17        6.2707   13.7584    8.4830 C.ar      1 RES1    0.0000
     36 H14        5.4596   13.3080    8.5469 H         1 RES1    0.0000
     37 C18        6.7480   18.6946    8.5621 C.2       1 RES1    0.0000
     38 H15        7.1471   19.2047    9.2289 H         1 RES1    0.0000
     39 C19        5.6980   15.8344   11.5838 C.ar      1 RES1    0.0000
     40 H16        6.3261   15.2132   11.8726 H         1 RES1    0.0000
     41 C20        4.1556   15.1272   13.4304 C.2       1 RES1    0.0000
     42 C21        7.5848   19.7985    2.6373 C.ar      1 RES1    0.0000
     43 H17        7.6854   20.2568    1.8349 H         1 RES1    0.0000
     44 C22        6.4998   18.9998    2.8429 C.ar      1 RES1    0.0000
     45 H18        5.8542   18.9179    2.1791 H         1 RES1    0.0000
     46 C23        6.5076   14.6447    7.4483 C.ar      1 RES1    0.0000
     47 H19        5.8435   14.7938    6.8143 H         1 RES1    0.0000
     48 C24        8.5315   19.9186    3.6304 C.ar      1 RES1    0.0000
     49 H20        9.2685   20.4719    3.5057 H         1 RES1    0.0000
     50 O5         7.9184   12.3740   11.2886 O.2       1 RES1    0.0000
     51 C25        4.7323   13.1915   14.6836 C.3       1 RES1    0.0000
     52 H21        4.0568   12.5516   14.4086 H         1 RES1    0.0000
     53 H22        4.4116   13.6593   15.4699 H         1 RES1    0.0000
     54 C26        6.0119   12.4925   14.9840 C.3       1 RES1    0.0000
     55 H23        5.8748   11.8687   15.7001 H         1 RES1    0.0000
     56 H24        6.6749   13.1377   15.2430 H         1 RES1    0.0000
     57 H25        6.3107   12.0229   14.2030 H         1 RES1    0.0000
@<TRIPOS>BOND
     1    1    2 1
     2    3    9 1
     3    4   22 1
     4    5    6 1
     5    7    8 1
     6    9   10 1
     7   11    9 1
     8   12    5 ar
     9   13   41 1
    10   14   12 ar
    11   15   14 1
    12   16    7 1
    13   17   16 1
    14   18   24 ar
    15   19   29 2
    16   20    3 ar
    17   21   20 1
    18   22    1 1
    19   23   22 1
    20   24   25 1
    21   26   29 1
    22   27    4 ar
    23   28   27 1
    24   29   50 2
    25   30   26 ar
    26   31   30 1
    27   32    3 ar
    28   33   32 1
    29   34   41 2
    30   35   26 ar
    31   36   35 1
    32   37    9 1
    33   38   37 1
    34   39   18 ar
    35   40   39 1
    36   41   18 1
    37   42   43 1
    38   44    5 ar
    39   45   44 1
    40   46    4 ar
    41   47   46 1
    42   48   14 ar
    43   49   48 1
    44   51   13 1
    45   52   51 1
    46   53   51 1
    47   54   51 1
    48   55   54 1
    49   56   54 1
    50   57   54 1
    51    7   12 1
    52    7   22 1
    53   16   37 2
    54   20   39 ar
    55   24   32 ar
    56   27   30 ar
    57   35   46 ar
    58   42   44 ar
    59   42   48 ar
@<TRIPOS>SUBSTRUCTURE
     1 RES1 1

@<TRIPOS>CRYSIN
   5.8826   17.9232   10.6596  90.0000  91.5500  90.0000   4 1

