# MOL2 file generated by ConQuest
# Please check atom types

@<TRIPOS>MOLECULE
EKAVUJ
    58    59     1
SMALL
NO_CHARGES
****
Generated from CSD

@<TRIPOS>ATOM
      1 O1         3.3655    3.4316    2.3993 O.3       1 RES1    0.0000
      2 O2         0.7036    5.4965    3.2996 O.2       1 RES1    0.0000
      3 O3         2.9221    7.4909    3.1470 O.3       1 RES1    0.0000
      4 O4         3.5111    6.1362    4.8565 O.2       1 RES1    0.0000
      5 O5         1.5314    7.7019    9.2165 O.2       1 RES1    0.0000
      6 O6         1.3724    9.8252    9.5609 O.2       1 RES1    0.0000
      7 O7         2.6164   12.2240    4.0497 O.2       1 RES1    0.0000
      8 O8         1.3275   12.7729    5.7038 O.2       1 RES1    0.0000
      9 N1         2.1582    3.8129    3.0141 N.am      1 RES1    0.0000
     10 N2         1.5747    8.8650    8.8395 N.pl3     1 RES1    0.0000
     11 N3         2.0133   11.9776    5.0888 N.pl3     1 RES1    0.0000
     12 C1         1.6464    5.0304    2.6833 C.2       1 RES1    0.0000
     13 C2         2.3086    5.7795    1.5306 C.3       1 RES1    0.0000
     14 H1         2.6826    5.1109    0.8865 H         1 RES1    0.0000
     15 C3         3.4739    6.5866    2.1373 C.3       1 RES1    0.0000
     16 H2         4.1211    5.9602    2.5717 H         1 RES1    0.0000
     17 C4         4.2266    7.5097    1.1751 C.3       1 RES1    0.0000
     18 H3         3.5566    8.1162    0.7480 H         1 RES1    0.0000
     19 C5         4.9203    6.7140    0.0543 C.3       1 RES1    0.0000
     20 H4         5.5730    6.0849    0.4525 H         1 RES1    0.0000
     21 H5         4.2455    6.1832   -0.4386 H         1 RES1    0.0000
     22 C6         5.6399    7.6420   -0.9140 C.3       1 RES1    0.0000
     23 H6         4.9904    8.2422   -1.3344 H         1 RES1    0.0000
     24 H7         6.0887    7.1094   -1.6045 H         1 RES1    0.0000
     25 H8         6.3053    8.1716   -0.4271 H         1 RES1    0.0000
     26 C7         1.2889    6.6481    0.7967 C.3       1 RES1    0.0000
     27 H9         0.5047    6.1076    0.5656 H         1 RES1    0.0000
     28 H10        1.6921    7.0035   -0.0231 H         1 RES1    0.0000
     29 H11        1.0157    7.3904    1.3759 H         1 RES1    0.0000
     30 C8         5.1943    8.3732    1.9690 C.ar      1 RES1    0.0000
     31 C9         6.2415    7.8131    2.6939 C.ar      1 RES1    0.0000
     32 H12        6.3864    6.8750    2.6595 H         1 RES1    0.0000
     33 C10        7.0745    8.6024    3.4635 C.ar      1 RES1    0.0000
     34 H13        7.7832    8.2031    3.9546 H         1 RES1    0.0000
     35 C11        6.8800    9.9776    3.5224 C.ar      1 RES1    0.0000
     36 H14        7.4454   10.5191    4.0608 H         1 RES1    0.0000
     37 C12        5.8580   10.5501    2.7913 C.ar      1 RES1    0.0000
     38 H15        5.7281   11.4907    2.8141 H         1 RES1    0.0000
     39 C13        5.0226    9.7525    2.0244 C.ar      1 RES1    0.0000
     40 H16        4.3203   10.1550    1.5283 H         1 RES1    0.0000
     41 C14        1.9621    3.2199    4.3256 C.3       1 RES1    0.0000
     42 H17        2.6613    3.5370    4.9357 H         1 RES1    0.0000
     43 H18        2.0102    2.2442    4.2524 H         1 RES1    0.0000
     44 H19        1.0834    3.4791    4.6725 H         1 RES1    0.0000
     45 C15        3.0991    2.3541    1.4900 C.3       1 RES1    0.0000
     46 H20        2.7078    1.6016    1.9808 H         1 RES1    0.0000
     47 H21        3.9361    2.0691    1.0666 H         1 RES1    0.0000
     48 H22        2.4716    2.6562    0.8011 H         1 RES1    0.0000
     49 C16        3.0739    7.1714    4.4352 C.2       1 RES1    0.0000
     50 C17        2.6282    8.3091    5.3021 C.ar      1 RES1    0.0000
     51 C18        2.3204    8.0580    6.6344 C.ar      1 RES1    0.0000
     52 H23        2.3960    7.1825    6.9950 H         1 RES1    0.0000
     53 C19        1.9015    9.1138    7.4207 C.ar      1 RES1    0.0000
     54 C20        1.7771   10.4102    6.9546 C.ar      1 RES1    0.0000
     55 H24        1.4708   11.1189    7.5098 H         1 RES1    0.0000
     56 C21        2.1267   10.6113    5.6350 C.ar      1 RES1    0.0000
     57 C22        2.5479    9.6018    4.7931 C.ar      1 RES1    0.0000
     58 H25        2.7763    9.7845    3.8899 H         1 RES1    0.0000
@<TRIPOS>BOND
     1    1    9 1
     2    2   12 2
     3    3   15 1
     4    4   49 2
     5    5   10 2
     6    6   10 2
     7    7   11 2
     8    8   11 2
     9    9   12 1
    10   10   53 1
    11   11   56 1
    12   12   13 1
    13   13   14 1
    14   15   13 1
    15   16   15 1
    16   17   15 1
    17   18   17 1
    18   19   17 1
    19   20   19 1
    20   21   19 1
    21   22   19 1
    22   23   22 1
    23   24   22 1
    24   25   22 1
    25   26   13 1
    26   27   26 1
    27   28   26 1
    28   29   26 1
    29   30   17 1
    30   31   30 ar
    31   32   31 1
    32   33   31 ar
    33   34   33 1
    34   35   33 ar
    35   36   35 1
    36   37   35 ar
    37   38   37 1
    38   39   30 ar
    39   40   39 1
    40   41    9 1
    41   42   41 1
    42   43   41 1
    43   44   41 1
    44   45    1 1
    45   46   45 1
    46   47   45 1
    47   48   45 1
    48   49    3 1
    49   50   49 1
    50   51   50 ar
    51   52   51 1
    52   53   51 ar
    53   54   53 ar
    54   55   54 1
    55   56   54 ar
    56   57   50 ar
    57   58   57 1
    58   37   39 ar
    59   56   57 ar
@<TRIPOS>SUBSTRUCTURE
     1 RES1 1

@<TRIPOS>CRYSIN
   7.8737   12.6008   23.0857  90.0000  90.0000  90.0000  19 1

