# MOL2 file generated by ConQuest
# Please check atom types

@<TRIPOS>MOLECULE
EKAWAQ
    64    65     1
SMALL
NO_CHARGES
****
Generated from CSD

@<TRIPOS>ATOM
      1 O1         0.1753    5.7494    2.6626 O.2       1 RES1    0.0000
      2 O2         0.9097    2.5226    1.5556 O.3       1 RES1    0.0000
      3 O3        -2.5348    3.7589    5.0340 O.3       1 RES1    0.0000
      4 O4        -1.9236    5.1960    6.6759 O.2       1 RES1    0.0000
      5 O5        -6.3340    0.8801    5.6656 O.2       1 RES1    0.0000
      6 O6        -6.6285    0.0388    7.6447 O.2       1 RES1    0.0000
      7 O7        -5.8148    3.3099   11.2171 O.2       1 RES1    0.0000
      8 O8        -3.9056    4.3368   11.1383 O.2       1 RES1    0.0000
      9 N1         0.8803    3.9258    1.5804 N.am      1 RES1    0.0000
     10 N2        -6.1301    0.8497    6.8709 N.pl3     1 RES1    0.0000
     11 N3        -4.7894    3.6623   10.6388 N.pl3     1 RES1    0.0000
     12 C1         0.1251    4.5310    2.5213 C.2       1 RES1    0.0000
     13 C2        -0.7447    3.6462    3.4087 C.3       1 RES1    0.0000
     14 H1        -1.1524    2.9121    2.8651 H         1 RES1    0.0000
     15 C3        -1.8464    4.5301    4.0024 C.3       1 RES1    0.0000
     16 H2        -1.4249    5.3325    4.4249 H         1 RES1    0.0000
     17 C4        -2.9126    5.0009    2.9951 C.3       1 RES1    0.0000
     18 H3        -2.4294    5.4679    2.2544 H         1 RES1    0.0000
     19 C5        -3.8526    6.0392    3.6452 C.3       1 RES1    0.0000
     20 H4        -4.6188    6.1898    3.0370 H         1 RES1    0.0000
     21 H5        -4.2110    5.6527    4.4831 H         1 RES1    0.0000
     22 C6        -3.2209    7.3938    3.9714 C.3       1 RES1    0.0000
     23 H6        -2.3527    7.2224    4.4371 H         1 RES1    0.0000
     24 C7        -2.9264    8.1953    2.7324 C.3       1 RES1    0.0000
     25 H7        -2.2469    7.7330    2.1989 H         1 RES1    0.0000
     26 H8        -2.5941    9.0810    2.9869 H         1 RES1    0.0000
     27 H9        -3.7464    8.2928    2.2043 H         1 RES1    0.0000
     28 C8        -4.0968    8.2019    4.9069 C.3       1 RES1    0.0000
     29 H10       -3.6546    9.0507    5.1181 H         1 RES1    0.0000
     30 H11       -4.2450    7.6970    5.7342 H         1 RES1    0.0000
     31 H12       -4.9579    8.3819    4.4750 H         1 RES1    0.0000
     32 C9        -3.6713    3.8480    2.3694 C.ar      1 RES1    0.0000
     33 C10       -3.3774    3.4265    1.0683 C.ar      1 RES1    0.0000
     34 H13       -2.7056    3.8783    0.5714 H         1 RES1    0.0000
     35 C11       -4.0500    2.3645    0.4934 C.ar      1 RES1    0.0000
     36 H14       -3.8489    2.1078   -0.3994 H         1 RES1    0.0000
     37 C12       -5.0077    1.6749    1.2003 C.ar      1 RES1    0.0000
     38 H15       -5.4469    0.9284    0.8097 H         1 RES1    0.0000
     39 C13       -5.3287    2.0803    2.4937 C.ar      1 RES1    0.0000
     40 H16       -5.9920    1.6123    2.9869 H         1 RES1    0.0000
     41 C14       -4.6817    3.1631    3.0587 C.ar      1 RES1    0.0000
     42 H17       -4.9261    3.4492    3.9307 H         1 RES1    0.0000
     43 C15       -2.5504    4.2430    6.2811 C.2       1 RES1    0.0000
     44 C16       -3.5120    3.4814    7.1388 C.ar      1 RES1    0.0000
     45 C17       -4.3031    2.4630    6.6116 C.ar      1 RES1    0.0000
     46 H18       -4.2001    2.1826    5.7098 H         1 RES1    0.0000
     47 C18       -5.2407    1.8729    7.4351 C.ar      1 RES1    0.0000
     48 C19       -5.4214    2.2281    8.7590 C.ar      1 RES1    0.0000
     49 H19       -6.0676    1.8009    9.3088 H         1 RES1    0.0000
     50 C20       -4.6134    3.2351    9.2361 C.ar      1 RES1    0.0000
     51 C21       -3.6645    3.8726    8.4663 C.ar      1 RES1    0.0000
     52 H20       -3.1272    4.5642    8.8335 H         1 RES1    0.0000
     53 C22        1.9875    4.5756    0.8977 C.3       1 RES1    0.0000
     54 H21        2.0534    5.5077    1.1942 H         1 RES1    0.0000
     55 H22        1.8347    4.5509   -0.0704 H         1 RES1    0.0000
     56 H23        2.8220    4.1066    1.1089 H         1 RES1    0.0000
     57 C23        0.3429    2.0595    0.3214 C.3       1 RES1    0.0000
     58 H24       -0.5946    2.3389    0.2667 H         1 RES1    0.0000
     59 H25        0.3958    1.0818    0.2843 H         1 RES1    0.0000
     60 H26        0.8421    2.4412   -0.4306 H         1 RES1    0.0000
     61 C24        0.1537    3.0475    4.5080 C.3       1 RES1    0.0000
     62 H27        0.8628    2.5113    4.0945 H         1 RES1    0.0000
     63 H28       -0.3853    2.4791    5.0965 H         1 RES1    0.0000
     64 H29        0.5553    3.7722    5.0315 H         1 RES1    0.0000
@<TRIPOS>BOND
     1    1   12 2
     2    2    9 1
     3    3   15 1
     4    4   43 2
     5    5   10 2
     6    6   10 2
     7    7   11 2
     8    8   11 2
     9    9   12 1
    10   10   47 1
    11   11   50 1
    12   12   13 1
    13   13   14 1
    14   15   13 1
    15   16   15 1
    16   17   15 1
    17   18   17 1
    18   19   17 1
    19   20   19 1
    20   21   19 1
    21   22   19 1
    22   23   22 1
    23   24   22 1
    24   25   24 1
    25   26   24 1
    26   27   24 1
    27   28   22 1
    28   29   28 1
    29   30   28 1
    30   31   28 1
    31   32   17 1
    32   33   32 ar
    33   34   33 1
    34   35   33 ar
    35   36   35 1
    36   37   35 ar
    37   38   37 1
    38   39   37 ar
    39   40   39 1
    40   41   32 ar
    41   42   41 1
    42   43    3 1
    43   44   43 1
    44   45   44 ar
    45   46   45 1
    46   47   45 ar
    47   48   47 ar
    48   49   48 1
    49   50   48 ar
    50   51   44 ar
    51   52   51 1
    52   53    9 1
    53   54   53 1
    54   55   53 1
    55   56   53 1
    56   57    2 1
    57   58   57 1
    58   59   57 1
    59   60   57 1
    60   61   13 1
    61   62   61 1
    62   63   61 1
    63   64   61 1
    64   39   41 ar
    65   50   51 ar
@<TRIPOS>SUBSTRUCTURE
     1 RES1 1

@<TRIPOS>CRYSIN
   9.3864    9.4732   13.9970  90.0000 104.6810  90.0000   4 1

