# MOL2 file generated by ConQuest
# Please check atom types

@<TRIPOS>MOLECULE
EKEMOW
    62    26     2
SMALL
NO_CHARGES
****
Generated from CSD

@<TRIPOS>ATOM
      1 C1         5.9805    2.3050   17.8497 C.2       1 RES1    0.0000
      2 C2         7.0500    2.6315   18.7282 C.2       1 RES1    0.0000
      3 H1         7.4299    1.9892   19.2841 H         1 RES1    0.0000
      4 C3         7.4905    3.9002   18.7270 C.2       1 RES1    0.0000
      5 H2         8.1911    4.1357   19.2903 H         1 RES1    0.0000
      6 C4         6.9167    4.8937   17.8867 C.2       1 RES1    0.0000
      7 H3         7.2424    5.7641   17.9270 H         1 RES1    0.0000
      8 C5         5.9048    4.6068   17.0256 C.2       1 RES1    0.0000
      9 H4         5.5426    5.2641   16.4768 H         1 RES1    0.0000
     10 C6         5.4219    3.2792   16.9892 C.2       1 RES1    0.0000
     11 C7         4.4550    2.6069   16.2936 C.2       1 RES1    0.0000
     12 C8         3.4968    2.9281   15.2493 C.ar      1 RES1    0.0000
     13 C9         3.5931    4.1068   14.5429 C.ar      1 RES1    0.0000
     14 H5         4.2703    4.7117   14.7441 H         1 RES1    0.0000
     15 C10        2.6859    4.3980   13.5355 C.ar      1 RES1    0.0000
     16 H6         2.7557    5.1999   13.0703 H         1 RES1    0.0000
     17 C11        1.6924    3.5223   13.2218 C.ar      1 RES1    0.0000
     18 H7         1.0932    3.7214   12.5393 H         1 RES1    0.0000
     19 C12        1.5772    2.3446   13.9159 C.ar      1 RES1    0.0000
     20 H8         0.8980    1.7451   13.7069 H         1 RES1    0.0000
     21 C13        2.4730    2.0513   14.9257 C.ar      1 RES1    0.0000
     22 H9         2.3865    1.2537   15.3962 H         1 RES1    0.0000
     23 N1         5.4233    1.1220   17.7224 N.2       1 RES1    0.0000
     24 O1         4.4402    1.3200   16.7243 O.3       1 RES1    0.0000
     25 C14       -3.1024    2.8778   21.9758 Du        2 SUP2    0.0000
     26 H10       -3.1936    3.7621   22.2496 Du        2 SUP2    0.0000
     27 C15       -2.0670    2.5255   21.1187 Du        2 SUP2    0.0000
     28 H11       -1.4548    3.1626   20.8274 Du        2 SUP2    0.0000
     29 C16       -1.9671    1.2398   20.7150 Du        2 SUP2    0.0000
     30 H12       -1.2711    0.9935   20.1504 Du        2 SUP2    0.0000
     31 C17       -2.8869    0.2719   21.1286 Du        2 SUP2    0.0000
     32 H13       -2.8094   -0.5995   20.8119 Du        2 SUP2    0.0000
     33 C18       -3.8936    0.5878   21.9860 Du        2 SUP2    0.0000
     34 H14       -4.4912   -0.0642   22.2714 Du        2 SUP2    0.0000
     35 C19       -4.0135    1.9142   22.4329 Du        2 SUP2    0.0000
     36 C20       -4.9972    2.4453   23.2899 Du        2 SUP2    0.0000
     37 N2        -3.5179    4.0726   22.4996 Du        2 SUP2    0.0000
     38 O2        -4.6263    3.7760   23.3551 Du        2 SUP2    0.0000
     39 C21        0.2632    1.5128   10.0457 Du        2 SUP2    0.0000
     40 C22       -0.7156    1.6733   11.0705 Du        2 SUP2    0.0000
     41 H15       -0.8200    1.0160   11.7195 Du        2 SUP2    0.0000
     42 C23       -1.4829    2.7846   11.0984 Du        2 SUP2    0.0000
     43 H16       -2.1340    2.8874   11.7505 Du        2 SUP2    0.0000
     44 C24       -1.2848    3.8017   10.1078 Du        2 SUP2    0.0000
     45 H17       -1.8277    4.5565   10.1327 Du        2 SUP2    0.0000
     46 C25       -0.3470    3.7118    9.1452 Du        2 SUP2    0.0000
     47 H18       -0.2324    4.3991    8.5272 Du        2 SUP2    0.0000
     48 C26        0.4557    2.5566    9.0924 Du        2 SUP2    0.0000
     49 C27        1.4561    2.0920    8.2695 Du        2 SUP2    0.0000
     50 C28        2.1530    2.5673    7.0677 Du        2 SUP2    0.0000
     51 C29        1.7324    3.6722    6.3597 Du        2 SUP2    0.0000
     52 H19        1.0245    4.1807    6.6827 Du        2 SUP2    0.0000
     53 C30        2.3551    4.0362    5.1673 Du        2 SUP2    0.0000
     54 H20        2.0136    4.7524    4.6735 Du        2 SUP2    0.0000
     55 C31        3.4639    3.3724    4.7077 Du        2 SUP2    0.0000
     56 H21        3.9212    3.6507    3.9500 Du        2 SUP2    0.0000
     57 C32        3.8578    2.2782    5.4002 Du        2 SUP2    0.0000
     58 H22        4.5682    1.7761    5.0710 Du        2 SUP2    0.0000
     59 C33        3.2559    1.8768    6.5740 Du        2 SUP2    0.0000
     60 H23        3.5860    1.1413    7.0367 Du        2 SUP2    0.0000
     61 N3         1.0909    0.5150    9.8873 Du        2 SUP2    0.0000
     62 O3         1.8359    0.8982    8.7474 Du        2 SUP2    0.0000
@<TRIPOS>BOND
     1    1    2 1
     2    2    3 1
     3    4    2 2
     4    5    4 1
     5    6    4 1
     6    7    6 1
     7    8    6 2
     8    9    8 1
     9   10    1 1
    10   11   10 2
    11   12   11 1
    12   13   12 ar
    13   14   13 1
    14   15   13 ar
    15   16   15 1
    16   17   15 ar
    17   18   17 1
    18   19   17 ar
    19   20   19 1
    20   21   12 ar
    21   22   21 1
    22   23    1 2
    23   24   11 1
    24    8   10 1
    25   19   21 ar
    26   23   24 1
@<TRIPOS>SUBSTRUCTURE
     1 RES1 1
     2 SUP2 25

