# MOL2 file generated by ConQuest
# Please check atom types

@<TRIPOS>MOLECULE
EKEMEM
    31    32     1
SMALL
NO_CHARGES
****
Generated from CSD

@<TRIPOS>ATOM
      1 O1         0.5797    4.1107    6.9703 O.3       1 RES1    0.0000
      2 O2         0.6560    5.3334    9.2778 O.2       1 RES1    0.0000
      3 O3         3.7683    2.5886    9.1362 O.2       1 RES1    0.0000
      4 O4         0.5270    0.6174    1.7575 O.2       1 RES1    0.0000
      5 O5        -1.1245    1.9654    1.3849 O.2       1 RES1    0.0000
      6 N1         2.5228    4.3252   10.0399 N.am      1 RES1    0.0000
      7 N2        -0.2004    1.5516    2.0877 N.pl3     1 RES1    0.0000
      8 C1         0.4624    3.4291    5.7902 C.ar      1 RES1    0.0000
      9 C2         1.3427    2.4394    5.3541 C.ar      1 RES1    0.0000
     10 H1         2.0831    2.1880    5.8943 H         1 RES1    0.0000
     11 C3         1.1324    1.8231    4.1259 C.ar      1 RES1    0.0000
     12 H2         1.7286    1.1537    3.8107 H         1 RES1    0.0000
     13 C4         0.0371    2.2039    3.3719 C.ar      1 RES1    0.0000
     14 C5        -0.8491    3.1878    3.7888 C.ar      1 RES1    0.0000
     15 H3        -1.5916    3.4299    3.2485 H         1 RES1    0.0000
     16 C6        -0.6329    3.8082    5.0025 C.ar      1 RES1    0.0000
     17 H4        -1.2236    4.4893    5.3029 H         1 RES1    0.0000
     18 C7         1.6587    3.7164    7.8139 C.3       1 RES1    0.0000
     19 H5         2.5253    3.8912    7.3688 H         1 RES1    0.0000
     20 H6         1.5990    2.7501    8.0198 H         1 RES1    0.0000
     21 C8         1.5459    4.5313    9.0804 C.2       1 RES1    0.0000
     22 C9         3.5264    3.3491   10.0511 C.2       1 RES1    0.0000
     23 C10        4.1848    3.4093   11.4051 C.3       1 RES1    0.0000
     24 H7         5.1656    3.2987   11.3254 H         1 RES1    0.0000
     25 H8         3.8302    2.7036   12.0017 H         1 RES1    0.0000
     26 C11        3.8359    4.7938   11.9347 C.3       1 RES1    0.0000
     27 H9         4.5111    5.4613   11.6553 H         1 RES1    0.0000
     28 H10        3.7741    4.7915   12.9230 H         1 RES1    0.0000
     29 C12        2.4757    5.0894   11.2998 C.3       1 RES1    0.0000
     30 H11        1.7357    4.7782   11.8787 H         1 RES1    0.0000
     31 H12        2.3658    6.0582   11.1262 H         1 RES1    0.0000
@<TRIPOS>BOND
     1    1    8 1
     2    2   21 2
     3    3   22 2
     4    4    7 2
     5    5    7 2
     6    6   21 1
     7    7   13 1
     8    8    9 ar
     9    9   10 1
    10   11    9 ar
    11   12   11 1
    12   13   11 ar
    13   14   13 ar
    14   15   14 1
    15   16    8 ar
    16   17   16 1
    17   18    1 1
    18   19   18 1
    19   20   18 1
    20   21   18 1
    21   22    6 1
    22   23   22 1
    23   24   23 1
    24   25   23 1
    25   26   23 1
    26   27   26 1
    27   28   26 1
    28   29    6 1
    29   30   29 1
    30   31   29 1
    31   14   16 ar
    32   26   29 1
@<TRIPOS>SUBSTRUCTURE
     1 RES1 1

@<TRIPOS>CRYSIN
   5.2813    8.7367   12.9843  80.4656  81.4302  83.8830   2 1

