# MOL2 file generated by ConQuest
# Please check atom types

@<TRIPOS>MOLECULE
EKIQOE
    15    14     2
SMALL
NO_CHARGES
****
Generated from CSD

@<TRIPOS>ATOM
      1 C1        -0.3060    1.6399    9.8394 C.2       1 RES1    0.0000
      2 C2        -0.4364    0.1887    9.7267 Du        2 SUP2    0.0000
      3 C3        -0.6035    0.9136   10.7140 C.2       1 RES1    0.0000
      4 C4        -1.7782    0.9022   11.6872 C.3       1 RES1    0.0000
      5 C5        -1.2528    0.6084   13.0652 C.2       1 RES1    0.0000
      6 C6        -1.4525   -0.3782   13.9328 C.2       1 RES1    0.0000
      7 C7        -0.7139   -0.1612   15.2087 C.3       1 RES1    0.0000
      8 C8         0.3395   -1.2261   15.4990 C.3       1 RES1    0.0000
      9 C9        -2.7585   -0.2071   11.3247 C.3       1 RES1    0.0000
     10 C10       -2.5158    2.2447   11.6872 C.3       1 RES1    0.0000
     11 C11       -1.6439    0.0604   16.4001 C.3       1 RES1    0.0000
     12 N1        -0.3272    1.5372   13.6917 N.pl3     1 RES1    0.0000
     13 N2        -0.0252    1.1191   14.8919 N.pl3     1 RES1    0.0000
     14 O1         0.1350    2.6037   13.1954 O.2       1 RES1    0.0000
     15 O2         0.7652    1.7534   15.6557 O.2       1 RES1    0.0000
@<TRIPOS>BOND
     1    1    3 2
     2    3    4 1
     3    4    5 1
     4    5    6 2
     5    6    7 1
     6    7    8 1
     7    9    4 1
     8   10    4 1
     9   11    7 1
    10   12    5 1
    11   13    7 1
    12   14   12 1
    13   15   13 1
    14   12   13 2
@<TRIPOS>SUBSTRUCTURE
     1 RES1 1
     2 SUP2 2

@<TRIPOS>CRYSIN
   5.9140    6.0480   17.7410  93.1900  94.5900 114.6400   2 1

