# MOL2 file generated by ConQuest
# Please check atom types

@<TRIPOS>MOLECULE
EKUHUP
    68    66     3
SMALL
USER_CHARGES
****
Generated from CSD

@<TRIPOS>ATOM
      1 C1         2.3352    1.2570    2.4794 C.ar      1 RES1    0.0000
      2 C2         1.0859    0.6726    2.5363 C.ar      1 RES1    0.0000
      3 H1         0.6441    0.4515    1.7499 H         1 RES1    0.0000
      4 C3         0.4828    0.4123    3.7632 C.ar      1 RES1    0.0000
      5 H2        -0.3562    0.0125    3.7931 H         1 RES1    0.0000
      6 C4         1.1296    0.7471    4.9345 C.ar      1 RES1    0.0000
      7 H3         0.7264    0.5788    5.7554 H         1 RES1    0.0000
      8 C5         2.3679    1.3283    4.8827 C.ar      1 RES1    0.0000
      9 H4         2.8074    1.5514    5.6719 H         1 RES1    0.0000
     10 C6         2.9657    1.5846    3.6730 C.ar      1 RES1    0.0000
     11 H5         3.8056    1.9832    3.6515 H         1 RES1    0.0000
     12 C7         2.9864    1.5332    1.1786 C.ar      1 RES1    0.0000
     13 N1         4.2660    1.5088    1.1455 N.ar      1 RES1    0.0000
     14 C8         4.4495    2.0499   -1.1531 C.ar      1 RES1    0.0000
     15 H6         4.9532    2.2386   -1.9117 H         1 RES1    0.0000
     16 C9         2.9955    2.0384   -1.1647 C.ar      1 RES1    0.0000
     17 C10        2.2775    1.7804    0.0015 C.ar      1 RES1    0.0000
     18 H7         1.3476    1.7730   -0.0051 H         1 RES1    0.0000
     19 C11        2.3348    2.3131   -2.4751 C.ar      1 RES1    0.0000
     20 C12        2.9795    2.0038   -3.6649 C.ar      1 RES1    0.0000
     21 H8         3.8222    1.6110   -3.6439 H         1 RES1    0.0000
     22 C13        2.3739    2.2757   -4.8840 C.ar      1 RES1    0.0000
     23 H9         2.8070    2.0586   -5.6770 H         1 RES1    0.0000
     24 C14        1.1323    2.8679   -4.9161 C.ar      1 RES1    0.0000
     25 H10        0.7321    3.0623   -5.7326 H         1 RES1    0.0000
     26 C15        0.4903    3.1685   -3.7584 C.ar      1 RES1    0.0000
     27 H11       -0.3534    3.5590   -3.7880 H         1 RES1    0.0000
     28 C16        1.0793    2.9014   -2.5259 C.ar      1 RES1    0.0000
     29 H12        0.6323    3.1161   -1.7398 H         1 RES1    0.0000
     30 N2         4.9892    1.7863   -0.0005 N.pl3     1 RES1    1.0000
     31 O1         6.2508    1.7783    0.0023 O.2       1 RES1   -1.0000
     32 C17        4.4514    1.5371    1.1506 Du        3 SUP3    0.0000
     33 H13        4.9595    1.3634    1.9092 Du        3 SUP3    0.0000
     34 N3         4.2637    2.0427   -1.1531 Du        3 SUP3    0.0000
     35 C18        0.4752    4.0377   15.1141 C.ar      2 RES2    0.0000
     36 C19       -0.0745    5.3085   15.1655 C.ar      2 RES2    0.0000
     37 H14       -0.2685    5.7599   14.3758 H         2 RES2    0.0000
     38 C20       -0.3376    5.9130   16.3881 C.ar      2 RES2    0.0000
     39 H15       -0.7178    6.7608   16.4164 H         2 RES2    0.0000
     40 C21       -0.0331    5.2520   17.5559 C.ar      2 RES2    0.0000
     41 H16       -0.1977    5.6648   18.3737 H         2 RES2    0.0000
     42 C22        0.5078    3.9974   17.5316 C.ar      2 RES2    0.0000
     43 H17        0.7043    3.5613   18.3281 H         2 RES2    0.0000
     44 C23        0.7629    3.3769   16.3249 C.ar      2 RES2    0.0000
     45 H18        1.1265    2.5211   16.3102 H         2 RES2    0.0000
     46 C24        0.7492    3.3725   13.8088 C.ar      2 RES2    0.0000
     47 C25        0.6722    1.9093   13.8422 C.ar      2 RES2    0.0000
     48 H19        0.4160    1.4127   14.5882 H         2 RES2    0.0000
     49 N4         1.3062    2.0790   11.5411 N.ar      2 RES2    0.0000
     50 C26        1.2693    3.3782   11.4789 C.ar      2 RES2    0.0000
     51 C27        1.0118    4.0835   12.6431 C.ar      2 RES2    0.0000
     52 H20        1.0142    5.0137   12.6436 H         2 RES2    0.0000
     53 C28        1.5482    4.0418   10.1758 C.ar      2 RES2    0.0000
     54 C29        1.2619    3.3700    8.9780 C.ar      2 RES2    0.0000
     55 H21        0.8962    2.5145    8.9946 H         2 RES2    0.0000
     56 C30        1.5297    3.9933    7.7627 C.ar      2 RES2    0.0000
     57 H22        1.3487    3.5484    6.9666 H         2 RES2    0.0000
     58 C31        2.0669    5.2777    7.7310 C.ar      2 RES2    0.0000
     59 H23        2.2324    5.6935    6.9160 H         2 RES2    0.0000
     60 C32        2.3499    5.9284    8.9011 C.ar      2 RES2    0.0000
     61 H24        2.7195    6.7814    8.8783 H         2 RES2    0.0000
     62 C33        2.0895    5.3225   10.1242 C.ar      2 RES2    0.0000
     63 H25        2.2780    5.7757   10.9139 H         2 RES2    0.0000
     64 N5         1.0145    1.3703   12.6461 N.pl3     2 RES2    1.0000
     65 O2         0.9988    0.0921   12.6451 O.2       2 RES2   -1.0000
     66 N6         0.7998    2.1156   13.7411 Du        3 SUP3    0.0000
     67 C34        1.2490    1.9145   11.4273 Du        3 SUP3    0.0000
     68 H26        1.3826    1.4198   10.6510 Du        3 SUP3    0.0000
@<TRIPOS>BOND
     1    1    2 ar
     2    2    3 1
     3    4    2 ar
     4    5    4 1
     5    6    4 ar
     6    7    6 1
     7    8    6 ar
     8    9    8 1
     9   10    1 ar
    10   11   10 1
    11   12    1 1
    12   13   12 ar
    13   14   15 1
    14   16   14 ar
    15   17   12 ar
    16   18   17 1
    17   19   16 1
    18   20   19 ar
    19   21   20 1
    20   22   20 ar
    21   23   22 1
    22   24   22 ar
    23   25   24 1
    24   26   24 ar
    25   27   26 1
    26   28   19 ar
    27   29   28 1
    28   30   13 ar
    29   31   30 1
    30   35   36 ar
    31   36   37 1
    32   38   36 ar
    33   39   38 1
    34   40   38 ar
    35   41   40 1
    36   42   40 ar
    37   43   42 1
    38   44   35 ar
    39   45   44 1
    40   46   35 1
    41   47   46 ar
    42   48   47 1
    43   49   50 ar
    44   50   51 ar
    45   51   46 ar
    46   52   51 1
    47   53   50 1
    48   54   53 ar
    49   55   54 1
    50   56   54 ar
    51   57   56 1
    52   58   56 ar
    53   59   58 1
    54   60   58 ar
    55   61   60 1
    56   62   53 ar
    57   63   62 1
    58   64   47 ar
    59   65   64 1
    60    8   10 ar
    61   14   30 ar
    62   16   17 ar
    63   26   28 ar
    64   42   44 ar
    65   49   64 ar
    66   60   62 ar
@<TRIPOS>SUBSTRUCTURE
     1 RES1 1
     2 RES2 35
     3 SUP3 32

@<TRIPOS>CRYSIN
   7.1450    7.1450   25.3820  93.5000  93.5000  90.0300   2 1

