# MOL2 file generated by ConQuest
# Please check atom types

@<TRIPOS>MOLECULE
EKUKEC
    38    38     2
SMALL
NO_CHARGES
****
Generated from CSD

@<TRIPOS>ATOM
      1 O1         1.7376    2.1848    1.5841 O.3       1 RES1    0.0000
      2 O2         2.9986    0.4616    2.4049 O.2       1 RES1    0.0000
      3 O3         3.7012    1.8512    0.7614 O.3       1 RES1    0.0000
      4 N1         0.7837    1.7290    2.4657 N.pl3     1 RES1    0.0000
      5 N2         0.7262    2.1898    3.7395 N.2       1 RES1    0.0000
      6 N3        -0.2513    1.5323    4.2559 N.2       1 RES1    0.0000
      7 N4        -0.8304    0.6673    3.3726 N.2       1 RES1    0.0000
      8 N5        -0.3417    0.1713    1.0769 N.3       1 RES1    0.0000
      9 C1        -0.1479    0.7985    2.2371 C.2       1 RES1    0.0000
     10 C2         2.8922    1.3781    1.6658 C.2       1 RES1    0.0000
     11 C3         4.9778    1.1223    0.6141 C.3       1 RES1    0.0000
     12 H1         5.6003    1.3970    1.3050 H         1 RES1    0.0000
     13 H2         4.8285    0.1681    0.6964 H         1 RES1    0.0000
     14 C4         5.5236    1.4363   -0.7128 C.3       1 RES1    0.0000
     15 H3         4.9320    1.0994   -1.3905 H         1 RES1    0.0000
     16 H4         6.3865    1.0281   -0.8093 H         1 RES1    0.0000
     17 H5         5.6075    2.3882   -0.8071 H         1 RES1    0.0000
     18 H6        -0.8383   -0.4345    1.0637 H         1 RES1    0.0000
     19 H7         0.2271    0.2541    0.4716 H         1 RES1    0.0000
     20 O4         6.2043    3.6195    4.3707 O.3       2 RES2    0.0000
     21 O5         4.1235    3.2596    3.5125 O.2       2 RES2    0.0000
     22 O6         4.9055    2.2734    5.4001 O.3       2 RES2    0.0000
     23 N6         6.4542    4.3287    3.2208 N.pl3     2 RES2    0.0000
     24 N7         6.9731    3.7073    2.1362 N.2       2 RES2    0.0000
     25 N8         7.2414    4.6698    1.3236 N.2       2 RES2    0.0000
     26 N9         6.9300    5.8970    1.8501 N.2       2 RES2    0.0000
     27 N10        5.9565    6.5480    3.9413 N.3       2 RES2    0.0000
     28 C5         6.4360    5.6609    3.0706 C.2       2 RES2    0.0000
     29 C6         4.9276    3.0383    4.3459 C.2       2 RES2    0.0000
     30 C7         3.6461    1.5577    5.6805 C.3       2 RES2    0.0000
     31 H8         2.9530    1.8791    5.0829 H         2 RES2    0.0000
     32 H9         3.7696    0.6100    5.5149 H         2 RES2    0.0000
     33 C8         3.2538    1.7446    6.9680 C.3       2 RES2    0.0000
     34 H10        4.0122    1.6520    7.5503 H         2 RES2    0.0000
     35 H11        2.5916    1.0896    7.1994 H         2 RES2    0.0000
     36 H12        2.8812    2.6243    7.0656 H         2 RES2    0.0000
     37 H13        5.8666    6.2307    4.7155 H         2 RES2    0.0000
     38 H14        6.4068    7.4277    3.8601 H         2 RES2    0.0000
@<TRIPOS>BOND
     1    1    4 1
     2    2   10 2
     3    3   10 1
     4    4    5 1
     5    5    6 2
     6    6    7 1
     7    7    9 2
     8    8    9 1
     9    9    4 1
    10   10    1 1
    11   11    3 1
    12   12   11 1
    13   13   11 1
    14   14   11 1
    15   15   14 1
    16   16   14 1
    17   17   14 1
    18   18    8 1
    19   19    8 1
    20   20   23 1
    21   21   29 2
    22   22   29 1
    23   23   24 1
    24   24   25 2
    25   25   26 1
    26   26   28 2
    27   27   28 1
    28   28   23 1
    29   29   20 1
    30   30   22 1
    31   31   30 1
    32   32   30 1
    33   33   30 1
    34   34   33 1
    35   35   33 1
    36   36   33 1
    37   37   27 1
    38   38   27 1
@<TRIPOS>SUBSTRUCTURE
     1 RES1 1
     2 RES2 20

@<TRIPOS>CRYSIN
   8.6849    8.1983   11.6084  90.0000 109.1460  90.0000   4 1

