# MOL2 file generated by ConQuest
# Please check atom types

@<TRIPOS>MOLECULE
EKUMOM
    38    37     2
SMALL
NO_CHARGES
****
Generated from CSD

@<TRIPOS>ATOM
      1 O1         8.8587    7.1019    6.8986 O.2       1 RES1    0.0000
      2 O2        10.2379    5.6080    6.2254 O.2       1 RES1    0.0000
      3 O3         5.2253    5.0062   -1.1153 O.2       1 RES1    0.0000
      4 O4         4.8936    3.0381   -0.3303 O.2       1 RES1    0.0000
      5 N1         9.1863    6.2156    6.1380 N.pl3     1 RES1    0.0000
      6 N2         8.0963    3.3677    2.3679 N.pl3     1 RES1    0.0000
      7 N3         5.7955    4.8626    1.8375 N.2       1 RES1    0.0000
      8 N4         4.5967    5.1506    1.9401 N.2       1 RES1    0.0000
      9 N5         4.7004    4.2390   -0.3352 N.pl3     1 RES1    0.0000
     10 C1         7.7433    4.5116    3.2082 C.ar      1 RES1    0.0000
     11 C2         8.6158    4.8316    4.2234 C.ar      1 RES1    0.0000
     12 H1         9.4068    4.3595    4.3488 H         1 RES1    0.0000
     13 C3         8.2701    5.8723    5.0401 C.ar      1 RES1    0.0000
     14 C4         7.1147    6.5960    4.8663 C.ar      1 RES1    0.0000
     15 H2         6.9031    7.2920    5.4453 H         1 RES1    0.0000
     16 C5         6.2745    6.2768    3.8224 C.ar      1 RES1    0.0000
     17 H3         5.5067    6.7798    3.6764 H         1 RES1    0.0000
     18 C6         6.5681    5.2097    2.9896 C.ar      1 RES1    0.0000
     19 C7         3.7805    4.8341    0.7533 C.3       1 RES1    0.0000
     20 C8         2.7461    3.8008    1.1699 C.3       1 RES1    0.0000
     21 H4         2.2945    4.1067    1.9719 H         1 RES1    0.0000
     22 H5         3.1943    2.9663    1.3789 H         1 RES1    0.0000
     23 C9         1.7156    3.5555    0.0784 C.3       1 RES1    0.0000
     24 H6         2.1449    3.1305   -0.6804 H         1 RES1    0.0000
     25 H7         1.0307    2.9546    0.4111 H         1 RES1    0.0000
     26 C10        1.0707    4.8548   -0.3699 C.3       1 RES1    0.0000
     27 H8         0.4460    4.6749   -1.0895 H         1 RES1    0.0000
     28 H9         0.5744    5.2406    0.3688 H         1 RES1    0.0000
     29 C11        2.1177    5.8440   -0.8462 C.3       1 RES1    0.0000
     30 H10        1.6863    6.6755   -1.0995 H         1 RES1    0.0000
     31 H11        2.5674    5.4882   -1.6282 H         1 RES1    0.0000
     32 C12        3.1440    6.1152    0.2563 C.3       1 RES1    0.0000
     33 H12        3.8341    6.7042   -0.0864 H         1 RES1    0.0000
     34 H13        2.7076    6.5647    0.9970 H         1 RES1    0.0000
     35 O5         9.2164    3.0719    2.1206 O.2       1 RES1    0.0000
     36 O6         7.1851    2.6444    2.0483 O.2       1 RES1    0.0000
     37 O7         8.8699    3.7118    1.4945 Du        2 SUP2    0.0000
     38 O8         7.6157    2.2769    2.4362 Du        2 SUP2    0.0000
@<TRIPOS>BOND
     1    1    5 2
     2    2    5 2
     3    3    9 2
     4    4    9 2
     5    5   13 1
     6    6   10 1
     7    7    8 2
     8    8   19 1
     9    9   19 1
    10   10   11 ar
    11   11   12 1
    12   13   11 ar
    13   14   13 ar
    14   15   14 1
    15   16   14 ar
    16   17   16 1
    17   18    7 1
    18   19   20 1
    19   20   21 1
    20   22   20 1
    21   23   20 1
    22   24   23 1
    23   25   23 1
    24   26   23 1
    25   27   26 1
    26   28   26 1
    27   29   26 1
    28   30   29 1
    29   31   29 1
    30   32   19 1
    31   33   32 1
    32   34   32 1
    33   35    6 2
    34   36    6 2
    35   10   18 ar
    36   16   18 ar
    37   29   32 1
@<TRIPOS>SUBSTRUCTURE
     1 RES1 1
     2 SUP2 37

@<TRIPOS>CRYSIN
  11.2820   13.0330   10.1620  90.0000  98.5000  90.0000  14 1

