# MOL2 file generated by ConQuest
# Please check atom types

@<TRIPOS>MOLECULE
EKUWEN
    50    53     1
SMALL
NO_CHARGES
****
Generated from CSD

@<TRIPOS>ATOM
      1 C1         3.7943    9.7157    4.5564 C.ar      1 RES1    0.0000
      2 C2         4.7693    9.0104    5.2242 C.ar      1 RES1    0.0000
      3 H1         4.6290    8.7098    6.1137 H         1 RES1    0.0000
      4 C3         5.9606    8.7490    4.5664 C.ar      1 RES1    0.0000
      5 H2         6.6527    8.2771    5.0134 H         1 RES1    0.0000
      6 C4         6.1485    9.1731    3.2579 C.ar      1 RES1    0.0000
      7 C5         5.1342    9.8657    2.6079 C.ar      1 RES1    0.0000
      8 H3         5.2576   10.1450    1.7091 H         1 RES1    0.0000
      9 C6         3.9484   10.1525    3.2552 C.ar      1 RES1    0.0000
     10 H4         3.2575   10.6362    2.8180 H         1 RES1    0.0000
     11 C7         7.4354    8.9273    2.5595 C.2       1 RES1    0.0000
     12 C8         8.6281    9.4953    2.8811 C.2       1 RES1    0.0000
     13 C9         9.0789   10.4037    3.9328 C.ar      1 RES1    0.0000
     14 C10        8.2018   11.3294    4.5047 C.ar      1 RES1    0.0000
     15 H5         7.3111   11.4002    4.1822 H         1 RES1    0.0000
     16 C11        8.6277   12.1421    5.5394 C.ar      1 RES1    0.0000
     17 H6         8.0222   12.7608    5.9309 H         1 RES1    0.0000
     18 C12        9.9207   12.0642    6.0071 C.ar      1 RES1    0.0000
     19 H7        10.2039   12.6210    6.7225 H         1 RES1    0.0000
     20 C13       10.8046   11.1713    5.4303 C.ar      1 RES1    0.0000
     21 H8        11.7012   11.1264    5.7412 H         1 RES1    0.0000
     22 C14       10.3920   10.3458    4.4051 C.ar      1 RES1    0.0000
     23 H9        11.0061    9.7333    4.0183 H         1 RES1    0.0000
     24 C15        9.0055    8.2212    1.1027 C.2       1 RES1    0.0000
     25 C16        9.9141    7.6815    0.0836 C.ar      1 RES1    0.0000
     26 C17       10.8407    8.5328   -0.5184 C.ar      1 RES1    0.0000
     27 H10       10.8550    9.4547   -0.2897 H         1 RES1    0.0000
     28 C18       11.7366    8.0415   -1.4452 C.ar      1 RES1    0.0000
     29 H11       12.3668    8.6265   -1.8488 H         1 RES1    0.0000
     30 C19       11.7226    6.7117   -1.7867 C.ar      1 RES1    0.0000
     31 H12       12.3380    6.3785   -2.4300 H         1 RES1    0.0000
     32 C20       10.8085    5.8579   -1.1914 C.ar      1 RES1    0.0000
     33 H13       10.8008    4.9366   -1.4245 H         1 RES1    0.0000
     34 C21        9.9113    6.3369   -0.2635 C.ar      1 RES1    0.0000
     35 H14        9.2874    5.7456    0.1414 H         1 RES1    0.0000
     36 C22        7.6773    8.0956    1.4061 C.2       1 RES1    0.0000
     37 C23        6.7140    7.2578    0.6702 C.2       1 RES1    0.0000
     38 C24        4.5182    6.3422    0.7216 C.3       1 RES1    0.0000
     39 H15        3.9157    5.9601    1.4090 H         1 RES1    0.0000
     40 H16        4.9038    5.5934    0.2018 H         1 RES1    0.0000
     41 C25        3.7290    7.2308   -0.1949 C.3       1 RES1    0.0000
     42 H17        3.0192    6.7088   -0.6243 H         1 RES1    0.0000
     43 H18        4.3230    7.6021   -0.8813 H         1 RES1    0.0000
     44 H19        3.3296    7.9611    0.3225 H         1 RES1    0.0000
     45 N1         2.5356   10.0171    5.2414 N.pl3     1 RES1    0.0000
     46 O1         2.3671    9.5868    6.3676 O.2       1 RES1    0.0000
     47 O2         1.7204   10.7137    4.6632 O.2       1 RES1    0.0000
     48 O3         9.5949    9.0689    1.9957 O.3       1 RES1    0.0000
     49 O4         6.9019    6.7895   -0.4208 O.2       1 RES1    0.0000
     50 O5         5.5892    7.0823    1.3733 O.3       1 RES1    0.0000
@<TRIPOS>BOND
     1    1    2 ar
     2    2    3 1
     3    4    2 ar
     4    5    4 1
     5    6    4 ar
     6    7    6 ar
     7    8    7 1
     8    9    1 ar
     9   10    9 1
    10   11    6 1
    11   12   11 2
    12   13   12 1
    13   14   13 ar
    14   15   14 1
    15   16   14 ar
    16   17   16 1
    17   18   16 ar
    18   19   18 1
    19   20   18 ar
    20   21   20 1
    21   22   13 ar
    22   23   22 1
    23   24   25 1
    24   25   26 ar
    25   26   27 1
    26   28   26 ar
    27   29   28 1
    28   30   28 ar
    29   31   30 1
    30   32   30 ar
    31   33   32 1
    32   34   25 ar
    33   35   34 1
    34   36   11 1
    35   37   36 1
    36   38   39 1
    37   40   38 1
    38   41   38 1
    39   42   41 1
    40   43   41 1
    41   44   41 1
    42   45    1 1
    43   46   45 2
    44   47   45 2
    45   48   12 1
    46   49   37 2
    47   50   37 1
    48    7    9 ar
    49   20   22 ar
    50   24   36 2
    51   24   48 1
    52   32   34 ar
    53   38   50 1
@<TRIPOS>SUBSTRUCTURE
     1 RES1 1

@<TRIPOS>CRYSIN
  12.2495    9.5744   17.7160  90.0000 103.2270  90.0000  14 1

