# MOL2 file generated by ConQuest
# Please check atom types

@<TRIPOS>MOLECULE
ELAQUF
    26    26     1
SMALL
NO_CHARGES
****
Generated from CSD

@<TRIPOS>ATOM
      1 O1         1.9698    6.4592    9.3996 O.3       1 RES1    0.0000
      2 H1         2.3242    7.0602    9.8305 H         1 RES1    0.0000
      3 O2         4.4567    4.0312    8.9630 O.2       1 RES1    0.0000
      4 N1         2.9574    5.6839    8.7796 N.am      1 RES1    0.0000
      5 C1         3.6396    4.7956    9.5078 C.2       1 RES1    0.0000
      6 C2         3.4099    4.8087   10.9869 C.3       1 RES1    0.0000
      7 H2         3.7213    3.9833   11.3665 H         1 RES1    0.0000
      8 H3         2.4717    4.9088   11.1641 H         1 RES1    0.0000
      9 H4         3.8897    5.5422   11.3783 H         1 RES1    0.0000
     10 C3         2.8747    5.6821    7.3314 C.3       1 RES1    0.0000
     11 H5         3.5993    5.1460    6.9728 H         1 RES1    0.0000
     12 H6         2.9872    6.5892    7.0057 H         1 RES1    0.0000
     13 C4         1.5426    5.1282    6.8207 C.3       1 RES1    0.0000
     14 H7         0.8258    5.7061    7.1239 H         1 RES1    0.0000
     15 H8         1.5457    5.1468    5.8508 H         1 RES1    0.0000
     16 C5         1.2613    3.7219    7.2790 C.ar      1 RES1    0.0000
     17 C6         1.5048    2.6287    6.4536 C.ar      1 RES1    0.0000
     18 H9         1.8600    2.7623    5.6051 H         1 RES1    0.0000
     19 C7         1.2221    1.3397    6.8869 C.ar      1 RES1    0.0000
     20 H10        1.3814    0.6184    6.3224 H         1 RES1    0.0000
     21 C8         0.7067    1.1191    8.1503 C.ar      1 RES1    0.0000
     22 H11        0.5210    0.2538    8.4365 H         1 RES1    0.0000
     23 C9         0.4694    2.1964    8.9844 C.ar      1 RES1    0.0000
     24 H12        0.1284    2.0557    9.8384 H         1 RES1    0.0000
     25 C10        0.7388    3.4861    8.5503 C.ar      1 RES1    0.0000
     26 H13        0.5682    4.2047    9.1158 H         1 RES1    0.0000
@<TRIPOS>BOND
     1    1    2 1
     2    3    5 2
     3    4    1 1
     4    5    4 1
     5    6    5 1
     6    7    6 1
     7    8    6 1
     8    9    6 1
     9   10    4 1
    10   11   10 1
    11   12   10 1
    12   13   10 1
    13   14   13 1
    14   15   13 1
    15   16   13 1
    16   17   16 ar
    17   18   17 1
    18   19   17 ar
    19   20   19 1
    20   21   19 ar
    21   22   21 1
    22   23   21 ar
    23   24   23 1
    24   25   16 ar
    25   26   25 1
    26   23   25 ar
@<TRIPOS>SUBSTRUCTURE
     1 RES1 1

@<TRIPOS>CRYSIN
   8.6640    8.3228   13.1502  90.0000  92.3740  90.0000  14 1

