# MOL2 file generated by ConQuest
# Please check atom types

@<TRIPOS>MOLECULE
ELARIU
    46    46     2
SMALL
NO_CHARGES
****
Generated from CSD

@<TRIPOS>ATOM
      1 O1         7.6139    4.7772    8.9331 O.3       1 RES1    0.0000
      2 H1         8.0129    4.2012    8.5061 H         1 RES1    0.0000
      3 O2         8.1784    5.6087   11.4690 O.2       1 RES1    0.0000
      4 N1         7.0697    4.2110   10.0793 N.am      1 RES1    0.0000
      5 H2         6.5247    3.5504   10.0051 H         1 RES1    0.0000
      6 C1         7.3675    4.6590   11.2566 C.2       1 RES1    0.0000
      7 C2         6.6364    3.9922   12.3938 C.3       1 RES1    0.0000
      8 H3         6.1695    3.2128   12.0531 H         1 RES1    0.0000
      9 H4         5.9704    4.6059   12.7421 H         1 RES1    0.0000
     10 C3         7.5503    3.5612   13.5295 C.3       1 RES1    0.0000
     11 H5         8.1811    2.9047   13.1963 H         1 RES1    0.0000
     12 H6         8.0570    4.3297   13.8361 H         1 RES1    0.0000
     13 C4         6.8027    2.9718   14.6954 C.ar      1 RES1    0.0000
     14 C5         5.9411    1.8936   14.5095 C.ar      1 RES1    0.0000
     15 H7         5.8162    1.5437   13.6582 H         1 RES1    0.0000
     16 C6         5.2774    1.3460   15.5717 C.ar      1 RES1    0.0000
     17 H8         4.7140    0.6204   15.4260 H         1 RES1    0.0000
     18 C7         5.4135    1.8255   16.8244 C.ar      1 RES1    0.0000
     19 H9         4.9459    1.4441   17.5308 H         1 RES1    0.0000
     20 C8         6.2527    2.8820   17.0314 C.ar      1 RES1    0.0000
     21 H10        6.3673    3.2242   17.8904 H         1 RES1    0.0000
     22 C9         6.9379    3.4492   15.9571 C.ar      1 RES1    0.0000
     23 H11        7.5013    4.1733   16.1112 H         1 RES1    0.0000
     24 O3         5.2705    2.0397    9.6610 O.3       2 RES2    0.0000
     25 H12        4.8235    1.4952   10.0808 H         2 RES2    0.0000
     26 O4         4.4534    3.2820    7.4635 O.2       2 RES2    0.0000
     27 N2         5.5324    1.5468    8.4005 N.am      2 RES2    0.0000
     28 H13        5.9258    0.7891    8.2979 H         2 RES2    0.0000
     29 C10        5.1659    2.2637    7.3583 C.2       2 RES2    0.0000
     30 C11        5.6110    1.7770    6.0107 C.3       2 RES2    0.0000
     31 H14        4.8525    1.3997    5.5382 H         2 RES2    0.0000
     32 H15        6.2742    1.0777    6.1212 H         2 RES2    0.0000
     33 C12        6.2037    2.9109    5.1945 C.3       2 RES2    0.0000
     34 H16        5.5911    3.6619    5.2354 H         2 RES2    0.0000
     35 H17        7.0278    3.1896    5.6215 H         2 RES2    0.0000
     36 C13        6.5037    2.6348    3.7473 C.ar      2 RES2    0.0000
     37 C14        5.9396    1.5664    3.0405 C.ar      2 RES2    0.0000
     38 H18        5.4093    0.9476    3.4903 H         2 RES2    0.0000
     39 C15        6.1626    1.4214    1.6872 C.ar      2 RES2    0.0000
     40 H19        5.7702    0.7143    1.2265 H         2 RES2    0.0000
     41 C16        6.9714    2.3277    1.0032 C.ar      2 RES2    0.0000
     42 H20        7.1188    2.2327    0.0909 H         2 RES2    0.0000
     43 C17        7.5477    3.3630    1.6982 C.ar      2 RES2    0.0000
     44 H21        8.0951    3.9669    1.2530 H         2 RES2    0.0000
     45 C18        7.3247    3.5168    3.0447 C.ar      2 RES2    0.0000
     46 H22        7.7292    4.2224    3.4978 H         2 RES2    0.0000
@<TRIPOS>BOND
     1    1    2 1
     2    3    6 2
     3    4    1 1
     4    5    4 1
     5    6    4 1
     6    7    6 1
     7    8    7 1
     8    9    7 1
     9   10    7 1
    10   11   10 1
    11   12   10 1
    12   13   10 1
    13   14   13 ar
    14   15   14 1
    15   16   14 ar
    16   17   16 1
    17   18   16 ar
    18   19   18 1
    19   20   18 ar
    20   21   20 1
    21   22   13 ar
    22   23   22 1
    23   24   25 1
    24   26   29 2
    25   27   24 1
    26   28   27 1
    27   29   27 1
    28   30   29 1
    29   31   30 1
    30   32   30 1
    31   33   30 1
    32   34   33 1
    33   35   33 1
    34   36   33 1
    35   37   36 ar
    36   38   37 1
    37   39   37 ar
    38   40   39 1
    39   41   39 ar
    40   42   41 1
    41   43   41 ar
    42   44   43 1
    43   45   36 ar
    44   46   45 1
    45   20   22 ar
    46   43   45 ar
@<TRIPOS>SUBSTRUCTURE
     1 RES1 1
     2 RES2 24

@<TRIPOS>CRYSIN
   8.5765    5.1612   37.8560  90.0000  90.3650  90.0000  14 1

