# MOL2 file generated by ConQuest
# Please check atom types

@<TRIPOS>MOLECULE
ELATOC
    48    50     2
SMALL
NO_CHARGES
****
Generated from CSD

@<TRIPOS>ATOM
      1 C1         6.0217    5.6911   15.4813 C.ar      1 RES1    0.0000
      2 C2         5.4008    5.3939   14.2665 C.ar      1 RES1    0.0000
      3 H1         4.9307    4.5973   14.1746 H         1 RES1    0.0000
      4 C3         5.4779    6.2690   13.2029 C.ar      1 RES1    0.0000
      5 H2         5.0665    6.0550   12.3956 H         1 RES1    0.0000
      6 C4         6.1620    7.4592   13.3299 C.ar      1 RES1    0.0000
      7 H3         6.2128    8.0489   12.6117 H         1 RES1    0.0000
      8 C5         6.7712    7.7719   14.5320 C.ar      1 RES1    0.0000
      9 H4         7.2341    8.5739   14.6223 H         1 RES1    0.0000
     10 C6         6.6972    6.9021   15.5994 C.ar      1 RES1    0.0000
     11 H5         7.1030    7.1269   16.4052 H         1 RES1    0.0000
     12 C7         6.0204    4.6644   16.5920 C.3       1 RES1    0.0000
     13 H6         6.8582    4.1770   16.5634 H         1 RES1    0.0000
     14 H7         5.3066    4.0289   16.4245 H         1 RES1    0.0000
     15 C8         5.8413    5.2352   17.9902 C.3       1 RES1    0.0000
     16 H8         6.5161    5.9141   18.1457 H         1 RES1    0.0000
     17 H9         4.9708    5.6585   18.0531 H         1 RES1    0.0000
     18 C9         5.9521    4.1835   19.0352 C.2       1 RES1    0.0000
     19 C10        5.5349    2.3328   20.1443 C.2       1 RES1    0.0000
     20 N1         5.2621    3.0064   19.0082 N.am      1 RES1    0.0000
     21 H10        4.7429    2.7406   18.3772 H         1 RES1    0.0000
     22 N2         6.7023    4.2852   20.0807 N.2       1 RES1    0.0000
     23 O1         6.4403    3.0748   20.8247 O.3       1 RES1    0.0000
     24 O2         5.0980    1.2788   20.5445 O.2       1 RES1    0.0000
     25 C11        5.0037    0.8466   27.0811 C.ar      2 RES2    0.0000
     26 C12        4.5892   -0.1034   27.9988 C.ar      2 RES2    0.0000
     27 H11        5.0266   -0.9227   28.0444 H         2 RES2    0.0000
     28 C13        3.5229    0.1564   28.8544 C.ar      2 RES2    0.0000
     29 H12        3.2569   -0.4863   29.4723 H         2 RES2    0.0000
     30 C14        2.8608    1.3632   28.7900 C.ar      2 RES2    0.0000
     31 H13        2.1462    1.5356   29.3604 H         2 RES2    0.0000
     32 C15        3.2624    2.3132   27.8761 C.ar      2 RES2    0.0000
     33 H14        2.8163    3.1283   27.8283 H         2 RES2    0.0000
     34 C16        4.3310    2.0588   27.0244 C.ar      2 RES2    0.0000
     35 H15        4.5970    2.7062   26.4120 H         2 RES2    0.0000
     36 C17        6.2141    0.6034   26.2016 C.3       2 RES2    0.0000
     37 H16        6.5305   -0.3002   26.3579 H         2 RES2    0.0000
     38 H17        6.9195    1.2110   26.4737 H         2 RES2    0.0000
     39 C18        5.9688    0.7824   24.6993 C.3       2 RES2    0.0000
     40 H18        5.4725    1.6040   24.5596 H         2 RES2    0.0000
     41 H19        6.8248    0.8763   24.2508 H         2 RES2    0.0000
     42 C19        5.2229   -0.3389   24.0714 C.2       2 RES2    0.0000
     43 C20        4.1837   -1.4880   22.5123 C.2       2 RES2    0.0000
     44 N3         4.8248   -0.3329   22.7616 N.am      2 RES2    0.0000
     45 H20        4.9621    0.3002   22.1978 H         2 RES2    0.0000
     46 N4         4.8813   -1.4191   24.6727 N.2       2 RES2    0.0000
     47 O3         4.1967   -2.1967   23.6646 O.3       2 RES2    0.0000
     48 O4         3.6702   -1.8881   21.4869 O.2       2 RES2    0.0000
@<TRIPOS>BOND
     1    1    2 ar
     2    2    3 1
     3    4    2 ar
     4    5    4 1
     5    6    4 ar
     6    7    6 1
     7    8    6 ar
     8    9    8 1
     9   10    1 ar
    10   11   10 1
    11   12    1 1
    12   13   12 1
    13   14   12 1
    14   15   12 1
    15   16   15 1
    16   17   15 1
    17   18   15 1
    18   19   20 1
    19   20   18 1
    20   21   20 1
    21   22   18 2
    22   23   19 1
    23   24   19 2
    24   25   26 ar
    25   26   27 1
    26   28   26 ar
    27   29   28 1
    28   30   28 ar
    29   31   30 1
    30   32   30 ar
    31   33   32 1
    32   34   25 ar
    33   35   34 1
    34   36   25 1
    35   37   36 1
    36   38   36 1
    37   39   36 1
    38   40   39 1
    39   41   39 1
    40   42   39 1
    41   43   44 1
    42   44   42 1
    43   45   44 1
    44   46   42 2
    45   47   43 1
    46   48   43 2
    47    8   10 ar
    48   22   23 1
    49   32   34 ar
    50   46   47 1
@<TRIPOS>SUBSTRUCTURE
     1 RES1 1
     2 RES2 25

@<TRIPOS>CRYSIN
   7.9823    5.9450   38.5980  90.0000  91.0580  90.0000 231 1

