# MOL2 file generated by ConQuest
# Please check atom types

@<TRIPOS>MOLECULE
ELEJUB
    76    78     2
SMALL
USER_CHARGES
****
Generated from CSD

@<TRIPOS>ATOM
      1 H1         2.8962    7.1193    5.4993 H         1 RES1    0.0000
      2 H2         6.5498   14.7787    8.9636 H         2 RES2    0.0000
      3 H3         3.4642    6.3859    8.5639 H         1 RES1    0.0000
      4 H4         6.8422   14.9871    6.1776 H         2 RES2    0.0000
      5 C1         7.0761   16.3777   10.7139 C.ar      2 RES2    0.0000
      6 C2         7.5954   17.3720   11.6127 C.ar      2 RES2    0.0000
      7 H5         8.4418   17.7253   11.4589 H         2 RES2    0.0000
      8 C3         6.8790   17.8072   12.6811 C.ar      2 RES2    0.0000
      9 H6         7.2411   18.4488   13.2480 H         2 RES2    0.0000
     10 C4         5.5937   17.2963   12.9354 C.ar      2 RES2    0.0000
     11 C5         5.0407   16.3513   12.1178 C.ar      2 RES2    0.0000
     12 H7         4.1917   16.0188   12.2995 H         2 RES2    0.0000
     13 C6         5.7529   15.8839   11.0059 C.ar      2 RES2    0.0000
     14 C7         5.1468   14.9040   10.1555 C.2       2 RES2    0.0000
     15 H8         4.2975   14.5902   10.3663 H         2 RES2    0.0000
     16 C8         5.2428   13.4256    8.1775 C.3       2 RES2    0.0000
     17 H9         4.2954   13.2475    8.3531 H         2 RES2    0.0000
     18 C9         5.4090   14.0244    6.7736 C.3       2 RES2    0.0000
     19 H10        4.8343   14.8132    6.6876 H         2 RES2    0.0000
     20 C10        5.0540   13.0260    5.6907 C.ar      2 RES2    0.0000
     21 C11        6.0472   12.2345    5.1262 C.ar      2 RES2    0.0000
     22 H11        6.9281   12.3185    5.4121 H         2 RES2    0.0000
     23 C12        5.7238   11.3159    4.1329 C.ar      2 RES2    0.0000
     24 H12        6.3881   10.7866    3.7550 H         2 RES2    0.0000
     25 C13        4.4072   11.1896    3.7066 C.ar      2 RES2    0.0000
     26 H13        4.1910   10.5753    3.0416 H         2 RES2    0.0000
     27 C14        3.4140   11.9812    4.2710 C.ar      2 RES2    0.0000
     28 H14        2.5331   11.8971    3.9852 H         2 RES2    0.0000
     29 C15        3.7377   12.8988    5.2631 C.ar      2 RES2    0.0000
     30 H15        3.0731   13.4291    5.6422 H         2 RES2    0.0000
     31 C16        6.0435   12.1663    8.3761 C.3       2 RES2    0.0000
     32 H16        6.0462   11.9321    9.3076 H         2 RES2    0.0000
     33 H17        6.9452   12.3103    8.0794 H         2 RES2    0.0000
     34 H18        5.6495   11.4536    7.8686 H         2 RES2    0.0000
     35 N1         4.8570   17.7857   14.0741 N.pl3     2 RES2    0.0000
     36 N2         5.7370   14.4445    9.1090 N.pl3     2 RES2    1.0000
     37 O1         7.7495   15.9589    9.7243 O.2       2 RES2   -1.0000
     38 O2         6.7682   14.4246    6.7057 O.3       2 RES2    0.0000
     39 O3         3.7183   17.3730   14.2655 O.2       2 RES2    0.0000
     40 O4         5.4015   18.5596   14.8529 O.2       2 RES2    0.0000
     41 C17        2.2630    5.5185    3.8374 C.ar      1 RES1    0.0000
     42 C18        1.6850    4.5329    2.9786 C.ar      1 RES1    0.0000
     43 H19        0.8258    4.2236    3.1530 H         1 RES1    0.0000
     44 C19        2.3600    4.0442    1.9211 C.ar      1 RES1    0.0000
     45 H20        1.9609    3.4054    1.3748 H         1 RES1    0.0000
     46 C20        3.6525    4.4859    1.6377 C.ar      1 RES1    0.0000
     47 C21        4.2876    5.4099    2.4432 C.ar      1 RES1    0.0000
     48 H21        5.1567    5.6789    2.2530 H         1 RES1    0.0000
     49 C22        3.6115    5.9367    3.5479 C.ar      1 RES1    0.0000
     50 C23        4.2970    6.8527    4.4128 C.2       1 RES1    0.0000
     51 H22        5.1879    7.0585    4.2408 H         1 RES1    0.0000
     52 C24        4.2570    8.2931    6.4477 C.3       1 RES1    0.0000
     53 H23        3.9540    9.2039    6.2539 H         1 RES1    0.0000
     54 C25        3.6261    7.8484    7.7729 C.3       1 RES1    0.0000
     55 H24        2.6596    7.7681    7.6300 H         1 RES1    0.0000
     56 C26        3.8453    8.8473    8.8927 C.ar      1 RES1    0.0000
     57 C27        4.9395    8.7507    9.7449 C.ar      1 RES1    0.0000
     58 H25        5.5818    8.0927    9.6044 H         1 RES1    0.0000
     59 C28        5.0733    9.6367   10.8072 C.ar      1 RES1    0.0000
     60 H26        5.8051    9.5714   11.3777 H         1 RES1    0.0000
     61 C29        4.1134   10.6195   11.0180 C.ar      1 RES1    0.0000
     62 H27        4.2030   11.2121   11.7290 H         1 RES1    0.0000
     63 C30        3.0197   10.7171   10.1664 C.ar      1 RES1    0.0000
     64 H28        2.3774   11.3751   10.3069 H         1 RES1    0.0000
     65 C31        2.8855    9.8311    9.1029 C.ar      1 RES1    0.0000
     66 H29        2.1536    9.8964    8.5324 H         1 RES1    0.0000
     67 C32        5.7748    8.2867    6.4502 C.3       1 RES1    0.0000
     68 H30        6.0912    7.3956    6.6125 H         1 RES1    0.0000
     69 H31        6.0959    8.8714    7.1406 H         1 RES1    0.0000
     70 H32        6.0968    8.5900    5.5986 H         1 RES1    0.0000
     71 N3         4.3528    3.9693    0.4724 N.pl3     1 RES1    0.0000
     72 N4         3.7145    7.3938    5.4121 N.pl3     1 RES1    1.0000
     73 O5         1.6059    6.0222    4.8246 O.2       1 RES1   -1.0000
     74 O6         4.1232    6.5622    8.0636 O.3       1 RES1    0.0000
     75 O7         3.7358    3.2361   -0.2834 O.2       1 RES1    0.0000
     76 O8         5.5151    4.2960    0.2701 O.2       1 RES1    0.0000
@<TRIPOS>BOND
     1    1   72 1
     2    2   36 1
     3    3   74 1
     4    4   38 1
     5    5    6 ar
     6    6    7 1
     7    8    6 ar
     8    9    8 1
     9   10    8 ar
    10   11   10 ar
    11   12   11 1
    12   13    5 ar
    13   14   13 1
    14   15   14 1
    15   16   17 1
    16   18   16 1
    17   19   18 1
    18   20   18 1
    19   21   20 ar
    20   22   21 1
    21   23   21 ar
    22   24   23 1
    23   25   23 ar
    24   26   25 1
    25   27   25 ar
    26   28   27 1
    27   29   20 ar
    28   30   29 1
    29   31   16 1
    30   32   31 1
    31   33   31 1
    32   34   31 1
    33   35   10 1
    34   36   14 2
    35   37    5 1
    36   38   18 1
    37   39   35 2
    38   40   35 2
    39   41   42 ar
    40   42   43 1
    41   44   42 ar
    42   45   44 1
    43   46   44 ar
    44   47   46 ar
    45   48   47 1
    46   49   41 ar
    47   50   49 1
    48   51   50 1
    49   52   53 1
    50   54   52 1
    51   55   54 1
    52   56   54 1
    53   57   56 ar
    54   58   57 1
    55   59   57 ar
    56   60   59 1
    57   61   59 ar
    58   62   61 1
    59   63   61 ar
    60   64   63 1
    61   65   56 ar
    62   66   65 1
    63   67   52 1
    64   68   67 1
    65   69   67 1
    66   70   67 1
    67   71   46 1
    68   72   50 2
    69   73   41 1
    70   74   54 1
    71   75   71 2
    72   76   71 2
    73   11   13 ar
    74   16   36 1
    75   27   29 ar
    76   47   49 ar
    77   52   72 1
    78   63   65 ar
@<TRIPOS>SUBSTRUCTURE
     1 RES1 1
     2 RES2 2

@<TRIPOS>CRYSIN
   6.1083   10.3445   12.3439  93.2540 100.4170  92.9400   1 1

