# MOL2 file generated by ConQuest
# Please check atom types

@<TRIPOS>MOLECULE
ELEJUB01
    76    78     2
SMALL
NO_CHARGES
****
Generated from CSD

@<TRIPOS>ATOM
      1 O1         1.9003    4.5796    8.4530 O.2       1 RES1    0.0000
      2 O2         0.9272    3.0863    5.4444 O.3       1 RES1    0.0000
      3 H1         1.0231    3.6491    4.8287 H         1 RES1    0.0000
      4 N1        -0.1174    3.0887    7.8519 N.3       1 RES1    0.0000
      5 H2         0.6687    3.4084    7.7030 H         1 RES1    0.0000
      6 C1         1.2251    5.0294    9.4411 C.2       1 RES1    0.0000
      7 C2         1.7407    6.0379   10.3128 C.2       1 RES1    0.0000
      8 H3         2.6021    6.4001   10.1427 H         1 RES1    0.0000
      9 C3         1.0263    6.4944   11.3855 C.2       1 RES1    0.0000
     10 H4         1.3990    7.1551   11.9573 H         1 RES1    0.0000
     11 C4        -0.2602    5.9865   11.6429 C.2       1 RES1    0.0000
     12 C5        -0.8282    5.0245   10.8323 C.2       1 RES1    0.0000
     13 H5        -1.7007    4.6958   11.0157 H         1 RES1    0.0000
     14 C6        -0.1052    4.5375    9.7361 C.2       1 RES1    0.0000
     15 C7        -0.7225    3.5569    8.8930 C.2       1 RES1    0.0000
     16 H6        -1.5946    3.2450    9.1035 H         1 RES1    0.0000
     17 C8         0.1899    0.8026    7.1309 C.3       1 RES1    0.0000
     18 H7         1.1216    0.9558    6.8685 H         1 RES1    0.0000
     19 H8        -0.1890    0.0828    6.5844 H         1 RES1    0.0000
     20 H9         0.1545    0.5483    8.0763 H         1 RES1    0.0000
     21 C9        -0.6139    2.0794    6.9178 C.3       1 RES1    0.0000
     22 H10       -1.5832    1.9033    7.0913 H         1 RES1    0.0000
     23 C10       -0.4328    2.6754    5.5037 C.3       1 RES1    0.0000
     24 H11       -1.0235    3.4758    5.4055 H         1 RES1    0.0000
     25 C11       -0.7703    1.6710    4.4210 C.ar      1 RES1    0.0000
     26 C12        0.2206    0.8364    3.8990 C.ar      1 RES1    0.0000
     27 H12        1.1083    0.8967    4.2326 H         1 RES1    0.0000
     28 C13       -0.0758   -0.0828    2.8963 C.ar      1 RES1    0.0000
     29 H13        0.6061   -0.6443    2.5468 H         1 RES1    0.0000
     30 C14       -1.3714   -0.1754    2.4111 C.ar      1 RES1    0.0000
     31 H14       -1.5794   -0.8034    1.7292 H         1 RES1    0.0000
     32 C15       -2.3653    0.6501    2.9227 C.ar      1 RES1    0.0000
     33 H15       -3.2522    0.5859    2.5877 H         1 RES1    0.0000
     34 C16       -2.0668    1.5743    3.9262 C.ar      1 RES1    0.0000
     35 H16       -2.7495    2.1372    4.2712 H         1 RES1    0.0000
     36 N2        -1.0073    6.4935   12.7694 N.pl3     1 RES1    0.0000
     37 O3        -0.4555    7.2960   13.5311 O.2       1 RES1    0.0000
     38 O4        -2.1649    6.1055   12.9498 O.2       1 RES1    0.0000
     39 O5         1.3207    5.0068    3.5870 O.2       2 RES2    0.0000
     40 O6         3.8464    5.5298    6.8168 O.3       2 RES2    0.0000
     41 H17        3.3671    5.1730    7.4068 H         2 RES2    0.0000
     42 N3         3.4253    6.3681    4.1551 N.3       2 RES2    0.0000
     43 H18        2.5848    6.1771    4.1652 H         2 RES2    0.0000
     44 C17        1.9801    4.4765    2.6165 C.2       2 RES2    0.0000
     45 C18        1.3986    3.4607    1.7958 C.2       2 RES2    0.0000
     46 H19        0.5258    3.1440    1.9965 H         2 RES2    0.0000
     47 C19        2.0719    2.9340    0.7278 C.2       2 RES2    0.0000
     48 H20        1.6592    2.2736    0.1830 H         2 RES2    0.0000
     49 C20        3.3777    3.3730    0.4392 C.2       2 RES2    0.0000
     50 C21        4.0141    4.3118    1.2225 C.2       2 RES2    0.0000
     51 H21        4.9035    4.5801    1.0223 H         2 RES2    0.0000
     52 C22        3.3368    4.8668    2.3170 C.2       2 RES2    0.0000
     53 C23        4.0330    5.7926    3.1673 C.2       2 RES2    0.0000
     54 H22        4.9486    5.9845    3.0032 H         2 RES2    0.0000
     55 C24        5.5079    7.2398    5.2057 C.3       2 RES2    0.0000
     56 H23        5.8186    6.3354    5.4199 H         2 RES2    0.0000
     57 H24        5.8337    7.8663    5.8847 H         2 RES2    0.0000
     58 H25        5.8517    7.5032    4.3266 H         2 RES2    0.0000
     59 C25        3.9875    7.2613    5.1831 C.3       2 RES2    0.0000
     60 H26        3.6891    8.1948    4.9852 H         2 RES2    0.0000
     61 C26        3.3406    6.8155    6.5118 C.3       2 RES2    0.0000
     62 H27        2.3564    6.7271    6.3580 H         2 RES2    0.0000
     63 C27        3.5448    7.8112    7.6355 C.ar      2 RES2    0.0000
     64 C28        4.6332    7.7283    8.5028 C.ar      2 RES2    0.0000
     65 H28        5.2977    7.0632    8.3665 H         2 RES2    0.0000
     66 C29        4.7494    8.6175    9.5702 C.ar      2 RES2    0.0000
     67 H29        5.4969    8.5581   10.1535 H         2 RES2    0.0000
     68 C30        3.7815    9.5882    9.7857 C.ar      2 RES2    0.0000
     69 H30        3.8554   10.1794   10.5256 H         2 RES2    0.0000
     70 C31        2.7065    9.6916    8.9163 C.ar      2 RES2    0.0000
     71 H31        2.0503   10.3651    9.0481 H         2 RES2    0.0000
     72 C32        2.5917    8.8040    7.8481 C.ar      2 RES2    0.0000
     73 H32        1.8523    8.8775    7.2563 H         2 RES2    0.0000
     74 N4         4.0549    2.8283   -0.7166 N.pl3     2 RES2    0.0000
     75 O7         3.4229    2.0742   -1.4586 O.2       2 RES2    0.0000
     76 O8         5.2296    3.1475   -0.9252 O.2       2 RES2    0.0000
@<TRIPOS>BOND
     1    1    6 2
     2    2    3 1
     3    4    5 1
     4    6    7 1
     5    7    8 1
     6    9    7 2
     7   10    9 1
     8   11    9 1
     9   12   11 2
    10   13   12 1
    11   14    6 1
    12   15    4 1
    13   16   15 1
    14   17   18 1
    15   19   17 1
    16   20   17 1
    17   21    4 1
    18   22   21 1
    19   23    2 1
    20   24   23 1
    21   25   23 1
    22   26   25 ar
    23   27   26 1
    24   28   26 ar
    25   29   28 1
    26   30   28 ar
    27   31   30 1
    28   32   30 ar
    29   33   32 1
    30   34   25 ar
    31   35   34 1
    32   36   11 1
    33   37   36 2
    34   38   36 2
    35   39   44 2
    36   40   41 1
    37   42   43 1
    38   44   45 1
    39   45   46 1
    40   47   45 2
    41   48   47 1
    42   49   47 1
    43   50   49 2
    44   51   50 1
    45   52   44 1
    46   53   42 1
    47   54   53 1
    48   55   56 1
    49   57   55 1
    50   58   55 1
    51   59   42 1
    52   60   59 1
    53   61   40 1
    54   62   61 1
    55   63   61 1
    56   64   63 ar
    57   65   64 1
    58   66   64 ar
    59   67   66 1
    60   68   66 ar
    61   69   68 1
    62   70   68 ar
    63   71   70 1
    64   72   63 ar
    65   73   72 1
    66   74   49 1
    67   75   74 2
    68   76   74 2
    69   12   14 1
    70   14   15 2
    71   17   21 1
    72   21   23 1
    73   32   34 ar
    74   50   52 1
    75   52   53 2
    76   55   59 1
    77   59   61 1
    78   70   72 ar
@<TRIPOS>SUBSTRUCTURE
     1 RES1 1
     2 RES2 39

@<TRIPOS>CRYSIN
   6.0305   10.2143   12.2730  92.3250 100.7570  92.9170   1 1

