# MOL2 file generated by ConQuest
# Please check atom types

@<TRIPOS>MOLECULE
ELIGEN01
    56    58     2
SMALL
NO_CHARGES
****
Generated from CSD

@<TRIPOS>ATOM
      1 N1         4.9990    5.6863    7.4217 N.pl3     1 RES1    0.0000
      2 N2         4.1994    4.1887    5.7553 N.2       1 RES1    0.0000
      3 N3         4.6954    3.4387    4.7526 N.3       1 RES1    0.0000
      4 N4         3.2592    0.5989    4.6881 N.pl3     1 RES1    0.0000
      5 O1         3.8621    5.9585    7.7670 O.2       1 RES1    0.0000
      6 O2         6.0124    6.1500    7.9428 O.2       1 RES1    0.0000
      7 O3         4.0050    1.3594    3.7571 O.3       1 RES1    0.0000
      8 O4         3.3434   -0.4887    4.6766 O.2       1 RES1    0.0000
      9 O5         2.6721    1.3233    5.3829 O.2       1 RES1    0.0000
     10 C1         5.2216    4.7753    6.3378 C.2       1 RES1    0.0000
     11 C2         6.0597    3.5940    4.6902 C.2       1 RES1    0.0000
     12 C3         3.7996    2.7767    3.8455 C.3       1 RES1    0.0000
     13 H1         3.9069    3.1632    2.9635 H         1 RES1    0.0000
     14 H2         2.8876    2.9426    4.1316 H         1 RES1    0.0000
     15 N5         3.1170    3.0468   -0.1435 N.pl3     2 RES2    0.0000
     16 N6         1.5558    0.4890   -0.4889 N.pl3     2 RES2    0.0000
     17 N7         2.0565   -0.3295    0.4442 N.2       2 RES2    0.0000
     18 N8         1.2373   -1.8644    2.0835 N.pl3     2 RES2    0.0000
     19 O6         3.5834    2.2835    0.6179 O.2       2 RES2    0.0000
     20 O7         3.1063    4.2443   -0.1383 O.2       2 RES2    0.0000
     21 O8         2.4156    2.5651   -1.2617 O.3       2 RES2    0.0000
     22 O9         2.3539   -2.2761    2.3154 O.2       2 RES2    0.0000
     23 O10        0.2225   -2.2389    2.6577 O.2       2 RES2    0.0000
     24 C4         2.4607    1.1409   -1.3824 C.3       2 RES2    0.0000
     25 H3         2.2418    0.8921   -2.2936 H         2 RES2    0.0000
     26 H4         3.3633    0.8353   -1.1993 H         2 RES2    0.0000
     27 C5         0.1879    0.4316   -0.4941 C.2       2 RES2    0.0000
     28 C6         1.0111   -0.8905    1.0454 C.2       2 RES2    0.0000
     29 N1A        7.4845    2.3471    2.9801 N.pl3     1 RES1    0.0000
     30 N2A        8.2840    3.8447    4.6465 N.2       1 RES1    0.0000
     31 N3A        7.7881    4.5947    5.6492 N.3       1 RES1    0.0000
     32 N4A        9.2243    7.4345    5.7137 N.pl3     1 RES1    0.0000
     33 O1A        8.6214    2.0749    2.6348 O.2       1 RES1    0.0000
     34 O2A        6.4711    1.8834    2.4590 O.2       1 RES1    0.0000
     35 O3A        8.4784    6.6740    6.6447 O.3       1 RES1    0.0000
     36 O4A        9.1401    8.5221    5.7251 O.2       1 RES1    0.0000
     37 O5A        9.8114    6.7101    5.0189 O.2       1 RES1    0.0000
     38 C1A        7.2619    3.2581    4.0640 C.2       1 RES1    0.0000
     39 C2A        6.4238    4.4394    5.7116 C.2       1 RES1    0.0000
     40 C3A        8.6838    5.2567    6.5562 C.3       1 RES1    0.0000
     41 H1A        8.5766    4.8702    7.4383 H         1 RES1    0.0000
     42 H2A        9.5959    5.0908    6.2702 H         1 RES1    0.0000
     43 N5A       -3.1170   -3.0468    0.1435 N.pl3     2 RES2    0.0000
     44 N6A       -1.5558   -0.4890    0.4889 N.pl3     2 RES2    0.0000
     45 N7A       -2.0565    0.3295   -0.4442 N.2       2 RES2    0.0000
     46 N8A       -1.2373    1.8644   -2.0835 N.pl3     2 RES2    0.0000
     47 O6A       -3.5834   -2.2835   -0.6179 O.2       2 RES2    0.0000
     48 O7A       -3.1063   -4.2443    0.1383 O.2       2 RES2    0.0000
     49 O8A       -2.4156   -2.5651    1.2617 O.3       2 RES2    0.0000
     50 O9A       -2.3539    2.2761   -2.3154 O.2       2 RES2    0.0000
     51 O10A      -0.2225    2.2389   -2.6577 O.2       2 RES2    0.0000
     52 C4A       -2.4607   -1.1409    1.3824 C.3       2 RES2    0.0000
     53 H3A       -2.2418   -0.8921    2.2936 H         2 RES2    0.0000
     54 H4A       -3.3633   -0.8353    1.1993 H         2 RES2    0.0000
     55 C5A       -0.1879   -0.4316    0.4941 C.2       2 RES2    0.0000
     56 C6A       -1.0111    0.8905   -1.0454 C.2       2 RES2    0.0000
@<TRIPOS>BOND
     1    1    5 2
     2    2    3 1
     3    3   11 1
     4    4    7 1
     5    6    1 2
     6    7   12 1
     7    8    4 2
     8    9    4 2
     9   10    1 1
    10   11   38 1
    11   12    3 1
    12   13   12 1
    13   14   12 1
    14   15   19 2
    15   16   17 1
    16   17   28 2
    17   18   22 2
    18   20   15 2
    19   21   15 1
    20   23   18 2
    21   24   16 1
    22   25   24 1
    23   26   24 1
    24   27   16 1
    25   28   18 1
    26   29   33 2
    27   30   31 1
    28   31   39 1
    29   32   35 1
    30   34   29 2
    31   35   40 1
    32   36   32 2
    33   37   32 2
    34   38   29 1
    35   39   10 1
    36   40   31 1
    37   41   40 1
    38   42   40 1
    39   43   47 2
    40   44   45 1
    41   45   56 2
    42   46   50 2
    43   48   43 2
    44   49   43 1
    45   51   46 2
    46   52   44 1
    47   53   52 1
    48   54   52 1
    49   55   27 2
    50   56   27 1
    51    2   10 2
    52   11   39 2
    53   21   24 1
    54   28   55 1
    55   30   38 2
    56   44   55 1
    57   46   56 1
    58   49   52 1
@<TRIPOS>SUBSTRUCTURE
     1 RES1 1
     2 RES2 15

@<TRIPOS>CRYSIN
   7.7430    8.3020   10.6050  85.5000  78.8070  71.1530   2 1

