# MOL2 file generated by ConQuest
# Please check atom types

@<TRIPOS>MOLECULE
ELIGUD
    60    62     2
SMALL
NO_CHARGES
****
Generated from CSD

@<TRIPOS>ATOM
      1 N1        -0.9480    1.1756    1.0489 N.2       1 RES1    0.0000
      2 C1        -0.0664    0.7037    0.1841 C.2       1 RES1    0.0000
      3 N2         0.7293    1.7093   -0.2717 N.3       1 RES1    0.0000
      4 N3         0.3799    2.8682    0.3350 N.2       1 RES1    0.0000
      5 C2        -0.6109    2.4651    1.0907 C.2       1 RES1    0.0000
      6 N4        -1.2865    3.3954    1.9833 N.pl3     1 RES1    0.0000
      7 O1        -0.9745    4.5751    1.9149 O.2       1 RES1    0.0000
      8 O2        -2.0946    2.9337    2.7571 O.2       1 RES1    0.0000
      9 C3         1.8668    1.7177   -1.1924 C.3       1 RES1    0.0000
     10 H1         2.6490    2.0582   -0.7306 H         1 RES1    0.0000
     11 H2         2.0579    0.8094   -1.4733 H         1 RES1    0.0000
     12 O3         1.6177    2.5158   -2.3362 O.3       1 RES1    0.0000
     13 N5         0.8170    1.8714   -3.3306 N.pl3     1 RES1    0.0000
     14 O4         0.2486    0.8704   -3.0194 O.2       1 RES1    0.0000
     15 O5         0.8187    2.4743   -4.3632 O.2       1 RES1    0.0000
     16 N6         2.3107    1.4498    5.5268 N.2       2 RES2    0.0000
     17 C4         1.6492    2.4658    6.0502 C.2       2 RES2    0.0000
     18 N7         0.9159    3.1030    5.1049 N.3       2 RES2    0.0000
     19 N8         1.0843    2.4750    3.9121 N.2       2 RES2    0.0000
     20 C5         1.9212    1.5202    4.2470 C.2       2 RES2    0.0000
     21 N9         2.4349    0.5810    3.2574 N.pl3     2 RES2    0.0000
     22 O6         2.1390    0.7622    2.0930 O.2       2 RES2    0.0000
     23 O7         3.1410   -0.3157    3.6686 O.2       2 RES2    0.0000
     24 C6         0.1168    4.3133    5.1822 C.3       2 RES2    0.0000
     25 H3         0.5898    4.9999    5.6785 H         2 RES2    0.0000
     26 H4        -0.0754    4.6495    4.2929 H         2 RES2    0.0000
     27 O8        -1.0951    3.9555    5.8549 O.3       2 RES2    0.0000
     28 N10       -1.5750    4.9807    6.7119 N.pl3     2 RES2    0.0000
     29 O9        -1.1031    6.0660    6.6048 O.2       2 RES2    0.0000
     30 O10       -2.4416    4.6001    7.4248 O.2       2 RES2    0.0000
     31 N1A        0.9480   -1.1756   -1.0489 N.2       1 RES1    0.0000
     32 C1A        0.0664   -0.7037   -0.1841 C.2       1 RES1    0.0000
     33 N2A       -0.7293   -1.7093    0.2717 N.3       1 RES1    0.0000
     34 N3A       -0.3799   -2.8682   -0.3350 N.2       1 RES1    0.0000
     35 C2A        0.6109   -2.4651   -1.0907 C.2       1 RES1    0.0000
     36 N4A        1.2865   -3.3954   -1.9833 N.pl3     1 RES1    0.0000
     37 O1A        0.9745   -4.5751   -1.9149 O.2       1 RES1    0.0000
     38 O2A        2.0946   -2.9337   -2.7571 O.2       1 RES1    0.0000
     39 C3A       -1.8668   -1.7177    1.1924 C.3       1 RES1    0.0000
     40 H1A       -2.6490   -2.0582    0.7306 H         1 RES1    0.0000
     41 H2A       -2.0579   -0.8094    1.4733 H         1 RES1    0.0000
     42 O3A       -1.6177   -2.5158    2.3362 O.3       1 RES1    0.0000
     43 N5A       -0.8170   -1.8714    3.3306 N.pl3     1 RES1    0.0000
     44 O4A       -0.2486   -0.8704    3.0194 O.2       1 RES1    0.0000
     45 O5A       -0.8187   -2.4743    4.3632 O.2       1 RES1    0.0000
     46 N6A        1.0150    3.8644    7.9772 N.2       2 RES2    0.0000
     47 C4A        1.6765    2.8484    7.4538 C.2       2 RES2    0.0000
     48 N7A        2.4098    2.2112    8.3991 N.3       2 RES2    0.0000
     49 N8A        2.2414    2.8392    9.5919 N.2       2 RES2    0.0000
     50 C5A        1.4045    3.7940    9.2570 C.2       2 RES2    0.0000
     51 N9A        0.8908    4.7332   10.2466 N.pl3     2 RES2    0.0000
     52 O6A        1.1867    4.5520   11.4111 O.2       2 RES2    0.0000
     53 O7A        0.1847    5.6300    9.8354 O.2       2 RES2    0.0000
     54 C6A        3.2089    1.0009    8.3219 C.3       2 RES2    0.0000
     55 H3A        2.7359    0.3143    7.8256 H         2 RES2    0.0000
     56 H4A        3.4011    0.6647    9.2111 H         2 RES2    0.0000
     57 O8A        4.4208    1.3588    7.6491 O.3       2 RES2    0.0000
     58 N10A       4.9007    0.3335    6.7921 N.pl3     2 RES2    0.0000
     59 O9A        4.4288   -0.7518    6.8992 O.2       2 RES2    0.0000
     60 O10A       5.7673    0.7141    6.0793 O.2       2 RES2    0.0000
@<TRIPOS>BOND
     1    1    2 2
     2    2    3 1
     3    3    4 1
     4    4    5 2
     5    5    1 1
     6    6    5 1
     7    7    6 2
     8    8    6 2
     9    9    3 1
    10   10    9 1
    11   11    9 1
    12   12    9 1
    13   13   12 1
    14   14   13 2
    15   15   13 2
    16   16   17 2
    17   17   18 1
    18   18   19 1
    19   19   20 2
    20   20   16 1
    21   21   20 1
    22   22   21 2
    23   23   21 2
    24   24   18 1
    25   25   24 1
    26   26   24 1
    27   27   24 1
    28   28   27 1
    29   29   28 2
    30   30   28 2
    31   31   32 2
    32   32    2 1
    33   33   32 1
    34   34   33 1
    35   35   31 1
    36   36   35 1
    37   37   36 2
    38   38   36 2
    39   39   33 1
    40   40   39 1
    41   41   39 1
    42   42   39 1
    43   43   42 1
    44   44   43 2
    45   45   43 2
    46   46   47 2
    47   47   17 1
    48   48   47 1
    49   49   48 1
    50   50   46 1
    51   51   50 1
    52   52   51 2
    53   53   51 2
    54   54   48 1
    55   55   54 1
    56   56   54 1
    57   57   54 1
    58   58   57 1
    59   59   58 2
    60   60   58 2
    61   34   35 2
    62   49   50 2
@<TRIPOS>SUBSTRUCTURE
     1 RES1 1
     2 RES2 16

@<TRIPOS>CRYSIN
   6.4891    8.1203   13.7172  98.6470  92.0850 109.1540   2 1

