# MOL2 file generated by ConQuest
# Please check atom types

@<TRIPOS>MOLECULE
ELINIW
    29    33     1
SMALL
NO_CHARGES
****
Generated from CSD

@<TRIPOS>ATOM
      1 O1         3.6427    4.1300    7.7104 O.3       1 RES1    0.0000
      2 O2         0.9440    7.0421    5.6439 O.2       1 RES1    0.0000
      3 O3         4.6493    5.5023    4.6762 O.3       1 RES1    0.0000
      4 O4        -1.8855    4.7588   11.3064 O.3       1 RES1    0.0000
      5 O5         2.3588    5.4433    4.9977 O.3       1 RES1    0.0000
      6 O6        -2.6455    6.9262   11.0505 O.3       1 RES1    0.0000
      7 N1         2.4671    4.3006    8.4908 N.2       1 RES1    0.0000
      8 C1         1.9512    5.4122    8.2504 C.2       1 RES1    0.0000
      9 C2         2.7300    6.2331    7.1890 C.3       1 RES1    0.0000
     10 C3         1.8843    6.3597    5.8780 C.2       1 RES1    0.0000
     11 C4         3.6521    4.8940    5.3848 C.3       1 RES1    0.0000
     12 C5         3.8343    5.3199    6.8582 C.3       1 RES1    0.0000
     13 C6         4.7394    5.0764    3.2558 C.3       1 RES1    0.0000
     14 C7         5.5583    3.7984    3.2028 C.3       1 RES1    0.0000
     15 C8         5.7398    3.3188    1.7637 C.3       1 RES1    0.0000
     16 C9         6.3915    4.4369    0.9864 C.3       1 RES1    0.0000
     17 C10        5.6321    5.7330    1.0770 C.3       1 RES1    0.0000
     18 C11        5.4155    6.2116    2.5066 C.3       1 RES1    0.0000
     19 C12        6.5561    2.0237    1.6701 C.3       1 RES1    0.0000
     20 C13        4.6718    7.5561    2.6627 C.3       1 RES1    0.0000
     21 C14        3.2201    7.5410    2.0884 C.3       1 RES1    0.0000
     22 C15        5.4969    8.7278    2.1071 C.3       1 RES1    0.0000
     23 C16        0.7149    5.8682    8.9340 C.ar      1 RES1    0.0000
     24 C17        0.0482    4.9508    9.8143 C.ar      1 RES1    0.0000
     25 C18       -1.0579    5.4294   10.4449 C.ar      1 RES1    0.0000
     26 C19       -1.4924    6.7127   10.2794 C.ar      1 RES1    0.0000
     27 C20       -0.8576    7.6333    9.4803 C.ar      1 RES1    0.0000
     28 C21        0.2673    7.2116    8.8060 C.ar      1 RES1    0.0000
     29 C22       -2.9003    5.6837   11.6748 C.3       1 RES1    0.0000
@<TRIPOS>BOND
     1    1    7 1
     2    2   10 2
     3    3   11 1
     4    4   25 1
     5    5   10 1
     6    6   26 1
     7    7    8 2
     8    8    9 1
     9    9   10 1
    10   11    5 1
    11   12    1 1
    12   13    3 1
    13   14   13 1
    14   15   14 1
    15   16   15 1
    16   17   16 1
    17   18   13 1
    18   19   15 1
    19   20   18 1
    20   21   20 1
    21   22   20 1
    22   23    8 1
    23   24   23 ar
    24   25   24 ar
    25   26   25 ar
    26   27   26 ar
    27   28   23 ar
    28   29    4 1
    29    6   29 1
    30    9   12 1
    31   11   12 1
    32   17   18 1
    33   27   28 ar
@<TRIPOS>SUBSTRUCTURE
     1 RES1 1

@<TRIPOS>CRYSIN
   6.2600   10.7300   31.2160  90.0000  90.0000  90.0000  19 1

