# MOL2 file generated by ConQuest
# Please check atom types

@<TRIPOS>MOLECULE
ELOVEH
    80    83     1
SMALL
NO_CHARGES
****
Generated from CSD

@<TRIPOS>ATOM
      1 O1         1.2854    0.4162    7.7693 O.3       1 RES1    0.0000
      2 C1        -0.5887   -3.6603    9.2141 C.ar      1 RES1    0.0000
      3 O2        -0.6063   -4.2919    6.9487 O.2       1 RES1    0.0000
      4 C2         1.4989    0.5403    6.4365 C.ar      1 RES1    0.0000
      5 O3        -0.0803    0.6494   10.1885 O.3       1 RES1    0.0000
      6 C3        -0.2800   -3.4391    7.7601 C.2       1 RES1    0.0000
      7 C4         1.0989   -0.5411    5.6427 C.ar      1 RES1    0.0000
      8 C5         0.3049   -3.4335   10.2538 C.ar      1 RES1    0.0000
      9 C6         0.5138   -1.7725    6.1593 C.2       1 RES1    0.0000
     10 N1         1.7146   -3.1836    9.9494 N.pl3     1 RES1    0.0000
     11 C7         0.3083   -2.1512    7.4167 C.2       1 RES1    0.0000
     12 O4         2.2329   -3.8727    9.0862 O.2       1 RES1    0.0000
     13 O5         2.3004   -2.3245   10.5742 O.2       1 RES1    0.0000
     14 C8         2.0918    1.6549    5.8625 C.ar      1 RES1    0.0000
     15 H1         2.3445    2.3752    6.3941 H         1 RES1    0.0000
     16 C9         1.2984   -0.4399    4.2606 C.ar      1 RES1    0.0000
     17 H2         1.0133   -1.1302    3.7077 H         1 RES1    0.0000
     18 C10       -1.8868   -3.9943    9.5709 C.ar      1 RES1    0.0000
     19 H3        -2.5106   -4.1728    8.9040 H         1 RES1    0.0000
     20 C11        1.2649    1.0642   10.0296 C.3       1 RES1    0.0000
     21 C12       -0.3606    0.2486   11.5209 C.3       1 RES1    0.0000
     22 C13        1.4994    1.5283    8.6348 C.3       1 RES1    0.0000
     23 C14       -0.0568   -3.5049   11.5784 C.ar      1 RES1    0.0000
     24 H4         0.5644   -3.3440   12.2517 H         1 RES1    0.0000
     25 C15        1.9086    0.6631    3.7034 C.ar      1 RES1    0.0000
     26 H5         2.0499    0.7068    2.7857 H         1 RES1    0.0000
     27 C16       -2.2693   -4.0678   10.8801 C.ar      1 RES1    0.0000
     28 H6        -3.1474   -4.2858   11.0943 H         1 RES1    0.0000
     29 C17        2.3037    1.6906    4.5069 C.ar      1 RES1    0.0000
     30 H7         2.7242    2.4290    4.1301 H         1 RES1    0.0000
     31 C18       -1.3628   -3.8212   11.8832 C.ar      1 RES1    0.0000
     32 H8        -1.6320   -3.8678   12.7721 H         1 RES1    0.0000
     33 H9         0.2544   -2.4434    5.5114 H         1 RES1    0.0000
     34 H10        0.5036   -1.5733    8.1355 H         1 RES1    0.0000
     35 H11        0.2863   -0.4826   11.8190 H         1 RES1    0.0000
     36 H12        1.4623    1.8155   10.6523 H         1 RES1    0.0000
     37 H13       -0.2377    1.0513   12.1640 H         1 RES1    0.0000
     38 H14        2.4252    1.8424    8.5232 H         1 RES1    0.0000
     39 H15        0.8407    2.2479    8.3755 H         1 RES1    0.0000
     40 H16        1.8856    0.3122   10.2322 H         1 RES1    0.0000
     41 O1B       -3.4211   -0.4162   15.3101 O.3       1 RES1    0.0000
     42 C1B       -1.5470    3.6603   13.8653 C.ar      1 RES1    0.0000
     43 O2B       -1.5295    4.2919   16.1306 O.2       1 RES1    0.0000
     44 C2B       -3.6346   -0.5403   16.6429 C.ar      1 RES1    0.0000
     45 O3B       -2.0555   -0.6494   12.8909 O.3       1 RES1    0.0000
     46 C3B       -1.8557    3.4391   15.3193 C.2       1 RES1    0.0000
     47 C4B       -3.2346    0.5411   17.4367 C.ar      1 RES1    0.0000
     48 C5B       -2.4406    3.4335   12.8256 C.ar      1 RES1    0.0000
     49 C6B       -2.6496    1.7725   16.9201 C.2       1 RES1    0.0000
     50 N1B       -3.8503    3.1836   13.1300 N.pl3     1 RES1    0.0000
     51 C7B       -2.4440    2.1512   15.6627 C.2       1 RES1    0.0000
     52 O4B       -4.3686    3.8727   13.9932 O.2       1 RES1    0.0000
     53 O5B       -4.4361    2.3245   12.5052 O.2       1 RES1    0.0000
     54 C8B       -4.2275   -1.6549   17.2169 C.ar      1 RES1    0.0000
     55 H1B       -4.4803   -2.3752   16.6852 H         1 RES1    0.0000
     56 C9B       -3.4342    0.4399   18.8188 C.ar      1 RES1    0.0000
     57 H2B       -3.1490    1.1302   19.3717 H         1 RES1    0.0000
     58 C10B      -0.2490    3.9943   13.5085 C.ar      1 RES1    0.0000
     59 H3B        0.3749    4.1728   14.1754 H         1 RES1    0.0000
     60 C11B      -3.4006   -1.0642   13.0498 C.3       1 RES1    0.0000
     61 C12B      -1.7752   -0.2486   11.5585 C.3       1 RES1    0.0000
     62 C13B      -3.6352   -1.5283   14.4446 C.3       1 RES1    0.0000
     63 C14B      -2.0789    3.5049   11.5010 C.ar      1 RES1    0.0000
     64 H4B       -2.7001    3.3440   10.8277 H         1 RES1    0.0000
     65 C15B      -4.0443   -0.6631   19.3760 C.ar      1 RES1    0.0000
     66 H5B       -4.1856   -0.7068   20.2937 H         1 RES1    0.0000
     67 C16B       0.1336    4.0678   12.1993 C.ar      1 RES1    0.0000
     68 H6B        1.0117    4.2858   11.9851 H         1 RES1    0.0000
     69 C17B      -4.4394   -1.6906   18.5724 C.ar      1 RES1    0.0000
     70 H7B       -4.8599   -2.4290   18.9493 H         1 RES1    0.0000
     71 C18B      -0.7730    3.8212   11.1962 C.ar      1 RES1    0.0000
     72 H8B       -0.5037    3.8678   10.3073 H         1 RES1    0.0000
     73 H9B       -2.3901    2.4434   17.5680 H         1 RES1    0.0000
     74 H10B      -2.6393    1.5733   14.9439 H         1 RES1    0.0000
     75 H11B      -2.4220    0.4826   11.2604 H         1 RES1    0.0000
     76 H12B      -3.5980   -1.8155   12.4271 H         1 RES1    0.0000
     77 H13B      -1.8981   -1.0513   10.9154 H         1 RES1    0.0000
     78 H14B      -4.5609   -1.8424   14.5562 H         1 RES1    0.0000
     79 H15B      -2.9764   -2.2479   14.7039 H         1 RES1    0.0000
     80 H16B      -4.0214   -0.3122   12.8471 H         1 RES1    0.0000
@<TRIPOS>BOND
     1    1    4 1
     2    2    6 1
     3    3    6 2
     4    4    7 ar
     5    5   20 1
     6    6   11 1
     7    7    9 1
     8    8    2 ar
     9    9   11 2
    10   10    8 1
    11   11   34 1
    12   12   10 2
    13   13   10 2
    14   14    4 ar
    15   15   14 1
    16   16    7 ar
    17   17   16 1
    18   18    2 ar
    19   19   18 1
    20   20   22 1
    21   21    5 1
    22   22    1 1
    23   23    8 ar
    24   24   23 1
    25   25   16 ar
    26   26   25 1
    27   27   18 ar
    28   28   27 1
    29   29   14 ar
    30   30   29 1
    31   31   23 ar
    32   32   31 1
    33   33    9 1
    34   35   21 1
    35   36   20 1
    36   37   21 1
    37   38   22 1
    38   39   22 1
    39   40   20 1
    40   41   44 1
    41   42   46 1
    42   43   46 2
    43   44   47 ar
    44   45   60 1
    45   46   51 1
    46   47   49 1
    47   48   42 ar
    48   49   51 2
    49   50   48 1
    50   51   74 1
    51   52   50 2
    52   53   50 2
    53   54   44 ar
    54   55   54 1
    55   56   47 ar
    56   57   56 1
    57   58   42 ar
    58   59   58 1
    59   60   62 1
    60   61   21 1
    61   62   41 1
    62   63   48 ar
    63   64   63 1
    64   65   56 ar
    65   66   65 1
    66   67   58 ar
    67   68   67 1
    68   69   54 ar
    69   70   69 1
    70   71   63 ar
    71   72   71 1
    72   73   49 1
    73   75   61 1
    74   76   60 1
    75   77   61 1
    76   78   62 1
    77   79   62 1
    78   80   60 1
    79   25   29 ar
    80   27   31 ar
    81   45   61 1
    82   65   69 ar
    83   67   71 ar
@<TRIPOS>SUBSTRUCTURE
     1 RES1 1

@<TRIPOS>CRYSIN
   7.6286   17.9398   11.5890  90.0000  95.2870  90.0000 231 1

