# MOL2 file generated by ConQuest
# Please check atom types

@<TRIPOS>MOLECULE
ELOVAD
    66    69     1
SMALL
NO_CHARGES
****
Generated from CSD

@<TRIPOS>ATOM
      1 O1         7.0891    7.8044    0.2395 O.2       1 RES1    0.0000
      2 O2         6.4019    3.1021   -4.8493 O.3       1 RES1    0.0000
      3 C1         3.2328    7.7231   -4.3369 C.ar      1 RES1    0.0000
      4 C2         7.7467    7.4785   -2.7988 C.ar      1 RES1    0.0000
      5 O3         5.1584    2.8433   -2.4478 O.3       1 RES1    0.0000
      6 C3         5.9871    5.4598   -6.0292 C.2       1 RES1    0.0000
      7 H1         5.5535    5.2888   -5.2245 H         1 RES1    0.0000
      8 O4         3.5980    7.6860   -7.4128 O.2       1 RES1    0.0000
      9 C4         4.0120    4.2455   -0.9964 C.ar      1 RES1    0.0000
     10 C5         7.2312    4.7360   -6.2794 C.ar      1 RES1    0.0000
     11 C6         7.5754    6.6182   -1.7324 C.ar      1 RES1    0.0000
     12 O5         5.8584    8.7167   -2.3501 O.2       1 RES1    0.0000
     13 C7         6.7137    6.9295   -0.5295 C.2       1 RES1    0.0000
     14 C8         3.4549    6.7442   -5.2805 C.ar      1 RES1    0.0000
     15 C9         8.6042    7.2239   -3.8454 C.ar      1 RES1    0.0000
     16 H2         8.6888    7.8251   -4.5504 H         1 RES1    0.0000
     17 C10        5.5282    6.1400   -0.3017 C.2       1 RES1    0.0000
     18 H3         5.0089    6.3266    0.4466 H         1 RES1    0.0000
     19 C11        7.4431    3.5204   -5.6312 C.ar      1 RES1    0.0000
     20 N1         6.9741    8.7235   -2.8350 N.pl3     1 RES1    0.0000
     21 C12        5.1406    5.1527   -1.1158 C.2       1 RES1    0.0000
     22 H4         5.6717    5.0288   -1.8696 H         1 RES1    0.0000
     23 C13        8.3288    5.4590   -1.7482 C.ar      1 RES1    0.0000
     24 H5         8.2418    4.8489   -1.0514 H         1 RES1    0.0000
     25 C14        4.1635    6.9921   -6.5803 C.2       1 RES1    0.0000
     26 O6         4.8751    9.1154   -5.1521 O.2       1 RES1    0.0000
     27 N2         3.8367    9.0472   -4.5316 N.pl3     1 RES1    0.0000
     28 C15        5.4199    6.3380   -6.8441 C.2       1 RES1    0.0000
     29 H6         5.8617    6.5449   -7.6368 H         1 RES1    0.0000
     30 C16        4.0418    3.0629   -1.7489 C.ar      1 RES1    0.0000
     31 C17        9.5783    3.3284   -6.6348 C.ar      1 RES1    0.0000
     32 H7        10.3794    2.8687   -6.7465 H         1 RES1    0.0000
     33 C18        8.6278    2.8040   -5.8062 C.ar      1 RES1    0.0000
     34 H8         8.7659    1.9933   -5.3715 H         1 RES1    0.0000
     35 O7         7.4816    9.6988   -3.3696 O.2       1 RES1    0.0000
     36 C19        2.4531    7.5322   -3.2216 C.ar      1 RES1    0.0000
     37 H9         2.3226    8.2211   -2.6115 H         1 RES1    0.0000
     38 C20        9.2070    5.1900   -2.7783 C.ar      1 RES1    0.0000
     39 H10        9.7166    4.4123   -2.7627 H         1 RES1    0.0000
     40 C21        8.2213    5.2043   -7.1156 C.ar      1 RES1    0.0000
     41 H11        8.0937    6.0106   -7.5619 H         1 RES1    0.0000
     42 C22        2.8543    5.5126   -5.0399 C.ar      1 RES1    0.0000
     43 H12        2.9858    4.8127   -5.6371 H         1 RES1    0.0000
     44 C23        5.2488    1.7509   -3.3748 C.3       1 RES1    0.0000
     45 H13        4.5016    1.7717   -3.9936 H         1 RES1    0.0000
     46 H14        5.2349    0.9050   -2.9012 H         1 RES1    0.0000
     47 C24        2.0657    5.3195   -3.9244 C.ar      1 RES1    0.0000
     48 H15        1.6598    4.4945   -3.7873 H         1 RES1    0.0000
     49 C25        9.3278    6.0644   -3.8216 C.ar      1 RES1    0.0000
     50 H16        9.9079    5.8691   -4.5221 H         1 RES1    0.0000
     51 C26        2.9113    4.5395   -0.2080 C.ar      1 RES1    0.0000
     52 H17        2.9010    5.3217    0.2954 H         1 RES1    0.0000
     53 C27        1.8781    2.5199   -0.9270 C.ar      1 RES1    0.0000
     54 H18        1.1557    1.9352   -0.9101 H         1 RES1    0.0000
     55 C28        9.3947    4.5099   -7.3081 C.ar      1 RES1    0.0000
     56 H19       10.0497    4.8357   -7.8827 H         1 RES1    0.0000
     57 C29        1.8756    6.3145   -3.0273 C.ar      1 RES1    0.0000
     58 H20        1.3490    6.1664   -2.2752 H         1 RES1    0.0000
     59 O8         3.2755   10.0092   -4.0422 O.2       1 RES1    0.0000
     60 C30        2.9566    2.2017   -1.7109 C.ar      1 RES1    0.0000
     61 H21        2.9595    1.4174   -2.2102 H         1 RES1    0.0000
     62 C31        6.5201    1.9077   -4.1020 C.3       1 RES1    0.0000
     63 H22        7.2613    1.9692   -3.4806 H         1 RES1    0.0000
     64 H23        6.6695    1.1519   -4.6917 H         1 RES1    0.0000
     65 C32        1.8132    3.6674   -0.1632 C.ar      1 RES1    0.0000
     66 H24        1.0698    3.8550    0.3618 H         1 RES1    0.0000
@<TRIPOS>BOND
     1    1   13 2
     2    2   19 1
     3    3   14 ar
     4    4   11 ar
     5    5   30 1
     6    6    7 1
     7    8   25 2
     8    9   21 1
     9   10    6 1
    10   11   13 1
    11   12   20 2
    12   13   17 1
    13   14   25 1
    14   15    4 ar
    15   16   15 1
    16   17   18 1
    17   19   10 ar
    18   20    4 1
    19   21   17 2
    20   22   21 1
    21   23   11 ar
    22   24   23 1
    23   25   28 1
    24   26   27 2
    25   27    3 1
    26   28    6 2
    27   29   28 1
    28   30    9 ar
    29   31   32 1
    30   33   19 ar
    31   34   33 1
    32   35   20 2
    33   36    3 ar
    34   37   36 1
    35   38   23 ar
    36   39   38 1
    37   40   10 ar
    38   41   40 1
    39   42   14 ar
    40   43   42 1
    41   44    5 1
    42   45   44 1
    43   46   44 1
    44   47   42 ar
    45   48   47 1
    46   49   15 ar
    47   50   49 1
    48   51    9 ar
    49   52   51 1
    50   53   54 1
    51   55   31 ar
    52   56   55 1
    53   57   36 ar
    54   58   57 1
    55   59   27 2
    56   60   30 ar
    57   61   60 1
    58   62    2 1
    59   63   62 1
    60   64   62 1
    61   65   51 ar
    62   66   65 1
    63   31   33 ar
    64   38   49 ar
    65   40   55 ar
    66   44   62 1
    67   47   57 ar
    68   53   60 ar
    69   53   65 ar
@<TRIPOS>SUBSTRUCTURE
     1 RES1 1

@<TRIPOS>CRYSIN
  17.9416   10.9703   14.6990  90.0000 105.9700  90.0000  14 1

