# MOL2 file generated by ConQuest
# Please check atom types

@<TRIPOS>MOLECULE
ELOXOS
    28    28     2
SMALL
NO_CHARGES
****
Generated from CSD

@<TRIPOS>ATOM
      1 N1        12.8991    3.1327    6.1979 N.am      1 RES1    0.0000
      2 H1        13.6884    3.5914    6.4590 H         1 RES1    0.0000
      3 N2         9.7121    1.9818    7.5223 N.pl3     1 RES1    0.0000
      4 O1        13.8611    3.0753    4.1459 O.2       1 RES1    0.0000
      5 O2         8.7968    1.2719    7.1644 O.2       1 RES1    0.0000
      6 O3         9.7722    2.4807    8.6404 O.2       1 RES1    0.0000
      7 C1        12.8885    2.7931    4.8466 C.2       1 RES1    0.0000
      8 C2        11.6991    2.1445    4.3954 C.2       1 RES1    0.0000
      9 H2        11.6244    1.9048    3.5000 H         1 RES1    0.0000
     10 C3        10.6775    1.8704    5.2372 C.2       1 RES1    0.0000
     11 H3         9.9156    1.4354    4.9294 H         1 RES1    0.0000
     12 C4        10.7858    2.2548    6.5908 C.2       1 RES1    0.0000
     13 C5        11.8835    2.8808    7.0420 C.2       1 RES1    0.0000
     14 H4        11.9408    3.1389    7.9339 H         1 RES1    0.0000
     15 N3        16.3504    3.7338    5.3771 N.am      2 RES2    0.0000
     16 H5        15.5917    3.4842    4.9667 H         2 RES2    0.0000
     17 N4        19.9080    3.7155    4.6181 N.pl3     2 RES2    0.0000
     18 O4        15.1063    4.4992    7.1061 O.2       2 RES2    0.0000
     19 O5        20.9107    4.2856    5.0180 O.2       2 RES2    0.0000
     20 O6        19.9018    2.9658    3.6457 O.2       2 RES2    0.0000
     21 C6        16.2335    4.3488    6.6001 C.2       2 RES2    0.0000
     22 C7        17.4558    4.7894    7.1854 C.2       2 RES2    0.0000
     23 H6        17.4353    5.2194    8.0097 H         2 RES2    0.0000
     24 C8        18.6444    4.5988    6.5733 C.2       2 RES2    0.0000
     25 H7        19.4319    4.8940    6.9697 H         2 RES2    0.0000
     26 C9        18.6725    3.9494    5.3304 C.2       2 RES2    0.0000
     27 C10       17.5263    3.5267    4.7428 C.2       2 RES2    0.0000
     28 H8        17.5494    3.1009    3.9162 H         2 RES2    0.0000
@<TRIPOS>BOND
     1    1    2 1
     2    3    5 2
     3    4    7 2
     4    6    3 2
     5    7    1 1
     6    8    7 1
     7    9    8 1
     8   10    8 2
     9   11   10 1
    10   12    3 1
    11   13    1 1
    12   14   13 1
    13   15   16 1
    14   17   19 2
    15   18   21 2
    16   20   17 2
    17   21   15 1
    18   22   21 1
    19   23   22 1
    20   24   22 2
    21   25   24 1
    22   26   17 1
    23   27   15 1
    24   28   27 1
    25   10   12 1
    26   12   13 2
    27   24   26 1
    28   26   27 2
@<TRIPOS>SUBSTRUCTURE
     1 RES1 1
     2 RES2 15

@<TRIPOS>CRYSIN
  25.9300    3.8288   11.6589  90.0000  90.0000  90.0000  29 1

