# MOL2 file generated by ConQuest
# Please check atom types

@<TRIPOS>MOLECULE
ELOZUB
    30    31     1
SMALL
NO_CHARGES
****
Generated from CSD

@<TRIPOS>ATOM
      1 N1         3.3002   14.0017    4.8932 N.pl3     1 RES1    0.0000
      2 N2         2.6311   14.1424    6.0534 N.2       1 RES1    0.0000
      3 N3         2.9609   13.5399    8.3325 N.pl3     1 RES1    0.0000
      4 O1         1.9216   14.1455    8.6027 O.2       1 RES1    0.0000
      5 O2         3.6456   12.9260    9.1434 O.2       1 RES1    0.0000
      6 N4         5.4221   13.1604    4.0292 N.pl3     1 RES1    0.0000
      7 O3         6.4055   12.4540    4.2398 O.2       1 RES1    0.0000
      8 O4         5.1866   13.7342    2.9681 O.2       1 RES1    0.0000
      9 N5         2.3500   12.3904    2.5040 N.pl3     1 RES1    0.0000
     10 O5         2.9201   11.7759    3.3937 O.2       1 RES1    0.0000
     11 O6         1.9047   11.8680    1.4909 O.2       1 RES1    0.0000
     12 N6         0.4724   16.4941    0.6829 N.pl3     1 RES1    0.0000
     13 C1         3.4168   13.5558    6.9512 C.2       1 RES1    0.0000
     14 C2         4.6140   13.0191    6.4395 C.2       1 RES1    0.0000
     15 C3         4.4821   13.3373    5.1073 C.2       1 RES1    0.0000
     16 C4         5.7441   12.3334    7.1442 C.3       1 RES1    0.0000
     17 H1         6.5119   12.2639    6.5396 H         1 RES1    0.0000
     18 H2         5.4615   11.4364    7.4174 H         1 RES1    0.0000
     19 H3         5.9980   12.8520    7.9364 H         1 RES1    0.0000
     20 C5         2.6927   14.5793    3.7269 C.ar      1 RES1    0.0000
     21 C6         2.1768   13.8503    2.6470 C.ar      1 RES1    0.0000
     22 C7         1.4595   14.4718    1.6490 C.ar      1 RES1    0.0000
     23 H4         1.0953   13.9746    0.9260 H         1 RES1    0.0000
     24 C8         1.2838   15.8451    1.7282 C.ar      1 RES1    0.0000
     25 C9         1.8241   16.6097    2.7380 C.ar      1 RES1    0.0000
     26 H5         1.7195   17.5550    2.7444 H         1 RES1    0.0000
     27 C10        2.5272   15.9614    3.7506 C.ar      1 RES1    0.0000
     28 H6         2.8975   16.4681    4.4645 H         1 RES1    0.0000
     29 O7         0.2551   17.6911    0.8031 O.2       1 RES1    0.0000
     30 O8         0.0681   15.8196   -0.2595 O.2       1 RES1    0.0000
@<TRIPOS>BOND
     1    1    2 1
     2    2   13 2
     3    3    4 2
     4    5    3 2
     5    6    7 2
     6    8    6 2
     7    9   10 2
     8   11    9 2
     9   12   24 1
    10   13    3 1
    11   14   13 1
    12   15    1 1
    13   16   14 1
    14   17   16 1
    15   18   16 1
    16   19   16 1
    17   20    1 1
    18   21    9 1
    19   22   21 ar
    20   23   22 1
    21   24   22 ar
    22   25   24 ar
    23   26   25 1
    24   27   20 ar
    25   28   27 1
    26   29   12 2
    27   30   12 2
    28    6   15 1
    29   14   15 2
    30   20   21 ar
    31   25   27 ar
@<TRIPOS>SUBSTRUCTURE
     1 RES1 1

@<TRIPOS>CRYSIN
   6.4237   22.3630    9.2569  90.0000 100.3740  90.0000  14 1

