# MOL2 file generated by ConQuest
# Please check atom types

@<TRIPOS>MOLECULE
ELUBIW
    41    43     1
SMALL
NO_CHARGES
****
Generated from CSD

@<TRIPOS>ATOM
      1 N1         6.2524    2.6572    5.8001 N.3       1 RES1    0.0000
      2 C1         6.0443    3.9472    5.4911 C.2       1 RES1    0.0000
      3 N2         4.8853    4.1509    4.8609 N.2       1 RES1    0.0000
      4 C2         4.2931    2.9449    4.7869 C.2       1 RES1    0.0000
      5 C3         5.1212    1.9715    5.3635 C.2       1 RES1    0.0000
      6 C4         7.4739    2.1384    6.3926 C.3       1 RES1    0.0000
      7 H1         8.2278    2.7249    6.0930 H         1 RES1    0.0000
      8 H2         7.5908    1.2370    6.0911 H         1 RES1    0.0000
      9 C5         7.4310    2.1289    7.9052 C.2       1 RES1    0.0000
     10 O1         6.4124    2.4092    8.4881 O.2       1 RES1    0.0000
     11 C6         8.6911    1.7784    8.6119 C.ar      1 RES1    0.0000
     12 C7         9.8227    1.3374    7.9290 C.ar      1 RES1    0.0000
     13 H3         9.7839    1.1928    6.9719 H         1 RES1    0.0000
     14 C8        10.9794    1.0459    8.6283 C.ar      1 RES1    0.0000
     15 H4        11.8231    0.7271    8.0909 H         1 RES1    0.0000
     16 C9        11.0199    1.1871    9.9921 C.ar      1 RES1    0.0000
     17 H5        11.7964    1.0137   10.4913 H         1 RES1    0.0000
     18 C10        9.9047    1.6025   10.6739 C.ar      1 RES1    0.0000
     19 H6         9.9539    1.6922   11.6390 H         1 RES1    0.0000
     20 C11        8.7421    1.8960    9.9894 C.ar      1 RES1    0.0000
     21 H7         7.9438    2.1769   10.4531 H         1 RES1    0.0000
     22 C12        6.9804    5.0363    5.8434 C.3       1 RES1    0.0000
     23 H8         6.6155    5.8944    5.5661 H         1 RES1    0.0000
     24 H9         7.8385    4.9397    5.4322 H         1 RES1    0.0000
     25 H10        7.1338    5.0472    6.7902 H         1 RES1    0.0000
     26 N3         3.0696    2.7143    4.2506 N.pl3     1 RES1    0.0000
     27 H11        2.8677    1.8545    4.2501 H         1 RES1    0.0000
     28 C13        2.1685    3.6488    3.6926 C.ar      1 RES1    0.0000
     29 C14        2.3344    5.0213    3.7740 C.ar      1 RES1    0.0000
     30 H12        3.0932    5.3865    4.2338 H         1 RES1    0.0000
     31 C15        1.3941    5.8582    3.2044 C.ar      1 RES1    0.0000
     32 H13        1.5173    6.8427    3.2928 H         1 RES1    0.0000
     33 C16        0.2943    5.3427    2.5554 C.ar      1 RES1    0.0000
     34 H14       -0.3544    5.9618    2.1423 H         1 RES1    0.0000
     35 C17        0.1224    3.9840    2.4889 C.ar      1 RES1    0.0000
     36 H15       -0.6190    3.5952    2.0084 H         1 RES1    0.0000
     37 C18        1.0521    3.1272    3.0540 C.ar      1 RES1    0.0000
     38 H16        0.9245    2.1664    3.0020 H         1 RES1    0.0000
     39 N4         4.8758    0.6474    5.5376 N.pl3     1 RES1    0.0000
     40 O2         5.6752   -0.0864    6.1482 O.2       1 RES1    0.0000
     41 O3         3.7974    0.1922    5.0620 O.2       1 RES1    0.0000
@<TRIPOS>BOND
     1    1    2 1
     2    2    3 2
     3    3    4 1
     4    4    5 2
     5    5    1 1
     6    6    1 1
     7    7    6 1
     8    8    6 1
     9    9    6 1
    10   10    9 2
    11   11    9 1
    12   12   11 ar
    13   13   12 1
    14   14   12 ar
    15   15   14 1
    16   16   14 ar
    17   17   16 1
    18   18   16 ar
    19   19   18 1
    20   20   11 ar
    21   21   20 1
    22   22    2 1
    23   23   22 1
    24   24   22 1
    25   25   22 1
    26   26    4 1
    27   27   26 1
    28   28   26 1
    29   29   28 ar
    30   30   29 1
    31   31   29 ar
    32   32   31 1
    33   33   31 ar
    34   34   33 1
    35   35   33 ar
    36   36   35 1
    37   37   28 ar
    38   38   37 1
    39   39    5 1
    40   40   39 2
    41   41   39 2
    42   18   20 ar
    43   35   37 ar
@<TRIPOS>SUBSTRUCTURE
     1 RES1 1

@<TRIPOS>CRYSIN
   7.8710   21.0740   10.0300  90.0000 107.5400  90.0000 231 1

