# MOL2 file generated by ConQuest
# Please check atom types

@<TRIPOS>MOLECULE
ELUDEV01
    22    23     1
SMALL
NO_CHARGES
****
Generated from CSD

@<TRIPOS>ATOM
      1 O1        -1.2532    3.5915    8.4166 O.3       1 RES1    0.0000
      2 O2         2.1054    1.5334    7.7633 O.2       1 RES1    0.0000
      3 O3         2.8966    1.3653    5.7435 O.2       1 RES1    0.0000
      4 N1        -1.1141    4.6819    5.1482 N.2       1 RES1    0.0000
      5 N2        -1.7175    4.2924    7.3566 N.2       1 RES1    0.0000
      6 N3        -0.0909    2.8824    8.1013 N.2       1 RES1    0.0000
      7 N4         1.1846    2.6867    6.0825 N.pl3     1 RES1    0.0000
      8 H1         1.1900    2.6811    5.2421 H         1 RES1    0.0000
      9 N5         2.1135    1.7898    6.5717 N.pl3     1 RES1    0.0000
     10 C1        -0.8828    4.0538    6.3759 C.2       1 RES1    0.0000
     11 C2         0.1421    3.1565    6.8461 C.2       1 RES1    0.0000
     12 O1B       -0.0620    5.5280    1.0457 O.3       1 RES1    0.0000
     13 O2B       -3.4206    7.5861    1.6989 O.2       1 RES1    0.0000
     14 O3B       -4.2118    7.7542    3.7188 O.2       1 RES1    0.0000
     15 N1B       -0.2011    4.4376    4.3140 N.2       1 RES1    0.0000
     16 N2B        0.4023    4.8271    2.1056 N.2       1 RES1    0.0000
     17 N3B       -1.2243    6.2371    1.3610 N.2       1 RES1    0.0000
     18 N4B       -2.4998    6.4328    3.3797 N.pl3     1 RES1    0.0000
     19 H1B       -2.5052    6.4384    4.2202 H         1 RES1    0.0000
     20 N5B       -3.4287    7.3297    2.8905 N.pl3     1 RES1    0.0000
     21 C1B       -0.4323    5.0657    3.0863 C.2       1 RES1    0.0000
     22 C2B       -1.4572    5.9630    2.6161 C.2       1 RES1    0.0000
@<TRIPOS>BOND
     1    1    5 1
     2    2    9 2
     3    3    9 2
     4    4   10 1
     5    5   10 2
     6    6    1 1
     7    7    8 1
     8    9    7 1
     9   10   11 1
    10   11    6 2
    11   12   16 1
    12   13   20 2
    13   14   20 2
    14   15    4 2
    15   16   21 2
    16   17   12 1
    17   18   19 1
    18   20   18 1
    19   21   15 1
    20   22   17 2
    21    7   11 1
    22   18   22 1
    23   21   22 1
@<TRIPOS>SUBSTRUCTURE
     1 RES1 1

@<TRIPOS>CRYSIN
   5.6265    9.1195    9.5532  90.0000  97.9130  90.0000  14 1

