# MOL2 file generated by ConQuest
# Please check atom types

@<TRIPOS>MOLECULE
ELUKED
    48    48     3
SMALL
NO_CHARGES
****
Generated from CSD

@<TRIPOS>ATOM
      1 C1         3.8327   -1.6789    5.9078 C.2       1 RES1    0.0000
      2 N1         4.8992   -0.8730    5.8002 N.2       1 RES1    0.0000
      3 C2         1.7462   -2.5983    6.1121 C.3       1 RES1    0.0000
      4 H1         1.1221   -2.6138    5.3722 H         1 RES1    0.0000
      5 H2         1.2481   -2.7152    6.9377 H         1 RES1    0.0000
      6 O1         4.5034    0.3248    5.9250 O.3       1 RES1    0.0000
      7 C3         2.4456   -1.3730    6.1355 C.3       1 RES1    0.0000
      8 H3         2.3325   -0.9366    6.9954 H         1 RES1    0.0000
      9 H4         2.1123   -0.7819    5.4432 H         1 RES1    0.0000
     10 C4         2.7115   -3.6517    5.9639 C.3       1 RES1    0.0000
     11 H5         2.4774   -4.2085    5.2062 H         1 RES1    0.0000
     12 H6         2.7145   -4.2102    6.7607 H         1 RES1    0.0000
     13 C5         4.0837   -3.0520    5.7612 C.3       1 RES1    0.0000
     14 H7         4.7117   -3.3699    6.4270 H         1 RES1    0.0000
     15 H8         4.4290   -3.2548    4.8748 H         1 RES1    0.0000
     16 H9         5.1096    1.0826    5.7924 H         1 RES1    0.0000
     17 C6         6.8647    5.5420    5.3013 C.3       2 RES2    0.0000
     18 H10        7.3022    5.7087    6.1487 H         2 RES2    0.0000
     19 H11        6.9708    6.3239    4.7353 H         2 RES2    0.0000
     20 O2         7.9183    1.6033    4.4079 O.3       2 RES2    0.0000
     21 C7         6.5760    3.2032    5.2389 C.2       2 RES2    0.0000
     22 C8         5.4310    5.2378    5.5024 C.3       2 RES2    0.0000
     23 H12        5.0689    5.7517    6.2415 H         2 RES2    0.0000
     24 H13        4.9191    5.4338    4.7025 H         2 RES2    0.0000
     25 C9         7.4570    4.3168    4.6277 C.3       2 RES2    0.0000
     26 H14        8.3916    4.1999    4.8585 H         2 RES2    0.0000
     27 H15        7.3657    4.3580    3.6633 H         2 RES2    0.0000
     28 C10        5.4062    3.8304    5.7924 C.3       2 RES2    0.0000
     29 H16        4.6066    3.4318    5.4182 H         2 RES2    0.0000
     30 H17        5.3884    3.6964    6.7560 H         2 RES2    0.0000
     31 N2         6.7159    1.9298    5.1461 N.2       2 RES2    0.0000
     32 H18        8.2845    0.7733    4.6542 H         2 RES2    0.0000
     33 N3         8.2388   -1.1170    4.9676 N.2       3 RES3    0.0000
     34 C11       11.4038   -2.9867    4.6488 C.3       3 RES3    0.0000
     35 H19       12.0001   -3.4283    5.2709 H         3 RES3    0.0000
     36 H20       11.4445   -3.4386    3.7920 H         3 RES3    0.0000
     37 O3         7.4004   -2.0329    5.5663 O.3       3 RES3    0.0000
     38 C12        9.4621   -1.6102    4.8343 C.2       3 RES3    0.0000
     39 C13        9.9126   -2.9575    5.2077 C.3       3 RES3    0.0000
     40 H21        9.3659   -3.6397    4.7891 H         3 RES3    0.0000
     41 H22        9.8937   -3.0795    6.1698 H         3 RES3    0.0000
     42 C14       11.7490   -1.5329    4.5084 C.3       3 RES3    0.0000
     43 H23       12.0864   -1.1789    5.3465 H         3 RES3    0.0000
     44 H24       12.4247   -1.4074    3.8239 H         3 RES3    0.0000
     45 C15       10.5069   -0.8627    4.1319 C.3       3 RES3    0.0000
     46 H25       10.3719   -0.9005    3.1722 H         3 RES3    0.0000
     47 H26       10.5148    0.0653    4.4133 H         3 RES3    0.0000
     48 H27        6.8458   -1.3060    5.3559 H         3 RES3    0.0000
@<TRIPOS>BOND
     1    1    2 2
     2    2    6 1
     3    3    4 1
     4    5    3 1
     5    6   16 1
     6    7    1 1
     7    8    7 1
     8    9    7 1
     9   10    3 1
    10   11   10 1
    11   12   10 1
    12   13    1 1
    13   14   13 1
    14   15   13 1
    15   17   18 1
    16   19   17 1
    17   20   31 1
    18   21   25 1
    19   22   17 1
    20   23   22 1
    21   24   22 1
    22   25   17 1
    23   26   25 1
    24   27   25 1
    25   28   21 1
    26   29   28 1
    27   30   28 1
    28   31   21 2
    29   32   20 1
    30   33   37 1
    31   34   35 1
    32   36   34 1
    33   37   48 1
    34   38   33 2
    35   39   34 1
    36   40   39 1
    37   41   39 1
    38   42   34 1
    39   43   42 1
    40   44   42 1
    41   45   38 1
    42   46   45 1
    43   47   45 1
    44    3    7 1
    45   10   13 1
    46   22   28 1
    47   38   39 1
    48   42   45 1
@<TRIPOS>SUBSTRUCTURE
     1 RES1 1
     2 RES2 17
     3 RES3 33

@<TRIPOS>CRYSIN
  19.8430   19.8430    7.7960  90.0000  90.0000 120.0000 173 1

