# MOL2 file generated by ConQuest
# Please check atom types

@<TRIPOS>MOLECULE
ELUREJ01
    65    54     2
SMALL
NO_CHARGES
****
Generated from CSD

@<TRIPOS>ATOM
      1 O1        -3.7414    1.0626    4.3456 O.2       1 RES1    0.0000
      2 O2        -1.2082   -0.5333    0.3130 O.2       1 RES1    0.0000
      3 N1        -3.5558    2.2594    3.9160 N.3       1 RES1    0.0000
      4 N2        -1.1811    0.7046   -0.0467 N.3       1 RES1    0.0000
      5 C1        -2.4706    2.4447    2.9752 C.ar      1 RES1    0.0000
      6 C2        -2.3322    1.4978    1.9639 C.ar      1 RES1    0.0000
      7 C3        -1.3167    1.6807    1.0199 C.ar      1 RES1    0.0000
      8 C4        -0.4426    2.7618    1.1133 C.ar      1 RES1    0.0000
      9 C5        -0.5624    3.7006    2.1495 C.ar      1 RES1    0.0000
     10 C6        -1.6027    3.5239    3.0772 C.ar      1 RES1    0.0000
     11 C7         0.3957    4.8430    2.2688 C.ar      1 RES1    0.0000
     12 C8         1.0130    5.3802    1.1219 C.ar      1 RES1    0.0000
     13 C9         1.8989    6.4537    1.2435 C.ar      1 RES1    0.0000
     14 C10        2.1718    7.0067    2.4826 C.ar      1 RES1    0.0000
     15 C11        1.5827    6.4901    3.6371 C.ar      1 RES1    0.0000
     16 C12        0.7022    5.4156    3.5112 C.ar      1 RES1    0.0000
     17 C13       -4.7272    3.2037    3.9811 C.3       1 RES1    0.0000
     18 C14       -4.2681    4.5020    4.6820 C.3       1 RES1    0.0000
     19 C15       -5.8118    2.6038    4.8317 C.3       1 RES1    0.0000
     20 C16       -5.1719    3.5082    2.5661 C.3       1 RES1    0.0000
     21 C17       -1.7880    1.0178   -1.4073 C.3       1 RES1    0.0000
     22 C18       -1.4430    2.4516   -1.8131 C.3       1 RES1    0.0000
     23 C19       -3.2971    0.8209   -1.2956 C.3       1 RES1    0.0000
     24 C20       -1.2153    0.0542   -2.4262 C.3       1 RES1    0.0000
     25 C21        1.9004    7.0927    4.9858 C.3       1 RES1    0.0000
     26 H1        -2.9236    0.7715    1.9314 H         1 RES1    0.0000
     27 H2         0.2980    2.8014    0.4340 H         1 RES1    0.0000
     28 H3        -1.6778    4.1083    3.7434 H         1 RES1    0.0000
     29 H4         0.8557    4.9553    0.1628 H         1 RES1    0.0000
     30 H5         2.3306    6.8384    0.3364 H         1 RES1    0.0000
     31 H6         2.6795    7.7306    2.6258 H         1 RES1    0.0000
     32 H7         0.4075    4.9797    4.2643 H         1 RES1    0.0000
     33 H8        -4.4415    4.3750    5.6075 H         1 RES1    0.0000
     34 H9        -4.7499    5.2591    4.3706 H         1 RES1    0.0000
     35 H10       -3.3380    4.6434    4.5507 H         1 RES1    0.0000
     36 H11       -6.3778    2.1196    4.2426 H         1 RES1    0.0000
     37 H12       -6.3114    3.2901    5.2582 H         1 RES1    0.0000
     38 H13       -5.4594    2.0142    5.4882 H         1 RES1    0.0000
     39 H14       -4.6978    4.2826    2.2873 H         1 RES1    0.0000
     40 H15       -6.1049    3.6844    2.5520 H         1 RES1    0.0000
     41 H16       -4.9763    2.7889    1.9770 H         1 RES1    0.0000
     42 H17       -1.7263    3.0534   -1.2153 H         1 RES1    0.0000
     43 H18       -1.9188    2.5947   -2.5499 H         1 RES1    0.0000
     44 H19       -0.4258    2.5784   -1.7686 H         1 RES1    0.0000
     45 H20       -3.4914   -0.1808   -1.1176 H         1 RES1    0.0000
     46 H21       -3.7878    0.8997   -2.2135 H         1 RES1    0.0000
     47 H22       -3.6173    1.3925   -0.7161 H         1 RES1    0.0000
     48 H23       -0.2725    0.2106   -2.5390 H         1 RES1    0.0000
     49 H24       -1.6374    0.1888   -3.2769 H         1 RES1    0.0000
     50 H25       -1.4355   -0.8631   -2.1593 H         1 RES1    0.0000
     51 H26        2.9476    7.0132    5.0563 H         1 RES1    0.0000
     52 H27        1.5902    6.6090    5.5880 H         1 RES1    0.0000
     53 H28        1.8143    7.9685    4.9912 H         1 RES1    0.0000
     54 C22       -5.2146    3.2320    5.4437 Du        2 SUP2    0.0000
     55 C23       -5.7208    2.5480    3.0099 Du        2 SUP2    0.0000
     56 C24       -4.3696    4.5756    3.4939 Du        2 SUP2    0.0000
     57 H29       -4.5153    3.0297    6.0578 Du        2 SUP2    0.0000
     58 H30       -5.5966    4.0718    5.6672 Du        2 SUP2    0.0000
     59 H31       -5.8765    2.5570    5.4839 Du        2 SUP2    0.0000
     60 H32       -6.6156    2.7396    3.2671 Du        2 SUP2    0.0000
     61 H33       -5.6037    1.6075    2.9470 Du        2 SUP2    0.0000
     62 H34       -5.5422    2.9468    2.1668 Du        2 SUP2    0.0000
     63 H35       -5.0954    5.0390    3.0957 Du        2 SUP2    0.0000
     64 H36       -3.6262    4.5777    2.9047 Du        2 SUP2    0.0000
     65 H37       -4.1286    5.0043    4.3087 Du        2 SUP2    0.0000
@<TRIPOS>BOND
     1    1    3 1
     2    2    4 1
     3    3    5 1
     4    4    7 1
     5    5    6 ar
     6    6    7 ar
     7    7    8 ar
     8    8    9 ar
     9    9   10 ar
    10   10    5 ar
    11   11    9 1
    12   12   11 ar
    13   13   12 ar
    14   14   13 ar
    15   15   14 ar
    16   16   11 ar
    17   17    3 1
    18   18   17 1
    19   19   17 1
    20   20   17 1
    21   21    4 1
    22   22   21 1
    23   23   21 1
    24   24   21 1
    25   25   15 1
    26   26    6 1
    27   27    8 1
    28   28   10 1
    29   29   12 1
    30   30   13 1
    31   31   14 1
    32   32   16 1
    33   33   18 1
    34   34   18 1
    35   35   18 1
    36   36   19 1
    37   37   19 1
    38   38   19 1
    39   39   20 1
    40   40   20 1
    41   41   20 1
    42   42   22 1
    43   43   22 1
    44   44   22 1
    45   45   23 1
    46   46   23 1
    47   47   23 1
    48   48   24 1
    49   49   24 1
    50   50   24 1
    51   51   25 1
    52   52   25 1
    53   53   25 1
    54   15   16 ar
@<TRIPOS>SUBSTRUCTURE
     1 RES1 1
     2 SUP2 54

@<TRIPOS>CRYSIN
   9.4350   10.4957   11.8671 109.6100  93.8700 114.4330   2 1

