# MOL2 file generated by ConQuest
# Please check atom types

@<TRIPOS>MOLECULE
EMABOK
   124   128     1
SMALL
NO_CHARGES
****
Generated from CSD

@<TRIPOS>ATOM
      1 O1        -0.1687    7.2530    4.3894 O.3       1 RES1    0.0000
      2 O2         1.9391   12.1866    3.2501 O.2       1 RES1    0.0000
      3 O3        -0.1218    4.5064    4.4339 O.3       1 RES1    0.0000
      4 O4         4.5044    3.1681    1.7891 O.2       1 RES1    0.0000
      5 N1        -2.2543    7.2697    3.3412 N.ar      1 RES1    0.0000
      6 N2         1.4919   11.0048    3.5018 N.3       1 RES1    0.0000
      7 N3         3.4213    3.4980    2.3990 N.3       1 RES1    0.0000
      8 N4        -2.2543    1.9256    3.3412 N.1       1 RES1    0.0000
      9 C1        -1.2198    6.5969    3.8436 C.ar      1 RES1    0.0000
     10 C2        -1.1583    5.1988    3.8704 C.ar      1 RES1    0.0000
     11 C3        -2.2543    4.5125    3.3412 C.ar      1 RES1    0.0000
     12 C4         1.2066   10.7029    4.9427 C.3       1 RES1    0.0000
     13 C5         0.9807    9.1965    5.1099 C.3       1 RES1    0.0000
     14 H1         1.8418    8.7222    4.9998 H         1 RES1    0.0000
     15 H2         0.6477    9.0151    6.0249 H         1 RES1    0.0000
     16 C6        -0.0138    8.6680    4.1007 C.3       1 RES1    0.0000
     17 H3        -0.8912    9.1435    4.1872 H         1 RES1    0.0000
     18 C7         0.5570    8.8482    2.7073 C.3       1 RES1    0.0000
     19 H4        -0.0743    8.4642    2.0488 H         1 RES1    0.0000
     20 H5         1.4077    8.3464    2.6395 H         1 RES1    0.0000
     21 C8         0.8145   10.3172    2.3534 C.3       1 RES1    0.0000
     22 C9         2.4317   11.1101    5.7612 C.3       1 RES1    0.0000
     23 H6         2.5675   12.0778    5.6881 H         1 RES1    0.0000
     24 H7         3.2231   10.6433    5.4194 H         1 RES1    0.0000
     25 H8         2.2910   10.8698    6.7011 H         1 RES1    0.0000
     26 C10       -0.0125   11.5193    5.4071 C.3       1 RES1    0.0000
     27 H9         0.1528   12.4723    5.2484 H         1 RES1    0.0000
     28 H10       -0.1623   11.3681    6.3643 H         1 RES1    0.0000
     29 H11       -0.8056   11.2374    4.9049 H         1 RES1    0.0000
     30 C11        1.7522   10.3843    1.1458 C.3       1 RES1    0.0000
     31 H12        1.9149   11.3215    0.9101 H         1 RES1    0.0000
     32 H13        1.3393    9.9244    0.3862 H         1 RES1    0.0000
     33 H14        2.6020    9.9512    1.3686 H         1 RES1    0.0000
     34 C12       -0.4864   11.0597    2.0256 C.3       1 RES1    0.0000
     35 H15       -0.3027   12.0182    1.9339 H         1 RES1    0.0000
     36 H16       -1.1326   10.9188    2.7478 H         1 RES1    0.0000
     37 H17       -0.8559   10.7169    1.1855 H         1 RES1    0.0000
     38 C13        2.3059    3.9742    1.5349 C.3       1 RES1    0.0000
     39 C14        0.9954    3.9650    2.3328 C.3       1 RES1    0.0000
     40 H18        0.3045    4.4597    1.8243 H         1 RES1    0.0000
     41 H19        0.6857    3.0299    2.4324 H         1 RES1    0.0000
     42 C15        1.1368    4.5853    3.7021 C.3       1 RES1    0.0000
     43 H20        1.4345    5.5370    3.6232 H         1 RES1    0.0000
     44 C16        2.1430    3.7853    4.5001 C.3       1 RES1    0.0000
     45 H21        1.8300    2.8490    4.5721 H         1 RES1    0.0000
     46 H22        2.2013    4.1574    5.4154 H         1 RES1    0.0000
     47 C17        3.5368    3.8047    3.8561 C.3       1 RES1    0.0000
     48 C18        2.1616    2.9723    0.3889 C.3       1 RES1    0.0000
     49 H23        2.0728    2.0682    0.7551 H         1 RES1    0.0000
     50 H24        2.9565    3.0148   -0.1844 H         1 RES1    0.0000
     51 H25        1.3653    3.1922   -0.1390 H         1 RES1    0.0000
     52 C19        2.6421    5.3606    0.9696 C.3       1 RES1    0.0000
     53 H26        3.5290    5.3374    0.5520 H         1 RES1    0.0000
     54 H27        2.6393    6.0190    1.6960 H         1 RES1    0.0000
     55 H28        1.9733    5.6117    0.2994 H         1 RES1    0.0000
     56 C20        4.3909    2.6961    4.4806 C.3       1 RES1    0.0000
     57 H29        5.2928    2.7242    4.0990 H         1 RES1    0.0000
     58 H30        3.9832    1.8243    4.2928 H         1 RES1    0.0000
     59 H31        4.4429    2.8304    5.4502 H         1 RES1    0.0000
     60 C21        4.2309    5.1620    4.0342 C.3       1 RES1    0.0000
     61 H32        5.0589    5.1764    3.5096 H         1 RES1    0.0000
     62 H33        4.4422    5.2989    4.9811 H         1 RES1    0.0000
     63 H34        3.6366    5.8767    3.7248 H         1 RES1    0.0000
     64 C22       -2.2543    3.0713    3.3412 C.1       1 RES1    0.0000
     65 O1A       -4.3398    7.2530    2.2930 O.3       1 RES1    0.0000
     66 O2A       -6.4476   12.1866    3.4323 O.2       1 RES1    0.0000
     67 O3A       -4.3867    4.5064    2.2485 O.3       1 RES1    0.0000
     68 O4A       -9.0130    3.1681    4.8933 O.2       1 RES1    0.0000
     69 N2A       -6.0005   11.0048    3.1806 N.3       1 RES1    0.0000
     70 N3A       -7.9299    3.4980    4.2834 N.3       1 RES1    0.0000
     71 C1A       -3.2887    6.5969    2.8388 C.ar      1 RES1    0.0000
     72 C2A       -3.3503    5.1988    2.8120 C.ar      1 RES1    0.0000
     73 C4A       -5.7152   10.7029    1.7397 C.3       1 RES1    0.0000
     74 C5A       -5.4892    9.1965    1.5725 C.3       1 RES1    0.0000
     75 H1A       -6.3503    8.7222    1.6826 H         1 RES1    0.0000
     76 H2A       -5.1563    9.0151    0.6575 H         1 RES1    0.0000
     77 C6A       -4.4947    8.6680    2.5817 C.3       1 RES1    0.0000
     78 H3A       -3.6174    9.1435    2.4952 H         1 RES1    0.0000
     79 C7A       -5.0655    8.8482    3.9751 C.3       1 RES1    0.0000
     80 H4A       -4.4342    8.4642    4.6336 H         1 RES1    0.0000
     81 H5A       -5.9162    8.3464    4.0429 H         1 RES1    0.0000
     82 C8A       -5.3231   10.3172    4.3290 C.3       1 RES1    0.0000
     83 C9A       -6.9402   11.1101    0.9212 C.3       1 RES1    0.0000
     84 H6A       -7.0760   12.0778    0.9943 H         1 RES1    0.0000
     85 H7A       -7.7316   10.6433    1.2630 H         1 RES1    0.0000
     86 H8A       -6.7995   10.8698   -0.0187 H         1 RES1    0.0000
     87 C10A      -4.4961   11.5193    1.2753 C.3       1 RES1    0.0000
     88 H9A       -4.6613   12.4723    1.4340 H         1 RES1    0.0000
     89 H10A      -4.3462   11.3681    0.3181 H         1 RES1    0.0000
     90 H11A      -3.7029   11.2374    1.7775 H         1 RES1    0.0000
     91 C11A      -6.2608   10.3843    5.5366 C.3       1 RES1    0.0000
     92 H12A      -6.4234   11.3215    5.7723 H         1 RES1    0.0000
     93 H13A      -5.8478    9.9244    6.2962 H         1 RES1    0.0000
     94 H14A      -7.1105    9.9512    5.3138 H         1 RES1    0.0000
     95 C12A      -4.0221   11.0597    4.6568 C.3       1 RES1    0.0000
     96 H15A      -4.2058   12.0182    4.7485 H         1 RES1    0.0000
     97 H16A      -3.3760   10.9188    3.9346 H         1 RES1    0.0000
     98 H17A      -3.6526   10.7169    5.4969 H         1 RES1    0.0000
     99 C13A      -6.8144    3.9742    5.1475 C.3       1 RES1    0.0000
    100 C14A      -5.5039    3.9650    4.3496 C.3       1 RES1    0.0000
    101 H18A      -4.8130    4.4597    4.8581 H         1 RES1    0.0000
    102 H19A      -5.1943    3.0299    4.2500 H         1 RES1    0.0000
    103 C15A      -5.6453    4.5853    2.9804 C.3       1 RES1    0.0000
    104 H20A      -5.9430    5.5370    3.0592 H         1 RES1    0.0000
    105 C16A      -6.6515    3.7853    2.1823 C.3       1 RES1    0.0000
    106 H21A      -6.3385    2.8490    2.1103 H         1 RES1    0.0000
    107 H22A      -6.7098    4.1574    1.2670 H         1 RES1    0.0000
    108 C17A      -8.0453    3.8047    2.8263 C.3       1 RES1    0.0000
    109 C18A      -6.6701    2.9723    6.2935 C.3       1 RES1    0.0000
    110 H23A      -6.5813    2.0682    5.9273 H         1 RES1    0.0000
    111 H24A      -7.4650    3.0148    6.8668 H         1 RES1    0.0000
    112 H25A      -5.8738    3.1922    6.8214 H         1 RES1    0.0000
    113 C19A      -7.1506    5.3606    5.7128 C.3       1 RES1    0.0000
    114 H26A      -8.0376    5.3374    6.1304 H         1 RES1    0.0000
    115 H27A      -7.1478    6.0190    4.9864 H         1 RES1    0.0000
    116 H28A      -6.4818    5.6117    6.3830 H         1 RES1    0.0000
    117 C20A      -8.8994    2.6961    2.2019 C.3       1 RES1    0.0000
    118 H29A      -9.8013    2.7242    2.5834 H         1 RES1    0.0000
    119 H30A      -8.4917    1.8243    2.3896 H         1 RES1    0.0000
    120 H31A      -8.9514    2.8304    1.2322 H         1 RES1    0.0000
    121 C21A      -8.7395    5.1620    2.6482 C.3       1 RES1    0.0000
    122 H32A      -9.5674    5.1764    3.1728 H         1 RES1    0.0000
    123 H33A      -8.9508    5.2989    1.7013 H         1 RES1    0.0000
    124 H34A      -8.1452    5.8767    2.9576 H         1 RES1    0.0000
@<TRIPOS>BOND
     1    1    9 1
     2    2    6 1
     3    3   10 1
     4    4    7 1
     5    5    9 ar
     6    6   12 1
     7    7   38 1
     8    8   64 3
     9    9   10 ar
    10   10   11 ar
    11   11   64 1
    12   12   13 1
    13   13   14 1
    14   15   13 1
    15   16    1 1
    16   17   16 1
    17   18   16 1
    18   19   18 1
    19   20   18 1
    20   21    6 1
    21   22   12 1
    22   23   22 1
    23   24   22 1
    24   25   22 1
    25   26   12 1
    26   27   26 1
    27   28   26 1
    28   29   26 1
    29   30   21 1
    30   31   30 1
    31   32   30 1
    32   33   30 1
    33   34   21 1
    34   35   34 1
    35   36   34 1
    36   37   34 1
    37   38   39 1
    38   39   40 1
    39   41   39 1
    40   42    3 1
    41   43   42 1
    42   44   42 1
    43   45   44 1
    44   46   44 1
    45   47    7 1
    46   48   38 1
    47   49   48 1
    48   50   48 1
    49   51   48 1
    50   52   38 1
    51   53   52 1
    52   54   52 1
    53   55   52 1
    54   56   47 1
    55   57   56 1
    56   58   56 1
    57   59   56 1
    58   60   47 1
    59   61   60 1
    60   62   60 1
    61   63   60 1
    62   65   71 1
    63   66   69 1
    64   67   72 1
    65   68   70 1
    66   69   73 1
    67   70   99 1
    68   71    5 ar
    69   72   11 ar
    70   73   74 1
    71   74   75 1
    72   76   74 1
    73   77   65 1
    74   78   77 1
    75   79   77 1
    76   80   79 1
    77   81   79 1
    78   82   69 1
    79   83   73 1
    80   84   83 1
    81   85   83 1
    82   86   83 1
    83   87   73 1
    84   88   87 1
    85   89   87 1
    86   90   87 1
    87   91   82 1
    88   92   91 1
    89   93   91 1
    90   94   91 1
    91   95   82 1
    92   96   95 1
    93   97   95 1
    94   98   95 1
    95   99  100 1
    96  100  101 1
    97  102  100 1
    98  103   67 1
    99  104  103 1
   100  105  103 1
   101  106  105 1
   102  107  105 1
   103  108   70 1
   104  109   99 1
   105  110  109 1
   106  111  109 1
   107  112  109 1
   108  113   99 1
   109  114  113 1
   110  115  113 1
   111  116  113 1
   112  117  108 1
   113  118  117 1
   114  119  117 1
   115  120  117 1
   116  121  108 1
   117  122  121 1
   118  123  121 1
   119  124  121 1
   120   13   16 1
   121   18   21 1
   122   39   42 1
   123   44   47 1
   124   71   72 ar
   125   74   77 1
   126   79   82 1
   127  100  103 1
   128  105  108 1
@<TRIPOS>SUBSTRUCTURE
     1 RES1 1

@<TRIPOS>CRYSIN
  28.0680   11.6716   16.1222  90.0000 124.0070  90.0000  15 1

