# MOL2 file generated by ConQuest
# Please check atom types

@<TRIPOS>MOLECULE
EMAZUP
    35    31     2
SMALL
NO_CHARGES
****
Generated from CSD

@<TRIPOS>ATOM
      1 C1         4.7319    1.7911    6.6263 C.2       1 RES1    0.0000
      2 C2         8.4219    0.8235    7.3657 C.3       1 RES1    0.0000
      3 H1         8.6082    0.5756    6.4254 H         1 RES1    0.0000
      4 H2         8.6597    0.0519    7.9379 H         1 RES1    0.0000
      5 C3         6.1707    1.4898    6.4843 C.2       1 RES1    0.0000
      6 C4         9.2871    2.0245    7.7519 C.3       1 RES1    0.0000
      7 H3         9.1047    2.7677    7.1234 H         1 RES1    0.0000
      8 H4         9.0308    2.3265    8.6590 H         1 RES1    0.0000
      9 C5        10.7804    1.7177    7.7353 C.3       1 RES1    0.0000
     10 H5        10.9752    1.0057    8.3798 H         1 RES1    0.0000
     11 H6        11.2817    2.5239    7.9772 H         1 RES1    0.0000
     12 H7        11.0442    1.4268    6.8374 H         1 RES1    0.0000
     13 C6         6.9579    1.1234    7.5189 C.2       1 RES1    0.0000
     14 C7         6.3881    1.0638    8.8498 C.2       1 RES1    0.0000
     15 C8         4.4302    1.3603   10.3490 C.ar      1 RES1    0.0000
     16 H8         4.9943    1.1366   11.0795 H         1 RES1    0.0000
     17 C9         4.9583    1.3991    9.0561 C.ar      1 RES1    0.0000
     18 C10        3.1003    1.6436   10.5791 C.ar      1 RES1    0.0000
     19 H9         2.7490    1.6089   11.4617 H         1 RES1    0.0000
     20 C11        2.2822    1.9781    9.5144 C.ar      1 RES1    0.0000
     21 H10        1.3658    2.1748    9.6714 H         1 RES1    0.0000
     22 C12        2.7797    2.0300    8.2240 C.ar      1 RES1    0.0000
     23 H11        2.2034    2.2607    7.5042 H         1 RES1    0.0000
     24 C13        4.1292    1.7454    7.9724 C.ar      1 RES1    0.0000
     25 N1         4.2079    2.0370    5.4727 N.2       1 RES1    0.0000
     26 O1         2.8809    2.3092    5.4770 O.3       1 RES1    0.0000
     27 H12        2.6231    2.4588    4.6920 H         1 RES1    0.0000
     28 O2         6.6804    1.6304    5.2355 O.3       1 RES1    0.0000
     29 H13        6.0615    1.8188    4.6988 H         1 RES1    0.0000
     30 O3         7.0901    0.7155    9.8123 O.2       1 RES1    0.0000
     31 N2         3.9231    2.1402    5.6746 Du        2 SUP2    0.0000
     32 O4         4.3679    2.2150    4.3925 Du        2 SUP2    0.0000
     33 H14        5.0872    1.7869    4.3207 Du        2 SUP2    0.0000
     34 O5         6.7619    1.4129    5.2612 Du        2 SUP2    0.0000
     35 H15        7.5340    1.7385    5.3033 Du        2 SUP2    0.0000
@<TRIPOS>BOND
     1    1    5 1
     2    2    3 1
     3    4    2 1
     4    5   13 2
     5    6    2 1
     6    7    6 1
     7    8    6 1
     8    9    6 1
     9   10    9 1
    10   11    9 1
    11   12    9 1
    12   13    2 1
    13   14   13 1
    14   15   16 1
    15   17   14 1
    16   18   15 ar
    17   19   18 1
    18   20   18 ar
    19   21   20 1
    20   22   20 ar
    21   23   22 1
    22   24    1 1
    23   25    1 2
    24   26   25 1
    25   27   26 1
    26   28    5 1
    27   29   28 1
    28   30   14 2
    29   15   17 ar
    30   17   24 ar
    31   22   24 ar
@<TRIPOS>SUBSTRUCTURE
     1 RES1 1
     2 SUP2 31

@<TRIPOS>CRYSIN
  11.8478    6.9261   13.7030  90.0000  98.4880  90.0000 231 1

