# MOL2 file generated by ConQuest
# Please check atom types

@<TRIPOS>MOLECULE
EMEDOQ
    37    40     1
SMALL
NO_CHARGES
****
Generated from CSD

@<TRIPOS>ATOM
      1 H1         0.0407    5.0173   -2.2057 H         1 RES1    0.0000
      2 C1         1.1279    5.2675   -0.0723 C.2       1 RES1    0.0000
      3 O1        -0.3769    3.7991   -1.0272 O.2       1 RES1    0.0000
      4 O2         2.7656    6.5889    1.0677 O.3       1 RES1    0.0000
      5 N1         0.5626    5.7633   -2.3391 N.pl3     1 RES1    0.0000
      6 N2         0.3530    4.0685   -0.0519 N.pl3     1 RES1    0.0000
      7 C2         2.0397    7.2775   -1.1275 C.ar      1 RES1    0.0000
      8 O3         0.4194    3.3039    0.8868 O.2       1 RES1    0.0000
      9 C3         1.2191    6.0703   -1.2280 C.2       1 RES1    0.0000
     10 C4         0.7603    6.2271   -3.6810 C.ar      1 RES1    0.0000
     11 C5         1.8554    5.5564    1.1450 C.2       1 RES1    0.0000
     12 C6         2.8036    7.4559    0.0114 C.ar      1 RES1    0.0000
     13 C7        -0.1595    7.2394   -5.6814 C.ar      1 RES1    0.0000
     14 C8        -0.3261    6.8578   -4.3193 C.ar      1 RES1    0.0000
     15 C9         3.6424    8.5529    0.1752 C.ar      1 RES1    0.0000
     16 H2         4.1697    8.6320    0.9371 H         1 RES1    0.0000
     17 O4         1.7964    5.0050    2.2008 O.2       1 RES1    0.0000
     18 C10        2.0655    8.3139   -2.0790 C.ar      1 RES1    0.0000
     19 H3         1.5236    8.2576   -2.8325 H         1 RES1    0.0000
     20 C11        1.0938    6.9669   -6.3065 C.ar      1 RES1    0.0000
     21 H4         1.2190    7.2101   -7.1953 H         1 RES1    0.0000
     22 C12        1.9296    5.9806   -4.3140 C.ar      1 RES1    0.0000
     23 H5         2.6199    5.5516   -3.8615 H         1 RES1    0.0000
     24 C13        2.1046    6.3652   -5.6408 C.ar      1 RES1    0.0000
     25 H6         2.9149    6.2084   -6.0682 H         1 RES1    0.0000
     26 C14       -1.5715    7.1313   -3.6884 C.ar      1 RES1    0.0000
     27 H7        -1.7035    6.9012   -2.7977 H         1 RES1    0.0000
     28 C15        3.6808    9.5136   -0.7947 C.ar      1 RES1    0.0000
     29 H8         4.2508   10.2429   -0.7029 H         1 RES1    0.0000
     30 C16        2.8747    9.4033   -1.9112 C.ar      1 RES1    0.0000
     31 H9         2.8827   10.0754   -2.5539 H         1 RES1    0.0000
     32 C17       -1.2287    7.8409   -6.3584 C.ar      1 RES1    0.0000
     33 H10       -1.1272    8.0785   -7.2523 H         1 RES1    0.0000
     34 C18       -2.3903    8.0791   -5.7421 C.ar      1 RES1    0.0000
     35 H11       -3.0867    8.4800   -6.2107 H         1 RES1    0.0000
     36 C19       -2.5695    7.7310   -4.3976 C.ar      1 RES1    0.0000
     37 H12       -3.3812    7.9115   -3.9818 H         1 RES1    0.0000
@<TRIPOS>BOND
     1    1    5 1
     2    2    6 1
     3    3    6 2
     4    4   11 1
     5    5    9 1
     6    6    8 2
     7    7    9 1
     8    9    2 2
     9   10    5 1
    10   11    2 1
    11   12    4 1
    12   13   14 ar
    13   14   10 ar
    14   15   12 ar
    15   16   15 1
    16   17   11 2
    17   18    7 ar
    18   19   18 1
    19   20   13 ar
    20   21   20 1
    21   22   10 ar
    22   23   22 1
    23   24   20 ar
    24   25   24 1
    25   26   14 ar
    26   27   26 1
    27   28   15 ar
    28   29   28 1
    29   30   18 ar
    30   31   30 1
    31   32   13 ar
    32   33   32 1
    33   34   32 ar
    34   35   34 1
    35   36   26 ar
    36   37   36 1
    37    7   12 ar
    38   22   24 ar
    39   28   30 ar
    40   34   36 ar
@<TRIPOS>SUBSTRUCTURE
     1 RES1 1

@<TRIPOS>CRYSIN
   8.0870    9.2410   10.9110  93.7700 102.5100 106.4400   2 1

