# MOL2 file generated by ConQuest
# Please check atom types

@<TRIPOS>MOLECULE
EMEDUW
    31    33     1
SMALL
NO_CHARGES
****
Generated from CSD

@<TRIPOS>ATOM
      1 O1         3.2733    2.7303    2.6736 O.3       1 RES1    0.0000
      2 O2         2.0350    1.2783    3.7586 O.2       1 RES1    0.0000
      3 O3        -0.1340    3.8300    5.4833 O.2       1 RES1    0.0000
      4 N1         2.0158    5.8709    5.0895 N.3       1 RES1    0.0000
      5 O4         1.0949    2.1926    6.1498 O.2       1 RES1    0.0000
      6 N2         0.8859    3.1556    5.4173 N.pl3     1 RES1    0.0000
      7 C1         2.3183    4.8416    4.2964 C.2       1 RES1    0.0000
      8 C2         2.3632    2.4370    3.6661 C.2       1 RES1    0.0000
      9 C3         3.2260    5.1022    3.1778 C.ar      1 RES1    0.0000
     10 C4         1.8931    3.5311    4.4458 C.2       1 RES1    0.0000
     11 C5         1.4634    5.8709    6.4175 C.ar      1 RES1    0.0000
     12 C6         3.6877    4.0288    2.4208 C.ar      1 RES1    0.0000
     13 C7         3.7167    6.3553    2.8439 C.ar      1 RES1    0.0000
     14 H1         3.4374    7.0989    3.3266 H         1 RES1    0.0000
     15 C8         2.0119    5.0566    7.3849 C.ar      1 RES1    0.0000
     16 H2         2.7051    4.4735    7.1768 H         1 RES1    0.0000
     17 C9         4.5859    4.1804    1.3971 C.ar      1 RES1    0.0000
     18 H3         4.8855    3.4368    0.9237 H         1 RES1    0.0000
     19 C10        1.5088    5.1272    8.6739 C.ar      1 RES1    0.0000
     20 H4         1.8626    4.5839    9.3403 H         1 RES1    0.0000
     21 C11        0.4617    6.7617    6.7033 C.ar      1 RES1    0.0000
     22 H5         0.1153    7.3139    6.0405 H         1 RES1    0.0000
     23 C12        5.0417    5.4379    1.0737 C.ar      1 RES1    0.0000
     24 H6         5.6340    5.5572    0.3663 H         1 RES1    0.0000
     25 C13        4.6081    6.5143    1.8134 C.ar      1 RES1    0.0000
     26 H7         4.9244    7.3654    1.6097 H         1 RES1    0.0000
     27 C14        0.4824    6.0049    8.9705 C.ar      1 RES1    0.0000
     28 H8         0.1335    6.0417    9.8317 H         1 RES1    0.0000
     29 C15       -0.0197    6.8221    7.9825 C.ar      1 RES1    0.0000
     30 H9        -0.6972    7.4243    8.1898 H         1 RES1    0.0000
     31 H10        2.2075    6.6410    4.8667 H         1 RES1    0.0000
@<TRIPOS>BOND
     1    1    8 1
     2    2    8 2
     3    3    6 2
     4    4    7 1
     5    5    6 2
     6    6   10 1
     7    7    9 1
     8    8   10 1
     9    9   12 ar
    10   10    7 2
    11   11    4 1
    12   12    1 1
    13   13    9 ar
    14   14   13 1
    15   15   11 ar
    16   16   15 1
    17   17   12 ar
    18   18   17 1
    19   19   15 ar
    20   20   19 1
    21   21   11 ar
    22   22   21 1
    23   23   17 ar
    24   24   23 1
    25   25   13 ar
    26   26   25 1
    27   27   19 ar
    28   28   27 1
    29   29   21 ar
    30   30   29 1
    31   31    4 1
    32   23   25 ar
    33   27   29 ar
@<TRIPOS>SUBSTRUCTURE
     1 RES1 1

@<TRIPOS>CRYSIN
   4.9274   14.7250   17.8660  90.0000  90.0000  90.0000  19 1

