# MOL2 file generated by ConQuest
# Please check atom types

@<TRIPOS>MOLECULE
EMEXAW
    44    47     1
SMALL
NO_CHARGES
****
Generated from CSD

@<TRIPOS>ATOM
      1 N1         6.2309    4.3867   15.3008 N.ar      1 RES1    0.0000
      2 N2         7.4436    5.3397   17.1599 N.3       1 RES1    0.0000
      3 N3         6.0190    6.9691   17.7584 N.2       1 RES1    0.0000
      4 N4         3.0123    5.7996   14.0212 N.pl3     1 RES1    0.0000
      5 O1         8.5082    0.9644   21.6804 O.3       1 RES1    0.0000
      6 O2         2.7725    3.0401   14.3532 O.3       1 RES1    0.0000
      7 O3         2.0160    6.2788   14.5732 O.2       1 RES1    0.0000
      8 O4         3.0836    5.5472   12.8293 O.2       1 RES1    0.0000
      9 C1         6.3846    5.2599   16.2863 C.ar      1 RES1    0.0000
     10 C2         5.4995    6.2857   16.6684 C.ar      1 RES1    0.0000
     11 C3         7.1722    6.3734   18.0002 C.2       1 RES1    0.0000
     12 H1         7.7583    6.6421   18.6977 H         1 RES1    0.0000
     13 C4         4.3494    6.4500   15.9226 C.ar      1 RES1    0.0000
     14 H2         3.7091    7.1238   16.1202 H         1 RES1    0.0000
     15 C5         4.1901    5.5678   14.8656 C.ar      1 RES1    0.0000
     16 C6         5.1101    4.5322   14.5725 C.ar      1 RES1    0.0000
     17 C7         4.9292    3.4923   13.5286 C.ar      1 RES1    0.0000
     18 C8         3.7645    2.7109   13.4931 C.ar      1 RES1    0.0000
     19 C9         5.9718    3.2002   12.6530 C.ar      1 RES1    0.0000
     20 H3         6.7655    3.7213   12.6783 H         1 RES1    0.0000
     21 C10        5.8638    2.1534   11.7394 C.ar      1 RES1    0.0000
     22 H4         6.5713    1.9738   11.1309 H         1 RES1    0.0000
     23 C11        4.7216    1.3803   11.7263 C.ar      1 RES1    0.0000
     24 H5         4.6508    0.6564   11.1156 H         1 RES1    0.0000
     25 C12        3.6790    1.6471   12.5919 C.ar      1 RES1    0.0000
     26 H6         2.8993    1.1041   12.5736 H         1 RES1    0.0000
     27 C13        8.5976    4.4372   17.2049 C.3       1 RES1    0.0000
     28 H7         9.4285    4.9754   17.2202 H         1 RES1    0.0000
     29 H8         8.6095    3.8866   16.3821 H         1 RES1    0.0000
     30 C14        8.5780    3.5269   18.4077 C.ar      1 RES1    0.0000
     31 C15        9.5512    3.6396   19.3830 C.ar      1 RES1    0.0000
     32 H9        10.2236    4.3050   19.2914 H         1 RES1    0.0000
     33 C16        9.5708    2.8022   20.4983 C.ar      1 RES1    0.0000
     34 H10       10.2453    2.8974   21.1596 H         1 RES1    0.0000
     35 C17        8.5927    1.8312   20.6256 C.ar      1 RES1    0.0000
     36 C18        7.6013    1.7009   19.6528 C.ar      1 RES1    0.0000
     37 H11        6.9303    1.0338   19.7410 H         1 RES1    0.0000
     38 C19        7.5978    2.5446   18.5618 C.ar      1 RES1    0.0000
     39 H12        6.9176    2.4555   17.9033 H         1 RES1    0.0000
     40 C20        9.5274    1.0553   22.6734 C.3       1 RES1    0.0000
     41 H13        9.4832    1.9327   23.1086 H         1 RES1    0.0000
     42 H14       10.4052    0.9435   22.2531 H         1 RES1    0.0000
     43 H15        9.3948    0.3528   23.3443 H         1 RES1    0.0000
     44 H16        2.1245    2.4778   14.3130 H         1 RES1    0.0000
@<TRIPOS>BOND
     1    1    9 ar
     2    2    9 1
     3    3   10 1
     4    4    7 2
     5    5   35 1
     6    6   18 1
     7    8    4 2
     8    9   10 ar
     9   10   13 ar
    10   11    2 1
    11   12   11 1
    12   13   14 1
    13   15    4 1
    14   16    1 ar
    15   17   16 1
    16   18   17 ar
    17   19   17 ar
    18   20   19 1
    19   21   19 ar
    20   22   21 1
    21   23   21 ar
    22   24   23 1
    23   25   18 ar
    24   26   25 1
    25   27    2 1
    26   28   27 1
    27   29   27 1
    28   30   27 1
    29   31   30 ar
    30   32   31 1
    31   33   31 ar
    32   34   33 1
    33   35   33 ar
    34   36   35 ar
    35   37   36 1
    36   38   30 ar
    37   39   38 1
    38   40    5 1
    39   41   40 1
    40   42   40 1
    41   43   40 1
    42   44    6 1
    43    3   11 2
    44   13   15 ar
    45   15   16 ar
    46   23   25 ar
    47   36   38 ar
@<TRIPOS>SUBSTRUCTURE
     1 RES1 1

@<TRIPOS>CRYSIN
   7.0116   11.7207   21.8253  90.0000  90.0000  90.0000  19 1

