# MOL2 file generated by ConQuest
# Please check atom types

@<TRIPOS>MOLECULE
EMIMUI
    11    10     1
SMALL
NO_CHARGES
****
Generated from CSD

@<TRIPOS>ATOM
      1 O1         0.8784    2.5357    5.9304 O.3       1 RES1    0.0000
      2 H1         0.3630    2.0200    5.3847 H         1 RES1    0.0000
      3 N1         1.8772    3.0987    5.0563 N.2       1 RES1    0.0000
      4 N2         2.0769    4.5988    6.8405 N.pl3     1 RES1    0.0000
      5 H2         1.3816    4.2164    7.2694 H         1 RES1    0.0000
      6 H3         2.6219    5.2104    7.1672 H         1 RES1    0.0000
      7 C1         2.4329    4.1141    5.6368 C.2       1 RES1    0.0000
      8 C2         3.5568    4.7888    4.9252 C.3       1 RES1    0.0000
      9 H4         4.4054    4.5467    5.3513 H         1 RES1    0.0000
     10 H5         3.4347    5.7603    4.9688 H         1 RES1    0.0000
     11 H6         3.5684    4.5026    3.9884 H         1 RES1    0.0000
@<TRIPOS>BOND
     1    1    2 1
     2    3    1 1
     3    4    5 1
     4    6    4 1
     5    7    3 2
     6    8    7 1
     7    9    8 1
     8   10    8 1
     9   11    8 1
    10    4    7 1
@<TRIPOS>SUBSTRUCTURE
     1 RES1 1

@<TRIPOS>CRYSIN
   5.0422    8.0160    9.2840  90.0000  90.0000  90.0000  19 1

