# MOL2 file generated by ConQuest
# Please check atom types

@<TRIPOS>MOLECULE
EMIPUM
    43    43     1
SMALL
NO_CHARGES
****
Generated from CSD

@<TRIPOS>ATOM
      1 C1         2.9107    4.7780    2.9066 C.2       1 RES1    0.0000
      2 C2         3.7200    3.5597    3.2918 C.3       1 RES1    0.0000
      3 H1         3.7038    3.4884    4.2694 H         1 RES1    0.0000
      4 C3         5.1796    3.7147    2.8602 C.3       1 RES1    0.0000
      5 H2         5.6470    2.8846    3.0417 H         1 RES1    0.0000
      6 H3         5.2062    3.8622    1.9015 H         1 RES1    0.0000
      7 C4         5.9192    4.8550    3.5508 C.3       1 RES1    0.0000
      8 H4         6.0207    4.6367    4.4909 H         1 RES1    0.0000
      9 H5         5.3781    5.6580    3.4931 H         1 RES1    0.0000
     10 C5         7.3040    5.1513    2.9626 C.3       1 RES1    0.0000
     11 H6         7.7891    5.7234    3.5778 H         1 RES1    0.0000
     12 H7         7.7947    4.3184    2.8844 H         1 RES1    0.0000
     13 C6         7.2592    5.8223    1.6037 C.3       1 RES1    0.0000
     14 H8         6.6611    5.3207    1.0285 H         1 RES1    0.0000
     15 H9         8.1440    5.7879    1.2100 H         1 RES1    0.0000
     16 C7         6.7955    7.2754    1.6446 C.3       1 RES1    0.0000
     17 H10        6.2026    7.3927    2.4041 H         1 RES1    0.0000
     18 H11        7.5685    7.8452    1.7842 H         1 RES1    0.0000
     19 C8         6.0744    7.7309    0.3872 C.3       1 RES1    0.0000
     20 H12        6.6510    7.5720   -0.3760 H         1 RES1    0.0000
     21 H13        5.9208    8.6870    0.4458 H         1 RES1    0.0000
     22 C9         4.7439    7.0381    0.1443 C.3       1 RES1    0.0000
     23 H14        4.4155    7.2983   -0.7306 H         1 RES1    0.0000
     24 H15        4.8925    6.0792    0.1275 H         1 RES1    0.0000
     25 C10        3.6710    7.3412    1.1709 C.3       1 RES1    0.0000
     26 H16        3.4192    8.2744    1.0899 H         1 RES1    0.0000
     27 H17        4.0446    7.2127    2.0570 H         1 RES1    0.0000
     28 C11        2.4203    6.4848    1.0401 C.3       1 RES1    0.0000
     29 H18        2.1222    6.5099    0.1173 H         1 RES1    0.0000
     30 H19        1.7191    6.8756    1.5851 H         1 RES1    0.0000
     31 C12        2.6046    5.0314    1.4528 C.3       1 RES1    0.0000
     32 H20        1.7947    4.5477    1.2258 H         1 RES1    0.0000
     33 H21        3.3243    4.6556    0.9224 H         1 RES1    0.0000
     34 C13        3.0868    2.2788    2.7206 C.3       1 RES1    0.0000
     35 H22        3.0734    2.3414    1.7526 H         1 RES1    0.0000
     36 H23        3.6438    1.5215    2.9598 H         1 RES1    0.0000
     37 C14        1.6770    2.0271    3.2157 C.3       1 RES1    0.0000
     38 H24        1.6650    2.0541    4.1753 H         1 RES1    0.0000
     39 H25        1.3821    1.1638    2.9160 H         1 RES1    0.0000
     40 H26        1.0907    2.7029    2.8695 H         1 RES1    0.0000
     41 N1         2.4306    5.6200    3.7268 N.2       1 RES1    0.0000
     42 O1         2.6941    5.3218    5.0821 O.3       1 RES1    0.0000
     43 H27        2.3354    5.9737    5.5193 H         1 RES1    0.0000
@<TRIPOS>BOND
     1    1    2 1
     2    2    3 1
     3    4    2 1
     4    5    4 1
     5    6    4 1
     6    7    4 1
     7    8    7 1
     8    9    7 1
     9   10    7 1
    10   11   10 1
    11   12   10 1
    12   13   10 1
    13   14   13 1
    14   15   13 1
    15   16   13 1
    16   17   16 1
    17   18   16 1
    18   19   16 1
    19   20   19 1
    20   21   19 1
    21   22   19 1
    22   23   22 1
    23   24   22 1
    24   25   22 1
    25   26   25 1
    26   27   25 1
    27   28   25 1
    28   29   28 1
    29   30   28 1
    30   31    1 1
    31   32   31 1
    32   33   31 1
    33   34    2 1
    34   35   34 1
    35   36   34 1
    36   37   34 1
    37   38   37 1
    38   39   37 1
    39   40   37 1
    40   41    1 2
    41   42   41 1
    42   43   42 1
    43   28   31 1
@<TRIPOS>SUBSTRUCTURE
     1 RES1 1

@<TRIPOS>CRYSIN
   8.7515    9.3918   10.3401  64.8620  86.9550  70.2060   2 1

