# MOL2 file generated by ConQuest
# Please check atom types

@<TRIPOS>MOLECULE
EMISOI
    39    41     1
SMALL
USER_CHARGES
****
Generated from CSD

@<TRIPOS>ATOM
      1 N1         3.8553    4.3629    0.8132 N.2       1 RES1    1.0000
      2 C1         3.6585    4.2211   -0.5089 C.2       1 RES1    0.0000
      3 N2         4.3767    3.2750   -1.1042 N.pl3     1 RES1    0.0000
      4 N3         2.7657    4.8869   -1.2835 N.2       1 RES1    0.0000
      5 C2         2.5831    6.4122    0.6002 C.2       1 RES1    0.0000
      6 C3         2.1866    5.9512   -0.7219 C.2       1 RES1    0.0000
      7 N4         1.2771    6.6234   -1.4432 N.3       1 RES1    0.0000
      8 C4         0.9850    6.2487   -2.8330 C.3       1 RES1    0.0000
      9 C5        -0.3152    5.4715   -2.8871 C.3       1 RES1    0.0000
     10 O1        -1.3772    6.2509   -2.3300 O.3       1 RES1    0.0000
     11 C6        -1.1069    6.5970   -0.9705 C.3       1 RES1    0.0000
     12 C7         0.1818    7.3900   -0.8449 C.3       1 RES1    0.0000
     13 N5         2.7927    7.7067    0.9682 N.2       1 RES1    0.0000
     14 O2         2.4410    8.6273    0.1726 O.2       1 RES1   -1.0000
     15 C8         3.2632    5.4083    1.3988 C.2       1 RES1    0.0000
     16 N6         3.3771    5.5047    2.7311 N.pl3     1 RES1    0.0000
     17 C9         4.2196    4.5829    3.4967 C.3       1 RES1    0.0000
     18 C10        5.1646    5.3886    4.3527 C.3       1 RES1    0.0000
     19 O3         4.4365    6.2513    5.2320 O.3       1 RES1    0.0000
     20 C11        3.6047    7.1502    4.4998 C.3       1 RES1    0.0000
     21 C12        2.6336    6.4063    3.6077 C.3       1 RES1    0.0000
     22 H1         4.9394    2.7877   -0.6342 H         1 RES1    0.0000
     23 H2         4.2900    3.1358   -1.9684 H         1 RES1    0.0000
     24 H3         1.7213    5.6929   -3.1918 H         1 RES1    0.0000
     25 H4         0.9109    7.0635   -3.3905 H         1 RES1    0.0000
     26 H5        -0.5274    5.2436   -3.8271 H         1 RES1    0.0000
     27 H6        -0.2202    4.6276   -2.3785 H         1 RES1    0.0000
     28 H7        -1.0367    5.7704   -0.4297 H         1 RES1    0.0000
     29 H8        -1.8584    7.1337   -0.6134 H         1 RES1    0.0000
     30 H9         0.0875    8.2600   -1.3077 H         1 RES1    0.0000
     31 H10        0.3762    7.5656    0.1097 H         1 RES1    0.0000
     32 H11        4.7332    4.0033    2.8799 H         1 RES1    0.0000
     33 H12        3.6557    4.0052    4.0686 H         1 RES1    0.0000
     34 H13        5.7322    4.7761    4.8853 H         1 RES1    0.0000
     35 H14        5.7564    5.9307    3.7728 H         1 RES1    0.0000
     36 H15        4.1720    7.7424    3.9449 H         1 RES1    0.0000
     37 H16        3.0983    7.7178    5.1336 H         1 RES1    0.0000
     38 H17        1.9982    5.8870    4.1621 H         1 RES1    0.0000
     39 H18        2.1150    7.0516    3.0647 H         1 RES1    0.0000
@<TRIPOS>BOND
     1    1    2 un
     2    2    3 un
     3    3   22 1
     4    4    2 1
     5    5    6 1
     6    6    4 2
     7    7    6 1
     8    8    7 1
     9    9    8 1
    10   10    9 1
    11   11   10 1
    12   12    7 1
    13   13    5 un
    14   14   13 un
    15   15    1 un
    16   16   15 un
    17   17   16 1
    18   18   17 1
    19   19   18 1
    20   20   19 1
    21   21   16 1
    22   23    3 1
    23   24    8 1
    24   25    8 1
    25   26    9 1
    26   27    9 1
    27   28   11 1
    28   29   11 1
    29   30   12 1
    30   31   12 1
    31   32   17 1
    32   33   17 1
    33   34   18 1
    34   35   18 1
    35   36   20 1
    36   37   20 1
    37   38   21 1
    38   39   21 1
    39    5   15 1
    40   11   12 1
    41   20   21 1
@<TRIPOS>SUBSTRUCTURE
     1 RES1 1

@<TRIPOS>CRYSIN
  13.0037    9.1130   12.4892  90.0000 112.3400  90.0000  14 1

