# MOL2 file generated by ConQuest
# Please check atom types

@<TRIPOS>MOLECULE
EMISUO
    43    45     1
SMALL
USER_CHARGES
****
Generated from CSD

@<TRIPOS>ATOM
      1 N1         2.6888    5.6234    3.8461 N.2       1 RES1    1.0000
      2 C1         3.2080    6.6709    4.5341 C.2       1 RES1    0.0000
      3 N2         4.5317    6.6722    4.6804 N.pl3     1 RES1    0.0000
      4 N3         2.5443    7.7184    5.0915 N.2       1 RES1    0.0000
      5 C2         1.2076    7.7012    4.9861 C.2       1 RES1    0.0000
      6 N4         0.4883    8.6938    5.5064 N.3       1 RES1    0.0000
      7 C3         1.0178    9.7358    6.3818 C.3       1 RES1    0.0000
      8 C4         0.9640    9.3683    7.8565 C.ar      1 RES1    0.0000
      9 C5         1.1862    8.0700    8.2990 C.ar      1 RES1    0.0000
     10 C6         1.1573    7.7647    9.6521 C.ar      1 RES1    0.0000
     11 C7         0.9009    8.7582   10.5837 C.ar      1 RES1    0.0000
     12 C8         0.6790   10.0551   10.1551 C.ar      1 RES1    0.0000
     13 C9         0.7097   10.3625    8.7984 C.ar      1 RES1    0.0000
     14 C10        0.5169    6.6175    4.3142 C.2       1 RES1    0.0000
     15 N5        -0.8232    6.6849    4.3192 N.2       1 RES1    0.0000
     16 O1        -1.4790    5.7537    3.7204 O.2       1 RES1   -1.0000
     17 C11        1.3554    5.5898    3.7282 C.2       1 RES1    0.0000
     18 N6         0.7734    4.5943    3.0618 N.pl3     1 RES1    0.0000
     19 C12        1.4736    3.6054    2.2564 C.3       1 RES1    0.0000
     20 C13        1.5662    3.9936    0.7900 C.ar      1 RES1    0.0000
     21 C14        1.9215    3.0134   -0.1348 C.ar      1 RES1    0.0000
     22 C15        2.0431    3.3341   -1.4813 C.ar      1 RES1    0.0000
     23 C16        1.7986    4.6223   -1.9250 C.ar      1 RES1    0.0000
     24 C17        1.4374    5.5998   -1.0123 C.ar      1 RES1    0.0000
     25 C18        1.3255    5.2845    0.3401 C.ar      1 RES1    0.0000
     26 H1         5.0133    6.0181    4.3394 H         1 RES1    0.0000
     27 H2         4.9250    7.3264    5.1184 H         1 RES1    0.0000
     28 H3        -0.3681    8.7242    5.3076 H         1 RES1    0.0000
     29 H4         0.5003   10.5676    6.2390 H         1 RES1    0.0000
     30 H5         1.9576    9.9182    6.1306 H         1 RES1    0.0000
     31 H6         1.3608    7.3825    7.6665 H         1 RES1    0.0000
     32 H7         1.3130    6.8727    9.9409 H         1 RES1    0.0000
     33 H8         0.8780    8.5504   11.5099 H         1 RES1    0.0000
     34 H9         0.5040   10.7393   10.7915 H         1 RES1    0.0000
     35 H10        0.5560   11.2558    8.5134 H         1 RES1    0.0000
     36 H11       -0.1032    4.5295    3.1122 H         1 RES1    0.0000
     37 H12        1.0031    2.7375    2.3314 H         1 RES1    0.0000
     38 H13        2.3881    3.4858    2.6161 H         1 RES1    0.0000
     39 H14        2.0810    2.1234    0.1562 H         1 RES1    0.0000
     40 H15        2.2959    2.6626   -2.1036 H         1 RES1    0.0000
     41 H16        1.8775    4.8348   -2.8476 H         1 RES1    0.0000
     42 H17        1.2648    6.4858   -1.3081 H         1 RES1    0.0000
     43 H18        1.0822    5.9607    0.9608 H         1 RES1    0.0000
@<TRIPOS>BOND
     1    1    2 un
     2    2    3 un
     3    3   26 1
     4    4    2 1
     5    5    4 2
     6    6    5 1
     7    7    6 1
     8    8    7 1
     9    9    8 ar
    10   10    9 ar
    11   11   10 ar
    12   12   11 ar
    13   13    8 ar
    14   14    5 1
    15   15   14 un
    16   16   15 un
    17   17    1 un
    18   18   17 un
    19   19   18 1
    20   20   19 1
    21   21   20 ar
    22   22   21 ar
    23   23   22 ar
    24   24   23 ar
    25   25   20 ar
    26   27    3 1
    27   28    6 1
    28   29    7 1
    29   30    7 1
    30   31    9 1
    31   32   10 1
    32   33   11 1
    33   34   12 1
    34   35   13 1
    35   36   18 1
    36   37   19 1
    37   38   19 1
    38   39   21 1
    39   40   22 1
    40   41   23 1
    41   42   24 1
    42   43   25 1
    43   12   13 ar
    44   14   17 1
    45   24   25 ar
@<TRIPOS>SUBSTRUCTURE
     1 RES1 1

@<TRIPOS>CRYSIN
  12.9416    6.6816   20.0033  90.0000 113.3020  90.0000  14 1

