# MOL2 file generated by ConQuest
# Please check atom types

@<TRIPOS>MOLECULE
EMITAV
    39    41     1
SMALL
USER_CHARGES
****
Generated from CSD

@<TRIPOS>ATOM
      1 N1         0.4638    5.6293    2.4270 N.2       1 RES1    0.0000
      2 C1         0.7356    4.5535    3.2255 C.2       1 RES1    0.0000
      3 N2        -0.1087    3.5564    3.2047 N.pl3     1 RES1    1.0000
      4 N3         1.8207    4.4274    4.0404 N.2       1 RES1    0.0000
      5 C2         2.6884    5.4036    3.9929 C.2       1 RES1    0.0000
      6 C3         5.1463    4.2300    6.4053 C.ar      1 RES1    0.0000
      7 C4         5.4023    5.3588    7.1527 C.ar      1 RES1    0.0000
      8 N4         6.4819    5.5123    7.9345 N.ar      1 RES1    0.0000
      9 C5         7.3358    4.4768    8.0038 C.ar      1 RES1    0.0000
     10 C6         7.1535    3.3105    7.3190 C.ar      1 RES1    0.0000
     11 C7         6.0498    3.1899    6.4992 C.ar      1 RES1    0.0000
     12 C8         3.9043    4.1139    5.5645 C.3       1 RES1    0.0000
     13 O1         3.7756    5.3295    4.7834 O.3       1 RES1    0.0000
     14 C9         2.5776    6.5461    3.1575 C.2       1 RES1    0.0000
     15 N5         3.5995    7.4592    3.2074 N.2       1 RES1    0.0000
     16 O2         3.5306    8.4518    2.4471 O.2       1 RES1   -1.0000
     17 C10        1.3659    6.5808    2.3830 C.2       1 RES1    0.0000
     18 C11       -0.1500    8.8420    0.0142 C.ar      1 RES1    0.0000
     19 C12        0.8326    9.1089   -0.9357 C.ar      1 RES1    0.0000
     20 N6         0.8367   10.1710   -1.7496 N.ar      1 RES1    0.0000
     21 C13       -0.1989   11.0174   -1.6471 C.ar      1 RES1    0.0000
     22 C14       -1.2234   10.8492   -0.7488 C.ar      1 RES1    0.0000
     23 C15       -1.1973    9.7432    0.0976 C.ar      1 RES1    0.0000
     24 C16       -0.0950    7.6118    0.8332 C.3       1 RES1    0.0000
     25 O3         1.1560    7.6228    1.5911 O.3       1 RES1    0.0000
     26 H1         0.0378    2.8453    3.7038 H         1 RES1    0.0000
     27 H2        -0.8230    3.5948    2.6934 H         1 RES1    0.0000
     28 H3         4.7761    6.0717    7.1116 H         1 RES1    0.0000
     29 H4         8.1038    4.5609    8.5574 H         1 RES1    0.0000
     30 H5         7.7742    2.5967    7.4051 H         1 RES1    0.0000
     31 H6         5.9115    2.3929    6.0009 H         1 RES1    0.0000
     32 H7         3.9724    3.3288    4.9637 H         1 RES1    0.0000
     33 H8         3.1109    3.9960    6.1453 H         1 RES1    0.0000
     34 H9         1.5517    8.4929   -1.0103 H         1 RES1    0.0000
     35 H10       -0.2250   11.7714   -2.2237 H         1 RES1    0.0000
     36 H11       -1.9363   11.4753   -0.7046 H         1 RES1    0.0000
     37 H12       -1.8943    9.6080    0.7290 H         1 RES1    0.0000
     38 H13       -0.8670    7.5807    1.4531 H         1 RES1    0.0000
     39 H14       -0.1307    6.8130    0.2495 H         1 RES1    0.0000
@<TRIPOS>BOND
     1    1    2 1
     2    2    3 2
     3    3   26 1
     4    4    2 1
     5    5    4 2
     6    6    7 ar
     7    7    8 ar
     8    8    9 ar
     9    9   10 ar
    10   10   11 ar
    11   11    6 ar
    12   12    6 1
    13   13    5 1
    14   14    5 1
    15   15   14 un
    16   16   15 un
    17   17    1 2
    18   18   19 ar
    19   19   20 ar
    20   20   21 ar
    21   21   22 ar
    22   22   23 ar
    23   23   18 ar
    24   24   18 1
    25   25   17 1
    26   27    3 1
    27   28    7 1
    28   29    9 1
    29   30   10 1
    30   31   11 1
    31   32   12 1
    32   33   12 1
    33   34   19 1
    34   35   21 1
    35   36   22 1
    36   37   23 1
    37   38   24 1
    38   39   24 1
    39   12   13 1
    40   14   17 1
    41   24   25 1
@<TRIPOS>SUBSTRUCTURE
     1 RES1 1

@<TRIPOS>CRYSIN
   6.8810    9.1400   24.4636  90.0000  90.0000  90.0000  19 1

