# MOL2 file generated by ConQuest
# Please check atom types

@<TRIPOS>MOLECULE
EMITEZ
    47    31     2
SMALL
USER_CHARGES
****
Generated from CSD

@<TRIPOS>ATOM
      1 N1         3.3542    3.3074    0.6289 N.2       1 RES1    1.0000
      2 N2         3.3698    1.0350    0.7198 N.pl3     1 RES1    0.0000
      3 C1         4.0619    2.1528    0.5128 C.2       1 RES1    0.0000
      4 N3         5.3748    1.9904    0.2164 N.2       1 RES1    0.0000
      5 N4         7.3895    3.0564   -0.1003 N.3       1 RES1    0.0000
      6 C2         6.0829    3.1188    0.1017 C.2       1 RES1    0.0000
      7 C3         8.1467    1.8161   -0.1082 C.3       1 RES1    0.0000
      8 C4         9.5791    2.0802   -0.5099 C.3       1 RES1    0.0000
      9 O1        10.1129    3.0130    0.4731 O.3       1 RES1    0.0000
     10 C5         9.5748    2.2185   -0.3462 Du        2 SUP2    0.0000
     11 O2        10.2074    0.9109   -0.5366 Du        2 SUP2    0.0000
     12 C6         5.4649    4.4232    0.2135 C.2       1 RES1    0.0000
     13 N5         6.0649    5.6273    0.1587 N.2       1 RES1    0.0000
     14 O3         7.3319    5.6825   -0.0339 O.2       1 RES1   -1.0000
     15 N6         6.3212    5.4579    0.1803 Du        2 SUP2    0.0000
     16 O4         5.8512    6.6154    0.2892 Du        2 SUP2    0.0000
     17 C7         4.0381    4.4384    0.4767 C.2       1 RES1    0.0000
     18 N7         3.4289    5.6137    0.5979 N.pl3     1 RES1    0.0000
     19 C8         2.0201    5.8087    0.9037 C.3       1 RES1    0.0000
     20 C9         1.1721    5.9558   -0.3296 C.3       1 RES1    0.0000
     21 O5         1.6253    6.9368   -1.2203 O.3       1 RES1    0.0000
     22 C10        1.1719    5.6525   -0.3325 Du        2 SUP2    0.0000
     23 O6        -0.2320    5.3642   -0.5092 Du        2 SUP2    0.0000
     24 H1         3.7695    0.2526    0.6606 H         1 RES1    0.0000
     25 H2         2.5134    1.0773    0.9152 H         1 RES1    0.0000
     26 H3         7.8244    3.8085   -0.2373 H         1 RES1    0.0000
     27 H4         7.7350    1.1798   -0.7457 H         1 RES1    0.0000
     28 H5         8.1241    1.4072    0.7926 H         1 RES1    0.0000
     29 H6         7.8289    1.2185   -0.8309 Du        2 SUP2    0.0000
     30 H7         8.0547    1.3448    0.7580 Du        2 SUP2    0.0000
     31 H8        10.1005    1.2378   -0.5077 H         1 RES1    0.0000
     32 H9         9.6179    2.4741   -1.4172 H         1 RES1    0.0000
     33 H10       10.9133    3.1888    0.2870 H         1 RES1    0.0000
     34 H11        9.6637    2.7876   -1.1489 Du        2 SUP2    0.0000
     35 H12        9.9525    2.6940    0.4385 Du        2 SUP2    0.0000
     36 H13        9.7598    0.3224   -0.1385 Du        2 SUP2    0.0000
     37 H14        3.9191    6.3346    0.4832 H         1 RES1    0.0000
     38 H15        1.9206    6.6199    1.4634 H         1 RES1    0.0000
     39 H16        1.6936    5.0359    1.4302 H         1 RES1    0.0000
     40 H17        1.8875    6.7135    1.2831 Du        2 SUP2    0.0000
     41 H18        1.7358    5.1473    1.5838 Du        2 SUP2    0.0000
     42 H19        1.1444    5.0864   -0.8020 H         1 RES1    0.0000
     43 H20        0.2473    6.1785   -0.0555 H         1 RES1    0.0000
     44 H21        1.6385    7.6823   -0.8323 H         1 RES1    0.0000
     45 H22        1.3124    6.4965   -0.8323 Du        2 SUP2    0.0000
     46 H23        1.6340    4.9526   -0.8583 Du        2 SUP2    0.0000
     47 H24       -0.3344    4.5395   -0.6318 Du        2 SUP2    0.0000
@<TRIPOS>BOND
     1    1    3 un
     2    2    3 un
     3    3    4 1
     4    4    6 2
     5    5    6 1
     6    6   12 1
     7    7    5 1
     8    8    7 1
     9    9    8 1
    10   12   13 un
    11   13   14 un
    12   17    1 un
    13   18   17 un
    14   19   18 1
    15   20   19 1
    16   21   20 1
    17   24    2 1
    18   25    2 1
    19   26    5 1
    20   27    7 1
    21   28    7 1
    22   31    8 1
    23   32    8 1
    24   33    9 1
    25   37   18 1
    26   38   19 1
    27   39   19 1
    28   42   20 1
    29   43   20 1
    30   44   21 1
    31   12   17 1
@<TRIPOS>SUBSTRUCTURE
     1 RES1 1
     2 SUP2 10

@<TRIPOS>CRYSIN
   9.6487   14.8594    7.3497  90.0000 101.0970  90.0000  14 1

