# MOL2 file generated by ConQuest
# Please check atom types

@<TRIPOS>MOLECULE
EMIVIF
    29    32     1
SMALL
NO_CHARGES
****
Generated from CSD

@<TRIPOS>ATOM
      1 O1         2.2147    1.7280    7.6200 O.3       1 RES1    0.0000
      2 O2         6.3507    3.7226    6.5731 O.3       1 RES1    0.0000
      3 O3         4.9723    3.2980    4.8532 O.2       1 RES1    0.0000
      4 O4         7.4872    7.6860   10.8747 O.2       1 RES1    0.0000
      5 O5         8.4575    5.9387   10.0742 O.2       1 RES1    0.0000
      6 N1         0.4112    0.6669    9.2700 N.ar      1 RES1    0.0000
      7 N2         2.6477    2.1536    5.4870 N.pl3     1 RES1    0.0000
      8 N3         7.4599    6.5911   10.3390 N.pl3     1 RES1    0.0000
      9 C1        -0.4687    0.1316   10.1048 C.ar      1 RES1    0.0000
     10 C2        -0.2347   -0.0996   11.4557 C.ar      1 RES1    0.0000
     11 C3         0.9689    0.2413   11.9755 C.ar      1 RES1    0.0000
     12 C4         1.9571    0.8122   11.1529 C.ar      1 RES1    0.0000
     13 C5         1.6237    1.0097    9.7947 C.ar      1 RES1    0.0000
     14 C6         2.6022    1.5977    8.9464 C.ar      1 RES1    0.0000
     15 C7         3.8104    2.0154    9.4098 C.ar      1 RES1    0.0000
     16 C8         4.1189    1.7816   10.7668 C.ar      1 RES1    0.0000
     17 C9         3.2378    1.1958   11.6114 C.ar      1 RES1    0.0000
     18 C10        3.1208    2.2349    6.7300 C.2       1 RES1    0.0000
     19 C11        4.3254    2.7564    7.0929 C.2       1 RES1    0.0000
     20 C12        4.7656    2.7949    8.5333 C.3       1 RES1    0.0000
     21 C13        4.8833    4.2152    9.0812 C.ar      1 RES1    0.0000
     22 C14        6.1023    4.7440    9.4625 C.ar      1 RES1    0.0000
     23 C15        6.1530    6.0278    9.9712 C.ar      1 RES1    0.0000
     24 C16        5.0379    6.8008   10.1293 C.ar      1 RES1    0.0000
     25 C17        3.8243    6.2825    9.7383 C.ar      1 RES1    0.0000
     26 C18        3.7537    5.0086    9.2210 C.ar      1 RES1    0.0000
     27 C19        5.1967    3.2606    6.0570 C.2       1 RES1    0.0000
     28 C20        7.2984    4.3012    5.6451 C.3       1 RES1    0.0000
     29 C21        8.3944    4.9054    6.4432 C.3       1 RES1    0.0000
@<TRIPOS>BOND
     1    1   14 1
     2    2   27 1
     3    3   27 2
     4    4    8 2
     5    5    8 2
     6    6    9 ar
     7    7   18 1
     8    8   23 1
     9    9   10 ar
    10   10   11 ar
    11   11   12 ar
    12   12   13 ar
    13   13    6 ar
    14   14   13 ar
    15   15   14 ar
    16   16   15 ar
    17   17   12 ar
    18   18    1 1
    19   19   18 2
    20   20   15 1
    21   21   20 1
    22   22   21 ar
    23   23   22 ar
    24   24   23 ar
    25   25   24 ar
    26   26   21 ar
    27   27   19 1
    28   28    2 1
    29   29   28 1
    30   16   17 ar
    31   19   20 1
    32   25   26 ar
@<TRIPOS>SUBSTRUCTURE
     1 RES1 1

@<TRIPOS>CRYSIN
   7.8860    9.8960   12.5750  77.8100  82.6900  73.8600   2 1

