# MOL2 file generated by ConQuest
# Please check atom types

@<TRIPOS>MOLECULE
EMOMIC
    58    64     2
SMALL
NO_CHARGES
****
Generated from CSD

@<TRIPOS>ATOM
      1 O1         1.8344   10.2070    8.4437 O.3       1 RES1    0.0000
      2 N1         2.1989    9.2029    7.5242 N.2       1 RES1    0.0000
      3 C1         4.3095    4.7690   10.1970 C.3       1 RES1    0.0000
      4 C2         4.9965    4.9469   11.5433 C.3       1 RES1    0.0000
      5 C3         4.5596    6.2424   12.2073 C.2       1 RES1    0.0000
      6 C4         3.9962    7.2476   11.5402 C.2       1 RES1    0.0000
      7 C5         3.7396    7.1742   10.0899 C.2       1 RES1    0.0000
      8 C6         3.0573    8.1484    9.4932 C.2       1 RES1    0.0000
      9 C7         2.7745    8.1966    8.0841 C.2       1 RES1    0.0000
     10 C8         3.2704    7.0560    7.1998 C.3       1 RES1    0.0000
     11 C9         3.4832    5.7937    8.0367 C.3       1 RES1    0.0000
     12 C10        4.3271    6.0209    9.3249 C.3       1 RES1    0.0000
     13 C11        4.0367    4.6302    7.1662 C.3       1 RES1    0.0000
     14 C12        3.2072    4.3467    5.9422 C.3       1 RES1    0.0000
     15 C13        2.9719    5.5757    5.0992 C.3       1 RES1    0.0000
     16 C14        2.3519    6.6876    6.0019 C.3       1 RES1    0.0000
     17 C15        1.8296    7.7135    5.0182 C.3       1 RES1    0.0000
     18 C16        1.4392    6.9470    3.7942 C.3       1 RES1    0.0000
     19 C17        1.8415    5.4587    4.0314 C.3       1 RES1    0.0000
     20 C18        4.2766    6.0657    4.4414 C.3       1 RES1    0.0000
     21 C19        5.7930    6.3881    8.9868 C.3       1 RES1    0.0000
     22 C20        2.0442    4.6921    2.7294 C.3       1 RES1    0.0000
     23 C21        2.5760    3.2876    2.9145 C.3       1 RES1    0.0000
     24 C22        0.6012    4.5808    1.9185 C.3       1 RES1    0.0000
     25 C23        0.7385    4.2607    0.5156 C.3       1 RES1    0.0000
     26 C24       -0.5571    3.7833   -0.2310 C.3       1 RES1    0.0000
     27 C25       -1.5295    4.7380   -0.1622 C.3       1 RES1    0.0000
     28 C26       -1.5336    5.8304   -1.0281 C.3       1 RES1    0.0000
     29 C27       -2.6176    4.0713   -1.0434 C.3       1 RES1    0.0000
     30 O2         1.0343   10.7922    5.4113 O.3       2 RES2    0.0000
     31 N2         0.6797   11.7297    6.4410 N.2       2 RES2    0.0000
     32 C28       -4.0236   13.9375    5.0656 C.3       2 RES2    0.0000
     33 C29       -4.4172   14.2600    3.6290 C.3       2 RES2    0.0000
     34 C30       -3.4758   13.7184    2.6330 C.2       2 RES2    0.0000
     35 C31       -2.2544   13.3076    2.9512 C.2       2 RES2    0.0000
     36 C32       -1.7229   13.3741    4.3113 C.2       2 RES2    0.0000
     37 C33       -0.6111   12.6936    4.6326 C.2       2 RES2    0.0000
     38 C34       -0.0884   12.6500    6.0034 C.2       2 RES2    0.0000
     39 C35       -0.6060   13.6839    6.9581 C.3       2 RES2    0.0000
     40 C36       -2.1477   13.7402    6.7638 C.3       2 RES2    0.0000
     41 C37       -2.5125   14.1842    5.3165 C.3       2 RES2    0.0000
     42 C38       -2.8739   14.5365    7.8470 C.3       2 RES2    0.0000
     43 C39       -2.4398   14.1693    9.2622 C.3       2 RES2    0.0000
     44 C40       -0.9345   14.3552    9.4488 C.3       2 RES2    0.0000
     45 C41       -0.2369   13.4280    8.4253 C.3       2 RES2    0.0000
     46 C42        1.2302   13.5302    8.8491 C.3       2 RES2    0.0000
     47 C43        1.1629   13.5313   10.3714 C.3       2 RES2    0.0000
     48 C44       -0.3217   13.8170   10.7646 C.3       2 RES2    0.0000
     49 C45       -0.5524   15.8378    9.2438 C.3       2 RES2    0.0000
     50 C46       -2.1816   15.6749    5.0610 C.3       2 RES2    0.0000
     51 C47       -0.4762   14.6490   12.0681 C.3       2 RES2    0.0000
     52 C48       -1.9182   14.9301   12.4276 C.3       2 RES2    0.0000
     53 C49        0.2927   13.9111   13.2293 C.3       2 RES2    0.0000
     54 C50        0.3725   14.5801   14.5236 C.3       2 RES2    0.0000
     55 C51        1.4556   15.6978   14.3828 C.3       2 RES2    0.0000
     56 C52        1.5622   16.4689   15.9173 C.3       2 RES2    0.0000
     57 C53        2.9276   16.0524   16.3564 C.3       2 RES2    0.0000
     58 C54        1.7189   17.9630   15.6358 C.3       2 RES2    0.0000
@<TRIPOS>BOND
     1    1    2 1
     2    2    9 2
     3    3    4 1
     4    4    5 1
     5    5    6 2
     6    6    7 1
     7    7    8 2
     8    8    9 1
     9    9   10 1
    10   10   11 1
    11   11   12 1
    12   12    3 1
    13   13   11 1
    14   14   13 1
    15   15   14 1
    16   16   10 1
    17   17   16 1
    18   18   17 1
    19   19   15 1
    20   20   15 1
    21   21   12 1
    22   22   19 1
    23   23   22 1
    24   24   22 1
    25   25   24 1
    26   26   25 1
    27   27   26 1
    28   28   27 1
    29   29   27 1
    30   30   31 1
    31   31   38 2
    32   32   33 1
    33   33   34 1
    34   34   35 2
    35   35   36 1
    36   36   37 2
    37   37   38 1
    38   38   39 1
    39   39   40 1
    40   40   41 1
    41   41   32 1
    42   42   40 1
    43   43   42 1
    44   44   43 1
    45   45   39 1
    46   46   45 1
    47   47   46 1
    48   48   44 1
    49   49   44 1
    50   50   41 1
    51   51   48 1
    52   52   51 1
    53   53   51 1
    54   54   53 1
    55   55   54 1
    56   56   55 1
    57   57   56 1
    58   58   56 1
    59    7   12 1
    60   15   16 1
    61   18   19 1
    62   36   41 1
    63   44   45 1
    64   47   48 1
@<TRIPOS>SUBSTRUCTURE
     1 RES1 1
     2 RES2 30

@<TRIPOS>CRYSIN
  14.3020   11.4750   15.9190  90.0000 106.0400  90.0000   4 1

