# MOL2 file generated by ConQuest
# Please check atom types

@<TRIPOS>MOLECULE
EMOYIO
    70    72     2
SMALL
NO_CHARGES
****
Generated from CSD

@<TRIPOS>ATOM
      1 O1         0.9328    8.1888   13.7114 O.2       1 RES1    0.0000
      2 O2        -2.5360    3.5421   22.3982 O.3       2 RES2    0.0000
      3 C1        -1.6750    3.3168   21.4101 C.ar      2 RES2    0.0000
      4 C2        -1.7128    3.9288   20.1754 C.ar      2 RES2    0.0000
      5 H1        -2.3692    4.5654   20.0056 H         2 RES2    0.0000
      6 O3         4.9244    9.6747    9.0284 O.3       1 RES1    0.0000
      7 O4         1.4301    5.0569   17.7147 O.2       2 RES2    0.0000
      8 C3         2.1415   10.5485   11.9179 C.ar      1 RES1    0.0000
      9 N1         0.2861    4.4227   15.8280 N.am      2 RES2    0.0000
     10 C4         0.2256    2.7093   19.5158 C.ar      2 RES2    0.0000
     11 N2         2.0286    8.7416   15.6007 N.am      1 RES1    0.0000
     12 C5         1.9184    8.6123   14.2876 C.2       1 RES1    0.0000
     13 C6         3.1458    9.6034   12.2743 C.ar      1 RES1    0.0000
     14 C7        -0.7793    3.6141   19.1597 C.ar      2 RES2    0.0000
     15 O5         1.4170   11.1719   14.0318 O.2       1 RES1    0.0000
     16 N3         1.1087   10.9561   12.8642 N.pl3     1 RES1    0.0000
     17 C8         0.4292    4.6218   17.1379 C.2       2 RES2    0.0000
     18 O6         0.9439    2.0467   17.4135 O.2       2 RES2    0.0000
     19 C9        -0.9054    4.2916   17.8229 C.3       2 RES2    0.0000
     20 N4         1.2160    2.2104   18.5757 N.pl3     2 RES2    0.0000
     21 C10        4.0007    9.9053   10.0300 C.ar      1 RES1    0.0000
     22 C11        3.2704    8.9055   13.6526 C.3       1 RES1    0.0000
     23 C12       -1.6175    5.6740   17.9192 C.3       2 RES2    0.0000
     24 H2        -2.6332    5.5412   18.7241 H         2 RES2    0.0000
     25 H3        -1.5121    6.1467   17.0903 H         2 RES2    0.0000
     26 H4        -1.2267    6.1861   18.6314 H         2 RES2    0.0000
     27 C13        4.0370    9.3330   11.2815 C.ar      1 RES1    0.0000
     28 H5         4.7147    8.7217   11.4604 H         1 RES1    0.0000
     29 C14        3.9517    7.5409   13.5054 C.3       1 RES1    0.0000
     30 H6         3.9530    7.0908   14.3533 H         1 RES1    0.0000
     31 H7         4.8558    7.6651   13.2076 H         1 RES1    0.0000
     32 H8         3.4730    7.0119   12.8630 H         1 RES1    0.0000
     33 O7         0.0003   11.2473   12.4266 O.2       1 RES1    0.0000
     34 C15       -1.0049    3.8478   15.4409 C.3       2 RES2    0.0000
     35 H9        -0.8807    3.0829   14.8574 H         2 RES2    0.0000
     36 H10       -1.5523    4.5055   14.9841 H         2 RES2    0.0000
     37 C16        0.2643    2.1133   20.7642 C.ar      2 RES2    0.0000
     38 H11        0.9359    1.5041   20.9841 H         2 RES2    0.0000
     39 C17        2.0610   11.1073   10.6803 C.ar      1 RES1    0.0000
     40 H12        1.3601   11.6856   10.4826 H         1 RES1    0.0000
     41 O8         2.3490    2.0577   19.0057 O.2       2 RES2    0.0000
     42 C18        3.0081   10.8266    9.7121 C.ar      1 RES1    0.0000
     43 H13        2.9822   11.2388    8.8789 H         1 RES1    0.0000
     44 C19       -1.6369    3.4344   16.7326 C.3       2 RES2    0.0000
     45 H14       -1.5053    2.4869   16.8933 H         2 RES2    0.0000
     46 H15       -2.5177    3.6227   16.7269 H         2 RES2    0.0000
     47 C20        1.0378    8.4148   16.5678 C.3       1 RES1    0.0000
     48 H16        0.4741    9.1771   16.7186 H         1 RES1    0.0000
     49 H17        1.4642    8.1643   17.3906 H         1 RES1    0.0000
     50 H18        0.5066    7.6824   16.2467 H         1 RES1    0.0000
     51 C21       -0.6632    2.4040   21.6996 C.ar      2 RES2    0.0000
     52 H19       -0.6272    1.9965   22.5349 H         2 RES2    0.0000
     53 C22        1.3267    4.7904   14.8896 C.3       2 RES2    0.0000
     54 H20        2.1435    4.9557   15.3662 H         2 RES2    0.0000
     55 H21        1.0656    5.5842   14.4171 H         2 RES2    0.0000
     56 H22        1.4605    4.0749   14.2637 H         2 RES2    0.0000
     57 C23        3.9603    9.7429   14.6979 C.3       1 RES1    0.0000
     58 H23        4.9134    9.5635   14.7157 H         1 RES1    0.0000
     59 H24        3.8191   10.6889   14.5363 H         1 RES1    0.0000
     60 C24       -3.6041    4.4660   22.1654 C.3       2 RES2    0.0000
     61 H25       -3.2424    5.3435   22.0210 H         2 RES2    0.0000
     62 H26       -4.1860    4.4814   22.9288 H         2 RES2    0.0000
     63 H27       -4.1003    4.1929   21.3903 H         2 RES2    0.0000
     64 C25        5.9536    8.7175    9.2789 C.3       1 RES1    0.0000
     65 H28        6.5232    9.0369    9.9825 H         1 RES1    0.0000
     66 H29        6.4719    8.5888    8.4811 H         1 RES1    0.0000
     67 H30        5.5577    7.8833    9.5414 H         1 RES1    0.0000
     68 C26        3.2941    9.3026   15.9987 C.3       1 RES1    0.0000
     69 H31        3.8357    8.6392   16.4543 H         1 RES1    0.0000
     70 H32        3.1631   10.0597   16.5907 H         1 RES1    0.0000
@<TRIPOS>BOND
     1    1   12 2
     2    2    3 1
     3    3    4 ar
     4    4    5 1
     5    6   21 1
     6    7   17 2
     7    8   13 ar
     8    9   17 1
     9   10   14 ar
    10   11   12 1
    11   12   22 1
    12   13   22 1
    13   14    4 ar
    14   15   16 2
    15   16    8 1
    16   17   19 1
    17   18   20 2
    18   19   14 1
    19   20   10 1
    20   21   27 ar
    21   22   29 1
    22   23   19 1
    23   24   23 1
    24   25   23 1
    25   26   23 1
    26   27   13 ar
    27   28   27 1
    28   29   30 1
    29   31   29 1
    30   32   29 1
    31   33   16 2
    32   34    9 1
    33   35   34 1
    34   36   34 1
    35   37   10 ar
    36   38   37 1
    37   39    8 ar
    38   40   39 1
    39   41   20 2
    40   42   21 ar
    41   43   42 1
    42   44   19 1
    43   45   44 1
    44   46   44 1
    45   47   11 1
    46   48   47 1
    47   49   47 1
    48   50   47 1
    49   51    3 ar
    50   52   51 1
    51   53    9 1
    52   54   53 1
    53   55   53 1
    54   56   53 1
    55   57   22 1
    56   58   57 1
    57   59   57 1
    58   60    2 1
    59   61   60 1
    60   62   60 1
    61   63   60 1
    62   64    6 1
    63   65   64 1
    64   66   64 1
    65   67   64 1
    66   68   11 1
    67   69   68 1
    68   70   68 1
    69   34   44 1
    70   37   51 ar
    71   39   42 ar
    72   57   68 1
@<TRIPOS>SUBSTRUCTURE
     1 RES1 1
     2 RES2 2

@<TRIPOS>CRYSIN
   6.4238    9.6564   21.1332  90.0000  97.3760  90.0000   4 1

