# MOL2 file generated by ConQuest
# Please check atom types

@<TRIPOS>MOLECULE
EMULEE
   111   117     3
SMALL
NO_CHARGES
****
Generated from CSD

@<TRIPOS>ATOM
      1 O1        13.1472   -0.9652    5.5551 O.2       1 RES1    0.0000
      2 O2        11.8251   -2.6510    5.2276 O.2       1 RES1    0.0000
      3 O3         3.6947    2.3596    0.9942 O.2       1 RES1    0.0000
      4 O4         4.3217    4.4096    1.2583 O.2       1 RES1    0.0000
      5 N1        12.0594   -1.4448    5.2156 N.pl3     1 RES1    0.0000
      6 N2         4.4750    3.2012    1.4317 N.pl3     1 RES1    0.0000
      7 C1         8.8244   -0.1811    3.9147 C.ar      1 RES1    0.0000
      8 C2         6.9697    0.9533    2.9881 C.ar      1 RES1    0.0000
      9 C3         9.0590    1.2047    3.9911 C.ar      1 RES1    0.0000
     10 C4         7.9013    1.9063    3.4485 C.ar      1 RES1    0.0000
     11 C5         5.6383    2.7351    2.1874 C.ar      1 RES1    0.0000
     12 C6         7.5458   -1.4050    2.1068 C.3       1 RES1    0.0000
     13 H1         8.1150   -0.9695    1.4227 H         1 RES1    0.0000
     14 H2         8.0009   -2.2387    2.3895 H         1 RES1    0.0000
     15 C7        11.0034   -0.5297    4.7820 C.ar      1 RES1    0.0000
     16 C8         5.8175    1.3613    2.3421 C.ar      1 RES1    0.0000
     17 H3         5.1793    0.7371    2.0198 H         1 RES1    0.0000
     18 C9        10.2724    1.7139    4.4584 C.ar      1 RES1    0.0000
     19 H4        10.4186    2.6516    4.4992 H         1 RES1    0.0000
     20 C10        9.8087   -1.0726    4.3103 C.ar      1 RES1    0.0000
     21 H5         9.6755   -2.0124    4.2619 H         1 RES1    0.0000
     22 C11       11.2557    0.8313    4.8602 C.ar      1 RES1    0.0000
     23 H6        12.0900    1.1500    5.1837 H         1 RES1    0.0000
     24 C12        6.4657   -1.0451    4.4058 C.3       1 RES1    0.0000
     25 H7         6.4126   -0.4159    5.1675 H         1 RES1    0.0000
     26 H8         5.5603   -1.1194    4.0121 H         1 RES1    0.0000
     27 C13        7.6637    3.2725    3.3306 C.ar      1 RES1    0.0000
     28 H9         8.2760    3.9056    3.6886 H         1 RES1    0.0000
     29 C14        6.5130    3.6893    2.6797 C.ar      1 RES1    0.0000
     30 H10        6.3268    4.6151    2.5731 H         1 RES1    0.0000
     31 C15        6.2593   -1.7601    1.4899 C.1       1 RES1    0.0000
     32 C16        6.8724   -2.3617    4.9071 C.1       1 RES1    0.0000
     33 C17        7.2065   -3.4187    5.3175 C.1       1 RES1    0.0000
     34 H11        7.4749   -4.2695    5.6472 H         1 RES1    0.0000
     35 C18        5.2331   -2.0403    0.9601 C.1       1 RES1    0.0000
     36 H12        4.4129   -2.2632    0.5371 H         1 RES1    0.0000
     37 C19        7.4355   -0.4591    3.3340 C.3       1 RES1    0.0000
     38 O5        10.7203   -0.5952   11.7805 O.2       2 RES2    0.0000
     39 O6         9.0730   -1.7632   10.9860 O.2       2 RES2    0.0000
     40 O7         6.9671    9.0789   11.0168 O.2       2 RES2    0.0000
     41 O8         5.0907    8.7372    9.9687 O.2       2 RES2    0.0000
     42 N3         9.5923   -0.6930   11.2933 N.pl3     2 RES2    0.0000
     43 N4         6.1265    8.3369   10.5180 N.pl3     2 RES2    0.0000
     44 C20        8.9631    4.3230   11.6705 C.3       2 RES2    0.0000
     45 C21        8.6290    2.8920   11.2683 C.ar      2 RES2    0.0000
     46 C22        7.7629    5.0736   11.1133 C.ar      2 RES2    0.0000
     47 C23        7.3684    2.8247   10.6425 C.ar      2 RES2    0.0000
     48 C24        8.8152    0.5435   11.0670 C.ar      2 RES2    0.0000
     49 C25       10.3077    4.8347   11.0901 C.3       2 RES2    0.0000
     50 H13       10.4869    5.7406   11.4467 H         2 RES2    0.0000
     51 H14       11.0374    4.2389   11.3967 H         2 RES2    0.0000
     52 C26        9.1868    5.7792   13.7340 C.1       2 RES2    0.0000
     53 C27       10.3233    4.8889    9.6289 C.1       2 RES2    0.0000
     54 C28        8.9922    4.4127   13.2304 C.3       2 RES2    0.0000
     55 H15        8.1396    4.0585   13.5877 H         2 RES2    0.0000
     56 H16        9.7241    3.8383   13.5702 H         2 RES2    0.0000
     57 C29        7.5432    6.4388   11.1072 C.ar      2 RES2    0.0000
     58 H17        8.1806    7.0466   11.4642 H         2 RES2    0.0000
     59 C30        9.3691    1.7473   11.4894 C.ar      2 RES2    0.0000
     60 H18       10.2195    1.7800   11.9114 H         2 RES2    0.0000
     61 C31        6.3518    6.8793   10.5570 C.ar      2 RES2    0.0000
     62 C32        7.5804    0.4477   10.4446 C.ar      2 RES2    0.0000
     63 H19        7.2423   -0.3976   10.1714 H         2 RES2    0.0000
     64 C33        6.8282    4.1842   10.5519 C.ar      2 RES2    0.0000
     65 C34        6.8444    1.6044   10.2257 C.ar      2 RES2    0.0000
     66 H20        5.9968    1.5628    9.7979 H         2 RES2    0.0000
     67 C35       10.3185    4.9421    8.4468 C.1       2 RES2    0.0000
     68 H21       10.3142    4.9852    7.4983 H         2 RES2    0.0000
     69 C36        5.6206    4.6628   10.0280 C.ar      2 RES2    0.0000
     70 H22        4.9755    4.0646    9.6730 H         2 RES2    0.0000
     71 C37        5.3850    6.0324   10.0387 C.ar      2 RES2    0.0000
     72 H23        4.5717    6.3829    9.6955 H         2 RES2    0.0000
     73 C38        9.3201    6.8890   14.1216 C.1       2 RES2    0.0000
     74 H24        9.4273    7.7806   14.4333 H         2 RES2    0.0000
     75 O9         6.7238   10.8653    6.8495 O.2       3 RES3    0.0000
     76 O10        8.1022   10.0380    8.3221 O.2       3 RES3    0.0000
     77 O11        1.8291    2.2121    3.6928 O.2       3 RES3    0.0000
     78 O12        3.1645    0.6909    4.4641 O.2       3 RES3    0.0000
     79 N5         7.2160    9.9193    7.4676 N.pl3     3 RES3    0.0000
     80 N6         2.8154    1.8665    4.3374 N.pl3     3 RES3    0.0000
     81 C39        3.8353    6.7150    5.4118 C.3       3 RES3    0.0000
     82 C40        5.0784    7.1667    6.1883 C.ar      3 RES3    0.0000
     83 C41        5.1580    4.8362    6.1474 C.ar      3 RES3    0.0000
     84 C42        4.0031    5.2023    5.4298 C.ar      3 RES3    0.0000
     85 C43        5.8388    6.0556    6.5886 C.ar      3 RES3    0.0000
     86 C44        3.6192    2.9085    4.9900 C.ar      3 RES3    0.0000
     87 C45        3.2310    4.2340    4.8138 C.ar      3 RES3    0.0000
     88 H25        2.4703    4.4622    4.2931 H         3 RES3    0.0000
     89 C46        6.7152    8.5663    7.1678 C.ar      3 RES3    0.0000
     90 C47        5.5056    8.4482    6.4872 C.ar      3 RES3    0.0000
     91 H26        4.9978    9.2119    6.2392 H         3 RES3    0.0000
     92 C48        2.5387    7.1817    6.1479 C.3       3 RES3    0.0000
     93 H27        2.5477    6.8233    7.0699 H         3 RES3    0.0000
     94 H28        2.5449    8.1690    6.2105 H         3 RES3    0.0000
     95 C49        3.8512    7.1958    3.9373 C.3       3 RES3    0.0000
     96 H29        4.6864    6.8814    3.5100 H         3 RES3    0.0000
     97 H30        3.0930    6.7774    3.4587 H         3 RES3    0.0000
     98 C50        4.7239    2.5220    5.7427 C.ar      3 RES3    0.0000
     99 H31        4.9318    1.6026    5.8595 H         3 RES3    0.0000
    100 C51        7.0504    6.2086    7.2635 C.ar      3 RES3    0.0000
    101 H32        7.5610    5.4501    7.5196 H         3 RES3    0.0000
    102 C52        5.5128    3.5010    6.3179 C.ar      3 RES3    0.0000
    103 H33        6.2841    3.2664    6.8213 H         3 RES3    0.0000
    104 C53        7.4934    7.4867    7.5528 C.ar      3 RES3    0.0000
    105 H34        8.3173    7.6215    8.0067 H         3 RES3    0.0000
    106 C54        1.2970    6.7554    5.4835 C.1       3 RES3    0.0000
    107 C55        0.3128    6.4107    4.9241 C.1       3 RES3    0.0000
    108 H35       -0.4774    6.1352    4.4755 H         3 RES3    0.0000
    109 C56        3.7609    8.6507    3.7799 C.1       3 RES3    0.0000
    110 C57        3.7027    9.8257    3.6626 C.1       3 RES3    0.0000
    111 H36        3.6563   10.7686    3.5687 H         3 RES3    0.0000
@<TRIPOS>BOND
     1    1    5 2
     2    2    5 2
     3    3    6 2
     4    4    6 2
     5    5   15 1
     6    6   11 1
     7    7    9 ar
     8    8   10 ar
     9    9   10 1
    10   10   27 ar
    11   11   16 ar
    12   12   13 1
    13   14   12 1
    14   15   20 ar
    15   16    8 ar
    16   17   16 1
    17   18    9 ar
    18   19   18 1
    19   20    7 ar
    20   21   20 1
    21   22   15 ar
    22   23   22 1
    23   24   25 1
    24   26   24 1
    25   27   28 1
    26   29   11 ar
    27   30   29 1
    28   31   12 1
    29   32   24 1
    30   33   32 3
    31   34   33 1
    32   35   31 3
    33   36   35 1
    34   37    7 1
    35   38   42 2
    36   39   42 2
    37   40   43 2
    38   41   43 2
    39   42   48 1
    40   43   61 1
    41   44   45 1
    42   45   47 ar
    43   46   44 1
    44   47   64 1
    45   48   59 ar
    46   49   44 1
    47   50   49 1
    48   51   49 1
    49   52   54 1
    50   53   49 1
    51   54   44 1
    52   55   54 1
    53   56   54 1
    54   57   46 ar
    55   58   57 1
    56   59   45 ar
    57   60   59 1
    58   61   57 ar
    59   62   48 ar
    60   63   62 1
    61   64   46 ar
    62   65   47 ar
    63   66   65 1
    64   67   53 3
    65   68   67 1
    66   69   64 ar
    67   70   69 1
    68   71   61 ar
    69   72   71 1
    70   73   52 3
    71   74   73 1
    72   75   79 2
    73   76   79 2
    74   77   80 2
    75   78   80 2
    76   79   89 1
    77   80   86 1
    78   81   82 1
    79   82   85 ar
    80   83   84 ar
    81   84   81 1
    82   85   83 1
    83   86   87 ar
    84   87   84 ar
    85   88   87 1
    86   89   90 ar
    87   90   82 ar
    88   91   90 1
    89   92   81 1
    90   93   92 1
    91   94   92 1
    92   95   81 1
    93   96   95 1
    94   97   95 1
    95   98   86 ar
    96   99   98 1
    97  100   85 ar
    98  101  100 1
    99  102   83 ar
   100  103  102 1
   101  104   89 ar
   102  105  104 1
   103  106   92 1
   104  107  106 3
   105  108  107 1
   106  109   95 1
   107  110  109 3
   108  111  110 1
   109    8   37 1
   110   12   37 1
   111   18   22 ar
   112   24   37 1
   113   27   29 ar
   114   62   65 ar
   115   69   71 ar
   116   98  102 ar
   117  100  104 ar
@<TRIPOS>SUBSTRUCTURE
     1 RES1 1
     2 RES2 38
     3 RES3 75

@<TRIPOS>CRYSIN
  12.3810   30.5840   13.1860  90.0000 108.6860  90.0000  14 1

