# MOL2 file generated by ConQuest
# Please check atom types

@<TRIPOS>MOLECULE
EMUMEG
    42    42     2
SMALL
NO_CHARGES
****
Generated from CSD

@<TRIPOS>ATOM
      1 C1         3.4826    8.4168   15.1290 C.ar      1 RES1    0.0000
      2 C2         3.1762    9.4219   16.0404 C.ar      1 RES1    0.0000
      3 H1         3.8110   10.0852   16.2431 H         1 RES1    0.0000
      4 C3         1.9344    9.4416   16.6477 C.ar      1 RES1    0.0000
      5 H2         1.7563   10.1254   17.2690 H         1 RES1    0.0000
      6 N1         0.9767    8.5517   16.4055 N.ar      1 RES1    0.0000
      7 C4         1.2695    7.5803   15.5291 C.ar      1 RES1    0.0000
      8 H3         0.6087    6.9386   15.3428 H         1 RES1    0.0000
      9 C5         2.4813    7.4679   14.8846 C.ar      1 RES1    0.0000
     10 H4         2.6349    6.7606   14.2844 H         1 RES1    0.0000
     11 C6         4.7972    8.3690   14.4362 C.2       1 RES1    0.0000
     12 C7         5.8222    9.4407   14.6574 C.3       1 RES1    0.0000
     13 H5         6.7103    9.0884   14.4381 H         1 RES1    0.0000
     14 H6         5.8238    9.6955   15.6025 H         1 RES1    0.0000
     15 C8         5.5476   10.6716   13.8072 C.3       1 RES1    0.0000
     16 H7         6.2733   11.3058   13.9122 H         1 RES1    0.0000
     17 H8         4.7157   11.0819   14.0918 H         1 RES1    0.0000
     18 H9         5.4779   10.4112   12.8755 H         1 RES1    0.0000
     19 N2         4.9397    7.3751   13.6189 N.2       1 RES1    0.0000
     20 O1         6.1855    7.3898   12.9867 O.3       1 RES1    0.0000
     21 H10        6.1697    6.5545   12.3409 H         1 RES1    0.0000
     22 C9         6.1538    3.0304    9.5803 C.ar      2 RES2    0.0000
     23 C10        5.4724    4.1901    9.2044 C.ar      2 RES2    0.0000
     24 H11        4.9983    4.2173    8.3932 H         2 RES2    0.0000
     25 C11        5.4977    5.2927   10.0279 C.ar      2 RES2    0.0000
     26 H12        5.0386    6.0655    9.7524 H         2 RES2    0.0000
     27 N3         6.1428    5.3238   11.2036 N.ar      2 RES2    0.0000
     28 C12        6.7918    4.2229   11.5685 C.ar      2 RES2    0.0000
     29 H13        7.2477    4.2267   12.3907 H         2 RES2    0.0000
     30 C13        6.8314    3.0660   10.8001 C.ar      2 RES2    0.0000
     31 H14        7.3102    2.3147   11.0986 H         2 RES2    0.0000
     32 C14        6.1380    1.8051    8.7395 C.2       2 RES2    0.0000
     33 C15        7.0910    0.6698    8.9734 C.3       2 RES2    0.0000
     34 H15        7.8888    1.0080    9.4321 H         2 RES2    0.0000
     35 H16        7.3735    0.3035    8.1097 H         2 RES2    0.0000
     36 C16        6.4673   -0.4422    9.8095 C.3       2 RES2    0.0000
     37 H17        5.6409   -0.7335    9.3931 H         2 RES2    0.0000
     38 H18        6.2813   -0.1096   10.7025 H         2 RES2    0.0000
     39 H19        7.0830   -1.1897    9.8649 H         2 RES2    0.0000
     40 N4         5.2096    1.7931    7.8432 N.2       2 RES2    0.0000
     41 O2         5.2175    0.6111    7.0961 O.3       2 RES2    0.0000
     42 H20        4.4102    0.7588    6.4886 H         2 RES2    0.0000
@<TRIPOS>BOND
     1    1    2 ar
     2    2    3 1
     3    4    2 ar
     4    5    4 1
     5    6    4 ar
     6    7    6 ar
     7    8    7 1
     8    9    1 ar
     9   10    9 1
    10   11    1 1
    11   12   11 1
    12   13   12 1
    13   14   12 1
    14   15   12 1
    15   16   15 1
    16   17   15 1
    17   18   15 1
    18   19   11 2
    19   20   19 1
    20   21   20 1
    21   22   23 ar
    22   23   24 1
    23   25   23 ar
    24   26   25 1
    25   27   25 ar
    26   28   27 ar
    27   29   28 1
    28   30   22 ar
    29   31   30 1
    30   32   22 1
    31   33   32 1
    32   34   33 1
    33   35   33 1
    34   36   33 1
    35   37   36 1
    36   38   36 1
    37   39   36 1
    38   40   32 2
    39   41   40 1
    40   42   41 1
    41    7    9 ar
    42   28   30 ar
@<TRIPOS>SUBSTRUCTURE
     1 RES1 1
     2 RES2 22

@<TRIPOS>CRYSIN
   7.9149    9.3676   21.6431  90.0000  90.0000  90.0000  19 1

