# MOL2 file generated by ConQuest
# Please check atom types

@<TRIPOS>MOLECULE
ENACIF
    71    71     1
SMALL
NO_CHARGES
****
Generated from CSD

@<TRIPOS>ATOM
      1 O1        -0.2548    0.1658    2.5961 O.3       1 RES1    0.0000
      2 O2         1.9259   -2.8598    4.1799 O.3       1 RES1    0.0000
      3 O3         1.9527   -0.4359    5.3705 O.2       1 RES1    0.0000
      4 O4        -1.0154   -2.2849    2.0721 O.2       1 RES1    0.0000
      5 O5        -0.1530   -4.7731    6.3957 O.2       1 RES1    0.0000
      6 N1        -1.4115   -0.3703    3.2357 N.am      1 RES1    0.0000
      7 N2         1.2350   -1.7394    3.7089 N.am      1 RES1    0.0000
      8 N3         1.0304   -2.8612    6.6982 N.am      1 RES1    0.0000
      9 C1        -2.9533   -3.5297    3.8029 C.3       1 RES1    0.0000
     10 C2        -3.8567   -1.2033    4.1594 C.3       1 RES1    0.0000
     11 C3        -3.9611   -2.2863    1.8366 C.3       1 RES1    0.0000
     12 C4        -3.1718   -2.0991    3.2303 C.3       1 RES1    0.0000
     13 C5        -1.7846   -1.6044    2.7333 C.2       1 RES1    0.0000
     14 C6         0.7076    0.5602    3.6516 C.3       1 RES1    0.0000
     15 C7         1.8578    1.2835    2.7333 C.3       1 RES1    0.0000
     16 C8         1.4886    2.5537    2.2147 C.3       1 RES1    0.0000
     17 C9         1.7015    3.6901    3.1871 C.3       1 RES1    0.0000
     18 C10        2.2865    2.9013    0.9723 C.3       1 RES1    0.0000
     19 C11        1.3428   -0.5883    4.3214 C.2       1 RES1    0.0000
     20 C12        1.0137   -3.9308    4.5051 C.3       1 RES1    0.0000
     21 C13        1.7636   -5.2143    4.2134 C.3       1 RES1    0.0000
     22 C14        2.1095   -5.4015    2.7549 C.ar      1 RES1    0.0000
     23 C15        1.1429   -5.2009    1.7502 C.ar      1 RES1    0.0000
     24 C16        1.4375   -5.4015    0.4646 C.ar      1 RES1    0.0000
     25 C17        2.6436   -5.8026    0.1080 C.ar      1 RES1    0.0000
     26 C18        3.6849   -5.9898    1.0696 C.ar      1 RES1    0.0000
     27 C19        3.3549   -5.8427    2.3876 C.ar      1 RES1    0.0000
     28 C20        0.5800   -3.9174    5.9852 C.2       1 RES1    0.0000
     29 C21        0.6977   -2.6606    8.1027 C.3       1 RES1    0.0000
     30 C22       -0.4534   -1.8718    8.4592 C.3       1 RES1    0.0000
     31 C23       -0.7441   -1.6846    9.8421 C.3       1 RES1    0.0000
     32 C24       -0.8092   -0.7487    7.5085 C.3       1 RES1    0.0000
     33 H1        -2.0703    0.3503    3.7748 H         1 RES1    0.0000
     34 H2         0.7782   -1.7715    3.1244 H         1 RES1    0.0000
     35 H3         1.5547   -2.2101    6.3006 H         1 RES1    0.0000
     36 H4        -3.7828   -3.8613    4.1313 H         1 RES1    0.0000
     37 H5        -2.6338   -4.0979    3.1158 H         1 RES1    0.0000
     38 H6        -2.3233   -3.4976    4.5127 H         1 RES1    0.0000
     39 H7        -3.3448   -1.1298    4.9664 H         1 RES1    0.0000
     40 H8        -3.9522   -0.3490    3.7715 H         1 RES1    0.0000
     41 H9        -4.7101   -1.5630    4.3711 H         1 RES1    0.0000
     42 H10       -4.0035   -1.4493    1.3926 H         1 RES1    0.0000
     43 H11       -3.5045   -2.9160    1.3029 H         1 RES1    0.0000
     44 H12       -4.8390   -2.5938    2.0246 H         1 RES1    0.0000
     45 H13        0.3243    1.1672    4.2728 H         1 RES1    0.0000
     46 H14        2.6330    1.3958    3.2692 H         1 RES1    0.0000
     47 H15        2.0533    0.7126    2.0019 H         1 RES1    0.0000
     48 H16        0.5744    2.5229    1.9900 H         1 RES1    0.0000
     49 H17        2.6337    3.7596    3.3642 H         1 RES1    0.0000
     50 H18        1.3849    4.4803    2.7916 H         1 RES1    0.0000
     51 H19        1.2348    3.4963    3.9811 H         1 RES1    0.0000
     52 H20        3.2013    2.9882    1.1830 H         1 RES1    0.0000
     53 H21        2.1772    2.2007    0.3241 H         1 RES1    0.0000
     54 H22        1.9571    3.7102    0.6028 H         1 RES1    0.0000
     55 H23        0.2456   -3.8773    3.9476 H         1 RES1    0.0000
     56 H24        2.5813   -5.2143    4.7028 H         1 RES1    0.0000
     57 H25        1.2359   -5.9550    4.4856 H         1 RES1    0.0000
     58 H26        0.2684   -4.8961    1.9846 H         1 RES1    0.0000
     59 H27        0.7651   -5.2798   -0.1955 H         1 RES1    0.0000
     60 H28        2.8302   -5.9537   -0.8168 H         1 RES1    0.0000
     61 H29        4.5721   -6.2117    0.7984 H         1 RES1    0.0000
     62 H30        4.0021   -6.0419    3.0423 H         1 RES1    0.0000
     63 H31        0.5734   -3.5310    8.4624 H         1 RES1    0.0000
     64 H32        1.4562   -2.2555    8.4884 H         1 RES1    0.0000
     65 H33       -1.1369   -2.4962    8.2518 H         1 RES1    0.0000
     66 H34       -0.8929   -2.5350   10.2461 H         1 RES1    0.0000
     67 H35       -0.0128   -1.2581   10.2602 H         1 RES1    0.0000
     68 H36       -1.5236   -1.1565    9.9198 H         1 RES1    0.0000
     69 H37       -0.3514    0.0388    7.7764 H         1 RES1    0.0000
     70 H38       -0.5591   -0.9921    6.6356 H         1 RES1    0.0000
     71 H39       -1.7485   -0.5990    7.5528 H         1 RES1    0.0000
@<TRIPOS>BOND
     1    1    6 1
     2    2    7 1
     3    3   19 2
     4    4   13 2
     5    5   28 2
     6    6   13 1
     7    7   19 1
     8    8   28 1
     9    9   12 1
    10   10   12 1
    11   11   12 1
    12   12   13 1
    13   14    1 1
    14   15   14 1
    15   16   15 1
    16   17   16 1
    17   18   16 1
    18   19   14 1
    19   20    2 1
    20   21   20 1
    21   22   21 1
    22   23   22 ar
    23   24   23 ar
    24   25   24 ar
    25   26   25 ar
    26   27   22 ar
    27   28   20 1
    28   29    8 1
    29   30   29 1
    30   31   30 1
    31   32   30 1
    32   33    6 1
    33   34    7 1
    34   35    8 1
    35   36    9 1
    36   37    9 1
    37   38    9 1
    38   39   10 1
    39   40   10 1
    40   41   10 1
    41   42   11 1
    42   43   11 1
    43   44   11 1
    44   45   14 1
    45   46   15 1
    46   47   15 1
    47   48   16 1
    48   49   17 1
    49   50   17 1
    50   51   17 1
    51   52   18 1
    52   53   18 1
    53   54   18 1
    54   55   20 1
    55   56   21 1
    56   57   21 1
    57   58   23 1
    58   59   24 1
    59   60   25 1
    60   61   26 1
    61   62   27 1
    62   63   29 1
    63   64   29 1
    64   65   30 1
    65   66   31 1
    66   67   31 1
    67   68   31 1
    68   69   32 1
    69   70   32 1
    70   71   32 1
    71   26   27 ar
@<TRIPOS>SUBSTRUCTURE
     1 RES1 1

@<TRIPOS>CRYSIN
   9.1750   13.3700   11.1190  90.0000 103.6800  90.0000   4 1

