# MOL2 file generated by ConQuest
# Please check atom types

@<TRIPOS>MOLECULE
ENAKAG
    34    36     1
SMALL
NO_CHARGES
****
Generated from CSD

@<TRIPOS>ATOM
      1 C1         1.4873    6.0308    0.8795 C.3       1 RES1    0.0000
      2 C2         1.7352    5.9738    2.3827 C.3       1 RES1    0.0000
      3 C3         3.1896    5.6949    2.7033 C.3       1 RES1    0.0000
      4 C4         0.7996    5.0057    3.0917 C.3       1 RES1    0.0000
      5 O1         0.9653   10.5522    4.9920 O.3       1 RES1    0.0000
      6 N1         1.0918    9.4342    4.1891 N.2       1 RES1    0.0000
      7 H1        -0.5757    5.7510    0.7504 H         1 RES1    0.0000
      8 H2         1.6690    5.1537    0.5040 H         1 RES1    0.0000
      9 H3         2.1513    6.6695    0.4928 H         1 RES1    0.0000
     10 H4        -0.0241    6.7449   -0.3752 H         1 RES1    0.0000
     11 H5         1.6648   10.4628    5.4756 H         1 RES1    0.0000
     12 H6         3.3463    5.7064    3.6098 H         1 RES1    0.0000
     13 H7         3.4381    4.8162    2.3940 H         1 RES1    0.0000
     14 H8        -0.1438    5.3236    3.0014 H         1 RES1    0.0000
     15 H9         3.8061    6.3902    2.2714 H         1 RES1    0.0000
     16 H10        1.0401    4.9647    4.0560 H         1 RES1    0.0000
     17 H11        0.9289    4.1372    2.6770 H         1 RES1    0.0000
     18 O2         1.5072    7.3160    2.9453 O.3       1 RES1    0.0000
     19 C5         0.1800    9.2417    3.2972 C.2       1 RES1    0.0000
     20 C6         0.4426    8.0216    2.4977 C.2       1 RES1    0.0000
     21 C7        -0.2967    7.6736    1.4171 C.2       1 RES1    0.0000
     22 C8        -1.4736    8.4472    1.0644 C.2       1 RES1    0.0000
     23 C9        -1.0370   10.0247    2.9984 C.ar      1 RES1    0.0000
     24 O3        -2.1550    8.1409    0.0827 O.2       1 RES1    0.0000
     25 C10       -1.8587    9.5988    1.9313 C.ar      1 RES1    0.0000
     26 C11       -1.4560   11.1332    3.7442 C.ar      1 RES1    0.0000
     27 H12       -0.9243   11.4472    4.4393 H         1 RES1    0.0000
     28 C12        0.0725    6.4825    0.5635 C.3       1 RES1    0.0000
     29 C13       -3.0620   10.2492    1.6756 C.ar      1 RES1    0.0000
     30 H13       -3.6036    9.9531    0.9795 H         1 RES1    0.0000
     31 C14       -2.6511   11.7670    3.4587 C.ar      1 RES1    0.0000
     32 H14       -2.9100   12.5038    3.9637 H         1 RES1    0.0000
     33 C15       -3.4634   11.3256    2.4373 C.ar      1 RES1    0.0000
     34 H15       -4.2732   11.7487    2.2643 H         1 RES1    0.0000
@<TRIPOS>BOND
     1    1    2 1
     2    2    3 1
     3    3   12 1
     4    4    2 1
     5    5    6 1
     6    6   19 2
     7    7   28 1
     8    8    1 1
     9    9    1 1
    10   10   28 1
    11   11    5 1
    12   13    3 1
    13   14    4 1
    14   15    3 1
    15   16    4 1
    16   17    4 1
    17   18    2 1
    18   19   20 1
    19   20   18 1
    20   21   20 2
    21   22   21 1
    22   23   19 1
    23   24   22 2
    24   25   22 1
    25   26   23 ar
    26   27   26 1
    27   28    1 1
    28   29   25 ar
    29   30   29 1
    30   31   26 ar
    31   32   31 1
    32   33   29 ar
    33   34   33 1
    34   21   28 1
    35   23   25 ar
    36   31   33 ar
@<TRIPOS>SUBSTRUCTURE
     1 RES1 1

@<TRIPOS>CRYSIN
   6.6069    9.6001   10.1760  91.4700  94.4700  94.2700   2 1

