# MOL2 file generated by ConQuest
# Please check atom types

@<TRIPOS>MOLECULE
ENAKOU
    82    86     2
SMALL
NO_CHARGES
****
Generated from CSD

@<TRIPOS>ATOM
      1 O1         3.4277   -0.9687    5.3593 O.3       1 RES1    0.0000
      2 H1         3.8070   -0.9163    6.1067 H         1 RES1    0.0000
      3 O2        -0.7491    3.3077    3.6051 O.2       1 RES1    0.0000
      4 O3        -0.3107    4.0185    5.5935 O.2       1 RES1    0.0000
      5 N1        -0.1254    3.2399    4.6522 N.pl3     1 RES1    0.0000
      6 C1         0.8581    2.1863    4.8183 C.ar      1 RES1    0.0000
      7 C2         1.0444    1.2670    3.8061 C.ar      1 RES1    0.0000
      8 H2         0.5669    1.3623    2.9887 H         1 RES1    0.0000
      9 C3         1.9262    0.2007    3.9711 C.ar      1 RES1    0.0000
     10 C4         2.5619    0.0702    5.2162 C.ar      1 RES1    0.0000
     11 C5         2.3541    0.9934    6.2543 C.ar      1 RES1    0.0000
     12 C6         1.5184    2.0756    6.0251 C.ar      1 RES1    0.0000
     13 H3         1.4004    2.7374    6.6955 H         1 RES1    0.0000
     14 C7         2.9734    0.8331    7.5934 C.ar      1 RES1    0.0000
     15 C8         3.6310    1.8952    8.2035 C.ar      1 RES1    0.0000
     16 H4         3.7130    2.7260    7.7489 H         1 RES1    0.0000
     17 C9         4.1640    1.7465    9.4690 C.ar      1 RES1    0.0000
     18 H5         4.6283    2.4725    9.8689 H         1 RES1    0.0000
     19 C10        4.0331    0.5489   10.1675 C.ar      1 RES1    0.0000
     20 C11        3.3338   -0.4893    9.5711 C.ar      1 RES1    0.0000
     21 H6         3.2119   -1.3041   10.0432 H         1 RES1    0.0000
     22 C12        2.8134   -0.3564    8.3015 C.ar      1 RES1    0.0000
     23 H7         2.3413   -1.0810    7.9073 H         1 RES1    0.0000
     24 C13        4.6202    0.3891   11.5351 C.3       1 RES1    0.0000
     25 H8         4.0839   -0.2509   12.0471 H         1 RES1    0.0000
     26 H9         4.6204    1.2559   11.9943 H         1 RES1    0.0000
     27 H10        5.5393    0.0596   11.4583 H         1 RES1    0.0000
     28 C14        2.1514   -0.7301    2.8355 C.ar      1 RES1    0.0000
     29 C15        2.2253   -2.1106    2.9924 C.ar      1 RES1    0.0000
     30 H11        2.1866   -2.4839    3.8652 H         1 RES1    0.0000
     31 C16        2.3535   -2.9515    1.8946 C.ar      1 RES1    0.0000
     32 H12        2.3937   -3.8919    2.0276 H         1 RES1    0.0000
     33 C17        2.4245   -2.4379    0.6075 C.ar      1 RES1    0.0000
     34 C18        2.3670   -1.0671    0.4546 C.ar      1 RES1    0.0000
     35 H13        2.4213   -0.6945   -0.4171 H         1 RES1    0.0000
     36 C19        2.2312   -0.2234    1.5429 C.ar      1 RES1    0.0000
     37 H14        2.1930    0.7160    1.4046 H         1 RES1    0.0000
     38 C20        2.5642   -3.3495   -0.5824 C.3       1 RES1    0.0000
     39 H15        1.8820   -3.1239   -1.2488 H         1 RES1    0.0000
     40 H16        2.4471   -4.2797   -0.2957 H         1 RES1    0.0000
     41 H17        3.4545   -3.2392   -0.9769 H         1 RES1    0.0000
     42 O4         1.4023    5.2114    7.6861 O.3       2 RES2    0.0000
     43 H18        1.0760    5.2378    6.9120 H         2 RES2    0.0000
     44 O5         5.4679    9.5457    9.5606 O.2       2 RES2    0.0000
     45 O6         5.0644   10.2573    7.5628 O.2       2 RES2    0.0000
     46 N2         4.8811    9.4696    8.4902 N.pl3     2 RES2    0.0000
     47 C21        3.9340    8.3760    8.2875 C.ar      2 RES2    0.0000
     48 C22        3.2912    8.2789    7.0738 C.ar      2 RES2    0.0000
     49 H19        3.4286    8.9383    6.4024 H         2 RES2    0.0000
     50 C23        2.4420    7.2099    6.8412 C.ar      2 RES2    0.0000
     51 C24        2.2304    6.2741    7.8656 C.ar      2 RES2    0.0000
     52 C25        2.8642    6.3849    9.1186 C.ar      2 RES2    0.0000
     53 C26        3.7342    7.4596    9.2984 C.ar      2 RES2    0.0000
     54 H20        4.1932    7.5607   10.1250 H         2 RES2    0.0000
     55 C27        1.7595    7.0686    5.5304 C.ar      2 RES2    0.0000
     56 C28        0.8240    8.0069    5.1267 C.ar      2 RES2    0.0000
     57 H21        0.6472    8.7621    5.6764 H         2 RES2    0.0000
     58 C29        0.1462    7.8533    3.9341 C.ar      2 RES2    0.0000
     59 H22       -0.5122    8.4909    3.6857 H         2 RES2    0.0000
     60 C30        0.4120    6.7851    3.0953 C.ar      2 RES2    0.0000
     61 C31        1.3893    5.8850    3.4766 C.ar      2 RES2    0.0000
     62 H23        1.6099    5.1655    2.8963 H         2 RES2    0.0000
     63 C32        2.0506    6.0094    4.6813 C.ar      2 RES2    0.0000
     64 H24        2.7061    5.3683    4.9292 H         2 RES2    0.0000
     65 C33       -0.3277    6.6280    1.7987 C.3       2 RES2    0.0000
     66 H25        0.1166    7.1564    1.1036 H         2 RES2    0.0000
     67 H26       -1.2490    6.9423    1.9088 H         2 RES2    0.0000
     68 H27       -0.3329    5.6838    1.5392 H         2 RES2    0.0000
     69 C34        2.6391    5.4327   10.2328 C.ar      2 RES2    0.0000
     70 C35        1.3711    4.9663   10.5683 C.ar      2 RES2    0.0000
     71 H28        0.6266    5.2111   10.0300 H         2 RES2    0.0000
     72 C36        1.1752    4.1547   11.6672 C.ar      2 RES2    0.0000
     73 H29        0.2984    3.8577   11.8781 H         2 RES2    0.0000
     74 C37        2.2344    3.7648   12.4698 C.ar      2 RES2    0.0000
     75 C38        3.4928    4.2167   12.1316 C.ar      2 RES2    0.0000
     76 H30        4.2373    3.9603   12.6649 H         2 RES2    0.0000
     77 C39        3.6974    5.0345   11.0340 C.ar      2 RES2    0.0000
     78 H31        4.5761    5.3277   10.8273 H         2 RES2    0.0000
     79 C40        2.0211    2.8616   13.6652 C.3       2 RES2    0.0000
     80 H32        2.1110    1.9250   13.3883 H         2 RES2    0.0000
     81 H33        1.1234    3.0086   14.0298 H         2 RES2    0.0000
     82 H34        2.6905    3.0643   14.3519 H         2 RES2    0.0000
@<TRIPOS>BOND
     1    1    2 1
     2    3    5 2
     3    4    5 2
     4    5    6 1
     5    6    7 ar
     6    7    8 1
     7    9    7 ar
     8   10    1 1
     9   11   10 ar
    10   12    6 ar
    11   13   12 1
    12   14   11 1
    13   15   14 ar
    14   16   15 1
    15   17   15 ar
    16   18   17 1
    17   19   17 ar
    18   20   19 ar
    19   21   20 1
    20   22   14 ar
    21   23   22 1
    22   24   19 1
    23   25   24 1
    24   26   24 1
    25   27   24 1
    26   28    9 1
    27   29   28 ar
    28   30   29 1
    29   31   29 ar
    30   32   31 1
    31   33   31 ar
    32   34   33 ar
    33   35   34 1
    34   36   28 ar
    35   37   36 1
    36   38   33 1
    37   39   38 1
    38   40   38 1
    39   41   38 1
    40   42   43 1
    41   44   46 2
    42   45   46 2
    43   46   47 1
    44   47   48 ar
    45   48   49 1
    46   50   48 ar
    47   51   42 1
    48   52   51 ar
    49   53   47 ar
    50   54   53 1
    51   55   50 1
    52   56   55 ar
    53   57   56 1
    54   58   56 ar
    55   59   58 1
    56   60   58 ar
    57   61   60 ar
    58   62   61 1
    59   63   55 ar
    60   64   63 1
    61   65   60 1
    62   66   65 1
    63   67   65 1
    64   68   65 1
    65   69   52 1
    66   70   69 ar
    67   71   70 1
    68   72   70 ar
    69   73   72 1
    70   74   72 ar
    71   75   74 ar
    72   76   75 1
    73   77   69 ar
    74   78   77 1
    75   79   74 1
    76   80   79 1
    77   81   79 1
    78   82   79 1
    79    9   10 ar
    80   11   12 ar
    81   20   22 ar
    82   34   36 ar
    83   50   51 ar
    84   52   53 ar
    85   61   63 ar
    86   75   77 ar
@<TRIPOS>SUBSTRUCTURE
     1 RES1 1
     2 RES2 42

@<TRIPOS>CRYSIN
   9.6760   12.6730   26.4030  90.0000  90.5770  90.0000  14 1

