# MOL2 file generated by ConQuest
# Please check atom types

@<TRIPOS>MOLECULE
ENAKUA
    41    43     1
SMALL
NO_CHARGES
****
Generated from CSD

@<TRIPOS>ATOM
      1 O1        12.0492    0.2872    3.2306 O.3       1 RES1    0.0000
      2 H1        11.5683   -0.3161    3.5094 H         1 RES1    0.0000
      3 O2         8.4466    5.3079    4.0540 O.2       1 RES1    0.0000
      4 O3        10.3809    6.2518    3.8746 O.2       1 RES1    0.0000
      5 N1         9.6672    5.2560    3.9180 N.pl3     1 RES1    0.0000
      6 C1        11.4338    1.4804    3.4024 C.ar      1 RES1    0.0000
      7 C2        12.2140    2.6379    3.2232 C.ar      1 RES1    0.0000
      8 C3        11.6272    3.8750    3.4262 C.ar      1 RES1    0.0000
      9 H2        12.1382    4.6693    3.3254 H         1 RES1    0.0000
     10 C4        10.2879    3.9440    3.7774 C.ar      1 RES1    0.0000
     11 C5         9.5177    2.8121    3.9479 C.ar      1 RES1    0.0000
     12 H3         8.6031    2.8933    4.1934 H         1 RES1    0.0000
     13 C6        10.0748    1.5587    3.7618 C.ar      1 RES1    0.0000
     14 C7         9.2421    0.3375    3.9223 C.ar      1 RES1    0.0000
     15 C8         8.5147    0.1340    5.0965 C.ar      1 RES1    0.0000
     16 H4         8.5808    0.7559    5.8108 H         1 RES1    0.0000
     17 C9         7.6968   -0.9750    5.2188 C.ar      1 RES1    0.0000
     18 H5         7.1906   -1.1055    6.0127 H         1 RES1    0.0000
     19 C10        7.6128   -1.8957    4.1893 C.ar      1 RES1    0.0000
     20 H6         7.0610   -2.6625    4.2916 H         1 RES1    0.0000
     21 C11        8.3238   -1.7159    3.0060 C.ar      1 RES1    0.0000
     22 C12        9.1290   -0.5862    2.8879 C.ar      1 RES1    0.0000
     23 H7         9.6121   -0.4432    2.0823 H         1 RES1    0.0000
     24 C13        8.2081   -2.7069    1.8804 C.3       1 RES1    0.0000
     25 H8         8.1906   -3.6157    2.2457 H         1 RES1    0.0000
     26 H9         8.9767   -2.6106    1.2801 H         1 RES1    0.0000
     27 H10        7.3808   -2.5387    1.3811 H         1 RES1    0.0000
     28 C14       13.6318    2.5548    2.7817 C.ar      1 RES1    0.0000
     29 C15       13.9620    1.9085    1.5880 C.ar      1 RES1    0.0000
     30 H11       13.2767    1.4868    1.0844 H         1 RES1    0.0000
     31 C16       15.2673    1.8692    1.1212 C.ar      1 RES1    0.0000
     32 C17       16.2609    2.4768    1.8838 C.ar      1 RES1    0.0000
     33 H12       17.1640    2.4434    1.5919 H         1 RES1    0.0000
     34 C18       15.9484    3.1291    3.0623 C.ar      1 RES1    0.0000
     35 H13       16.6348    3.5505    3.5644 H         1 RES1    0.0000
     36 C19       14.6375    3.1717    3.5162 C.ar      1 RES1    0.0000
     37 H14       14.4283    3.6207    4.3267 H         1 RES1    0.0000
     38 C20       15.6067    1.1891   -0.1772 C.3       1 RES1    0.0000
     39 H15       16.1599    1.7861   -0.7239 H         1 RES1    0.0000
     40 H16       14.7808    0.9750   -0.6600 H         1 RES1    0.0000
     41 H17       16.1013    0.3629    0.0062 H         1 RES1    0.0000
@<TRIPOS>BOND
     1    1    2 1
     2    3    5 2
     3    4    5 2
     4    5   10 1
     5    6    1 1
     6    7    6 ar
     7    8    7 ar
     8    9    8 1
     9   10    8 ar
    10   11   10 ar
    11   12   11 1
    12   13    6 ar
    13   14   13 1
    14   15   14 ar
    15   16   15 1
    16   17   15 ar
    17   18   17 1
    18   19   17 ar
    19   20   19 1
    20   21   19 ar
    21   22   14 ar
    22   23   22 1
    23   24   21 1
    24   25   24 1
    25   26   24 1
    26   27   24 1
    27   28    7 1
    28   29   28 ar
    29   30   29 1
    30   31   29 ar
    31   32   31 ar
    32   33   32 1
    33   34   32 ar
    34   35   34 1
    35   36   28 ar
    36   37   36 1
    37   38   31 1
    38   39   38 1
    39   40   38 1
    40   41   38 1
    41   11   13 ar
    42   21   22 ar
    43   34   36 ar
@<TRIPOS>SUBSTRUCTURE
     1 RES1 1

@<TRIPOS>CRYSIN
  13.7842   16.7240    6.8681  90.0000  90.5970  90.0000  14 1

