# MOL2 file generated by ConQuest
# Please check atom types

@<TRIPOS>MOLECULE
ENBILO
    89    92     1
SMALL
NO_CHARGES
****
Generated from CSD

@<TRIPOS>ATOM
      1 C1         5.3657   -0.7303   -1.5529 C.2       1 RES1    0.0000
      2 H1         5.9942   -0.2733   -2.1114 H         1 RES1    0.0000
      3 O1         0.5689   -0.2502    6.1599 O.2       1 RES1    0.0000
      4 C2         1.1646   -0.1685    5.1089 C.2       1 RES1    0.0000
      5 C3         0.6402    0.1603    3.7600 C.2       1 RES1    0.0000
      6 C4         1.6563    0.1733    2.8976 C.2       1 RES1    0.0000
      7 C5         2.9159   -0.0923    3.6632 C.2       1 RES1    0.0000
      8 N1         2.5311   -0.3075    4.9770 N.am      1 RES1    0.0000
      9 H2         3.1849   -0.4028    5.6344 H         1 RES1    0.0000
     10 C6         4.1869   -0.1222    3.1974 C.2       1 RES1    0.0000
     11 N2         5.2775   -0.4683    4.0918 N.pl3     1 RES1    0.0000
     12 O2         5.1285   -0.4024    5.2944 O.2       1 RES1    0.0000
     13 O3         6.3411   -0.7934    3.6014 O.2       1 RES1    0.0000
     14 C7         4.6554    0.2055    1.8486 C.2       1 RES1    0.0000
     15 C8         5.3219    1.3568    1.4405 C.2       1 RES1    0.0000
     16 C9         5.7059    1.1572    0.1041 C.2       1 RES1    0.0000
     17 C10        5.2609   -0.1002   -0.2823 C.2       1 RES1    0.0000
     18 N3         4.6286   -0.6700    0.8037 N.pl3     1 RES1    0.0000
     19 H3         4.1748   -1.5594    0.7677 H         1 RES1    0.0000
     20 C11       -0.8686    0.5301    3.5498 C.3       1 RES1    0.0000
     21 H4        -0.9321    1.3013    2.7966 H         1 RES1    0.0000
     22 H5        -1.2655    0.9041    4.4824 H         1 RES1    0.0000
     23 C12       -1.6291   -0.5285    3.1366 C.3       1 RES1    0.0000
     24 H6        -2.6994   -0.5867    3.2634 H         1 RES1    0.0000
     25 H7        -1.1411   -0.9795    3.9878 H         1 RES1    0.0000
     26 H8        -1.3435   -1.0543    2.2381 H         1 RES1    0.0000
     27 C13        1.5336    0.3663    1.3993 C.3       1 RES1    0.0000
     28 H9         0.6523   -0.1582    1.0593 H         1 RES1    0.0000
     29 H10        2.4099   -0.0547    0.9264 H         1 RES1    0.0000
     30 C14        1.4204    1.7717    0.9985 C.3       1 RES1    0.0000
     31 H11        1.4147    1.9073   -0.0732 H         1 RES1    0.0000
     32 H12        2.1972    2.3791    1.4354 H         1 RES1    0.0000
     33 H13        0.4605    2.0693    1.4014 H         1 RES1    0.0000
     34 C15        5.5706    2.5607    2.3040 C.3       1 RES1    0.0000
     35 H14        5.4491    2.2687    3.3365 H         1 RES1    0.0000
     36 H15        6.5852    2.8926    2.1412 H         1 RES1    0.0000
     37 C16        4.6421    3.7186    2.0248 C.3       1 RES1    0.0000
     38 H16        4.7590    4.6271    2.5957 H         1 RES1    0.0000
     39 H17        3.7175    3.2335    2.3051 H         1 RES1    0.0000
     40 H18        4.6174    3.9560    0.9717 H         1 RES1    0.0000
     41 C17        6.4357    2.1221   -0.7811 C.3       1 RES1    0.0000
     42 H19        6.9173    2.8644   -0.1618 H         1 RES1    0.0000
     43 H20        7.1838    1.5804   -1.3406 H         1 RES1    0.0000
     44 C18        5.5037    2.8351   -1.7682 C.3       1 RES1    0.0000
     45 H21        6.0227    3.5517   -2.3865 H         1 RES1    0.0000
     46 H22        4.7553    3.3438   -1.1778 H         1 RES1    0.0000
     47 H23        5.0267    2.0969   -2.3958 H         1 RES1    0.0000
     48 C19        4.7075   -1.8202   -2.0217 C.2       1 RES1    0.0000
     49 C20        4.8299   -2.3897   -3.3582 C.2       1 RES1    0.0000
     50 C21        3.9574   -3.4137   -3.4128 C.2       1 RES1    0.0000
     51 C22        3.3004   -3.4553   -2.1093 C.2       1 RES1    0.0000
     52 N4         3.7501   -2.5204   -1.2891 N.2       1 RES1    0.0000
     53 C23        2.2655   -4.3883   -1.7682 C.2       1 RES1    0.0000
     54 H24        2.0012   -5.0420   -2.4133 H         1 RES1    0.0000
     55 C24        1.5564   -4.3822   -0.6183 C.2       1 RES1    0.0000
     56 N5         1.7439   -3.4930    0.4050 N.am      1 RES1    0.0000
     57 H25        2.3483   -2.9252    0.4142 H         1 RES1    0.0000
     58 C25        0.4743   -5.2827   -0.2030 C.2       1 RES1    0.0000
     59 C26        0.0832   -4.9130    1.0284 C.2       1 RES1    0.0000
     60 C27        0.9116   -3.7561    1.4539 C.2       1 RES1    0.0000
     61 O4         0.9065   -3.1522    2.5142 O.2       1 RES1    0.0000
     62 C28        5.7283   -1.8388   -4.4360 C.3       1 RES1    0.0000
     63 H26        5.9493   -2.6302   -5.1367 H         1 RES1    0.0000
     64 H27        6.6440   -1.4958   -3.9785 H         1 RES1    0.0000
     65 C29        5.1138   -0.6943   -5.1892 C.3       1 RES1    0.0000
     66 H28        5.8191   -0.2775   -5.8930 H         1 RES1    0.0000
     67 H29        4.7540    0.0875   -4.5360 H         1 RES1    0.0000
     68 H30        4.2815   -1.1244   -5.7261 H         1 RES1    0.0000
     69 C30        3.6564   -4.3396   -4.5597 C.3       1 RES1    0.0000
     70 H31        4.4822   -4.3116   -5.2552 H         1 RES1    0.0000
     71 H32        3.5419   -5.3425   -4.1763 H         1 RES1    0.0000
     72 C31        2.3883   -3.9490   -5.2933 C.3       1 RES1    0.0000
     73 H33        2.1706   -4.5715   -6.1475 H         1 RES1    0.0000
     74 H34        2.4931   -2.9222   -5.6128 H         1 RES1    0.0000
     75 H35        1.5825   -4.0227   -4.5782 H         1 RES1    0.0000
     76 C32       -0.0363   -6.3995   -1.0696 C.3       1 RES1    0.0000
     77 H36        0.8011   -6.8626   -1.5693 H         1 RES1    0.0000
     78 H37       -0.5289   -7.1283   -0.4431 H         1 RES1    0.0000
     79 C33       -1.0131   -5.9148   -2.1093 C.3       1 RES1    0.0000
     80 H38       -1.3753   -6.6788   -2.7801 H         1 RES1    0.0000
     81 H39       -0.5769   -5.1098   -2.6822 H         1 RES1    0.0000
     82 H40       -1.8339   -5.5332   -1.5209 H         1 RES1    0.0000
     83 C34       -0.9922   -5.4671    1.8981 C.3       1 RES1    0.0000
     84 H41       -0.6366   -5.4920    2.9182 H         1 RES1    0.0000
     85 H42       -1.2227   -6.4714    1.5735 H         1 RES1    0.0000
     86 C35       -2.2328   -4.6478    1.8424 C.3       1 RES1    0.0000
     87 H43       -2.9406   -5.0691    2.5400 H         1 RES1    0.0000
     88 H44       -2.6159   -4.7462    0.8377 H         1 RES1    0.0000
     89 H45       -2.0834   -3.6016    2.0691 H         1 RES1    0.0000
@<TRIPOS>BOND
     1    1    2 1
     2    3    4 2
     3    4    5 1
     4    5    6 2
     5    6    7 1
     6    7    8 1
     7    8    4 1
     8    9    8 1
     9   10    7 2
    10   11   10 1
    11   12   11 2
    12   13   11 2
    13   14   10 1
    14   15   14 2
    15   16   15 1
    16   17    1 1
    17   18   14 1
    18   19   18 1
    19   20    5 1
    20   21   20 1
    21   22   20 1
    22   23   20 1
    23   24   23 1
    24   25   23 1
    25   26   23 1
    26   27    6 1
    27   28   27 1
    28   29   27 1
    29   30   27 1
    30   31   30 1
    31   32   30 1
    32   33   30 1
    33   34   15 1
    34   35   34 1
    35   36   34 1
    36   37   34 1
    37   38   37 1
    38   39   37 1
    39   40   37 1
    40   41   16 1
    41   42   41 1
    42   43   41 1
    43   44   41 1
    44   45   44 1
    45   46   44 1
    46   47   44 1
    47   48    1 2
    48   49   48 1
    49   50   49 2
    50   51   50 1
    51   52   48 1
    52   53   51 1
    53   54   53 1
    54   55   53 2
    55   56   55 1
    56   57   56 1
    57   58   55 1
    58   59   58 2
    59   60   56 1
    60   61   60 2
    61   62   49 1
    62   63   62 1
    63   64   62 1
    64   65   62 1
    65   66   65 1
    66   67   65 1
    67   68   65 1
    68   69   50 1
    69   70   69 1
    70   71   69 1
    71   72   69 1
    72   73   72 1
    73   74   72 1
    74   75   72 1
    75   76   58 1
    76   77   76 1
    77   78   76 1
    78   79   76 1
    79   80   79 1
    80   81   79 1
    81   82   79 1
    82   83   59 1
    83   84   83 1
    84   85   83 1
    85   86   83 1
    86   87   86 1
    87   88   86 1
    88   89   86 1
    89   16   17 2
    90   17   18 1
    91   51   52 2
    92   59   60 1
@<TRIPOS>SUBSTRUCTURE
     1 RES1 1

@<TRIPOS>CRYSIN
  14.5070   12.4050   11.8550 116.5900  67.9600 114.2200   2 1

