# MOL2 file generated by ConQuest
# Please check atom types

@<TRIPOS>MOLECULE
ENBILO10
    89    92     1
SMALL
NO_CHARGES
****
Generated from CSD

@<TRIPOS>ATOM
      1 O1         0.5689   -0.2502    6.1599 O.2       1 RES1    0.0000
      2 C1         1.1646   -0.1685    5.1089 C.2       1 RES1    0.0000
      3 C2         0.6402    0.1603    3.7600 C.2       1 RES1    0.0000
      4 C3         1.6568    0.1721    2.8976 C.2       1 RES1    0.0000
      5 C4         2.9159   -0.0923    3.6632 C.2       1 RES1    0.0000
      6 C5         4.1869   -0.1222    3.1974 C.2       1 RES1    0.0000
      7 N1         5.2775   -0.4683    4.0918 N.pl3     1 RES1    0.0000
      8 O2         5.1285   -0.4024    5.2944 O.2       1 RES1    0.0000
      9 O3         6.3407   -0.7930    3.6003 O.2       1 RES1    0.0000
     10 C6         4.6554    0.2055    1.8486 C.2       1 RES1    0.0000
     11 C7         5.3219    1.3568    1.4405 C.2       1 RES1    0.0000
     12 C8         5.7044    1.1572    0.1041 C.2       1 RES1    0.0000
     13 C9         5.2609   -0.1002   -0.2823 C.2       1 RES1    0.0000
     14 C10        5.3657   -0.7303   -1.5529 C.2       1 RES1    0.0000
     15 C11        4.7075   -1.8202   -2.0217 C.2       1 RES1    0.0000
     16 C12        4.8299   -2.3897   -3.3582 C.2       1 RES1    0.0000
     17 C13        3.9574   -3.4137   -3.4128 C.2       1 RES1    0.0000
     18 C14        3.3008   -3.4557   -2.1083 C.2       1 RES1    0.0000
     19 C15        2.2655   -4.3883   -1.7682 C.2       1 RES1    0.0000
     20 C16        1.5564   -4.3822   -0.6183 C.2       1 RES1    0.0000
     21 C17        0.4743   -5.2827   -0.2030 C.2       1 RES1    0.0000
     22 C18        0.0832   -4.9130    1.0284 C.2       1 RES1    0.0000
     23 C19        0.9126   -3.7557    1.4529 C.2       1 RES1    0.0000
     24 O4         0.9065   -3.1522    2.5142 O.2       1 RES1    0.0000
     25 N2         2.5311   -0.3075    4.9770 N.am      1 RES1    0.0000
     26 N3         4.6286   -0.6700    0.8037 N.pl3     1 RES1    0.0000
     27 N4         3.7501   -2.5204   -1.2891 N.2       1 RES1    0.0000
     28 N5         1.7434   -3.4919    0.4050 N.am      1 RES1    0.0000
     29 C20       -0.8686    0.5301    3.5498 C.3       1 RES1    0.0000
     30 C21       -1.6291   -0.5285    3.1366 C.3       1 RES1    0.0000
     31 C22        1.5321    0.3663    1.3993 C.3       1 RES1    0.0000
     32 C23        1.4175    1.7717    0.9985 C.3       1 RES1    0.0000
     33 C24        5.5706    2.5607    2.3040 C.3       1 RES1    0.0000
     34 C25        4.6421    3.7186    2.0248 C.3       1 RES1    0.0000
     35 C26        6.4357    2.1221   -0.7811 C.3       1 RES1    0.0000
     36 C27        5.5037    2.8351   -1.7682 C.3       1 RES1    0.0000
     37 C28        5.7268   -1.8388   -4.4360 C.3       1 RES1    0.0000
     38 C29        5.1138   -0.6943   -5.1892 C.3       1 RES1    0.0000
     39 C30        3.6564   -4.3396   -4.5597 C.3       1 RES1    0.0000
     40 C31        2.3883   -3.9490   -5.2933 C.3       1 RES1    0.0000
     41 C32       -0.0363   -6.3995   -1.0696 C.3       1 RES1    0.0000
     42 C33       -1.0131   -5.9141   -2.1083 C.3       1 RES1    0.0000
     43 C34       -0.9922   -5.4671    1.8981 C.3       1 RES1    0.0000
     44 C35       -2.2328   -4.6478    1.8424 C.3       1 RES1    0.0000
     45 H1         3.1849   -0.4028    5.6344 H         1 RES1    0.0000
     46 H2         4.1748   -1.5594    0.7677 H         1 RES1    0.0000
     47 H3         2.3483   -2.9252    0.4142 H         1 RES1    0.0000
     48 H4         5.9942   -0.2733   -2.1114 H         1 RES1    0.0000
     49 H5         2.0012   -5.0420   -2.4133 H         1 RES1    0.0000
     50 H6        -0.9321    1.3013    2.7966 H         1 RES1    0.0000
     51 H7        -1.2655    0.9041    4.4824 H         1 RES1    0.0000
     52 H8        -2.6999   -0.5882    3.2644 H         1 RES1    0.0000
     53 H9        -1.1402   -0.9784    3.9878 H         1 RES1    0.0000
     54 H10       -1.3430   -1.0554    2.2381 H         1 RES1    0.0000
     55 H11        0.6523   -0.1582    1.0593 H         1 RES1    0.0000
     56 H12        2.4070   -0.0547    0.9264 H         1 RES1    0.0000
     57 H13        1.4147    1.9073   -0.0732 H         1 RES1    0.0000
     58 H14        2.1957    2.3791    1.4354 H         1 RES1    0.0000
     59 H15        0.4605    2.0693    1.4014 H         1 RES1    0.0000
     60 H16        5.4491    2.2687    3.3365 H         1 RES1    0.0000
     61 H17        6.5852    2.8926    2.1412 H         1 RES1    0.0000
     62 H18        4.7590    4.6271    2.5957 H         1 RES1    0.0000
     63 H19        3.7175    3.2335    2.3051 H         1 RES1    0.0000
     64 H20        4.6174    3.9560    0.9717 H         1 RES1    0.0000
     65 H21        6.9173    2.8644   -0.1618 H         1 RES1    0.0000
     66 H22        7.1853    1.5804   -1.3406 H         1 RES1    0.0000
     67 H23        6.0227    3.5517   -2.3865 H         1 RES1    0.0000
     68 H24        4.7558    3.3426   -1.1778 H         1 RES1    0.0000
     69 H25        5.0267    2.0969   -2.3958 H         1 RES1    0.0000
     70 H26        5.9493   -2.6302   -5.1367 H         1 RES1    0.0000
     71 H27        6.6425   -1.4958   -3.9785 H         1 RES1    0.0000
     72 H28        5.8191   -0.2775   -5.8930 H         1 RES1    0.0000
     73 H29        4.7540    0.0875   -4.5360 H         1 RES1    0.0000
     74 H30        4.2815   -1.1244   -5.7261 H         1 RES1    0.0000
     75 H31        4.4822   -4.3116   -5.2552 H         1 RES1    0.0000
     76 H32        3.5419   -5.3425   -4.1763 H         1 RES1    0.0000
     77 H33        2.1706   -4.5715   -6.1475 H         1 RES1    0.0000
     78 H34        2.4931   -2.9222   -5.6128 H         1 RES1    0.0000
     79 H35        1.5825   -4.0227   -4.5782 H         1 RES1    0.0000
     80 H36        0.8011   -6.8626   -1.5693 H         1 RES1    0.0000
     81 H37       -0.5289   -7.1283   -0.4431 H         1 RES1    0.0000
     82 H38       -1.3753   -6.6788   -2.7801 H         1 RES1    0.0000
     83 H39       -0.5769   -5.1098   -2.6822 H         1 RES1    0.0000
     84 H40       -1.8339   -5.5332   -1.5209 H         1 RES1    0.0000
     85 H41       -0.6366   -5.4920    2.9182 H         1 RES1    0.0000
     86 H42       -1.2236   -6.4698    1.5724 H         1 RES1    0.0000
     87 H43       -2.9406   -5.0691    2.5400 H         1 RES1    0.0000
     88 H44       -2.6159   -4.7462    0.8377 H         1 RES1    0.0000
     89 H45       -2.0834   -3.6016    2.0691 H         1 RES1    0.0000
@<TRIPOS>BOND
     1    1    2 2
     2    2    3 1
     3    3    4 2
     4    4    5 1
     5    5    6 2
     6    6    7 1
     7    7    8 2
     8    9    7 2
     9   10    6 1
    10   11   10 2
    11   12   11 1
    12   13   12 2
    13   14   13 1
    14   15   14 2
    15   16   15 1
    16   17   16 2
    17   18   17 1
    18   19   18 1
    19   20   19 2
    20   21   20 1
    21   22   21 2
    22   23   22 1
    23   24   23 2
    24   25    2 1
    25   26   10 1
    26   27   15 1
    27   28   20 1
    28   29    3 1
    29   30   29 1
    30   31    4 1
    31   32   31 1
    32   33   11 1
    33   34   33 1
    34   35   12 1
    35   36   35 1
    36   37   16 1
    37   38   37 1
    38   39   17 1
    39   40   39 1
    40   41   21 1
    41   42   41 1
    42   43   22 1
    43   44   43 1
    44   45   25 1
    45   46   26 1
    46   47   28 1
    47   48   14 1
    48   49   19 1
    49   50   29 1
    50   51   29 1
    51   52   30 1
    52   53   30 1
    53   54   30 1
    54   55   31 1
    55   56   31 1
    56   57   32 1
    57   58   32 1
    58   59   32 1
    59   60   33 1
    60   61   33 1
    61   62   34 1
    62   63   34 1
    63   64   34 1
    64   65   35 1
    65   66   35 1
    66   67   36 1
    67   68   36 1
    68   69   36 1
    69   70   37 1
    70   71   37 1
    71   72   38 1
    72   73   38 1
    73   74   38 1
    74   75   39 1
    75   76   39 1
    76   77   40 1
    77   78   40 1
    78   79   40 1
    79   80   41 1
    80   81   41 1
    81   82   42 1
    82   83   42 1
    83   84   42 1
    84   85   43 1
    85   86   43 1
    86   87   44 1
    87   88   44 1
    88   89   44 1
    89    5   25 1
    90   13   26 1
    91   18   27 2
    92   23   28 1
@<TRIPOS>SUBSTRUCTURE
     1 RES1 1

@<TRIPOS>CRYSIN
  14.5070   12.4050   11.8550 116.5900  67.9600 114.2200   2 1

