# MOL2 file generated by ConQuest
# Please check atom types

@<TRIPOS>MOLECULE
ENILIW
    43    47     1
SMALL
NO_CHARGES
****
Generated from CSD

@<TRIPOS>ATOM
      1 O1         5.6190   -0.1187    4.8332 O.3       1 RES1    0.0000
      2 N1         4.5061   -0.8835    4.2842 N.3       1 RES1    0.0000
      3 C1         3.6089    0.0920    3.6707 C.3       1 RES1    0.0000
      4 C2         2.3525   -0.6033    3.1094 C.ar      1 RES1    0.0000
      5 C3         2.0531   -1.9530    3.1686 C.ar      1 RES1    0.0000
      6 C4         0.8658   -2.4183    2.5911 C.ar      1 RES1    0.0000
      7 C5         0.0106   -1.5377    1.9503 C.ar      1 RES1    0.0000
      8 C6         0.3108   -0.1735    1.8882 C.ar      1 RES1    0.0000
      9 C7         1.4776    0.2931    2.4712 C.ar      1 RES1    0.0000
     10 C8         3.0535    1.1921    4.5938 C.ar      1 RES1    0.0000
     11 C9         3.2981    1.3196    5.9569 C.ar      1 RES1    0.0000
     12 C10        2.6753    2.3631    6.6584 C.ar      1 RES1    0.0000
     13 C11        1.8293    3.2516    6.0134 C.ar      1 RES1    0.0000
     14 C12        1.5697    3.1096    4.6406 C.ar      1 RES1    0.0000
     15 C13        2.1818    2.0832    3.9446 C.ar      1 RES1    0.0000
     16 C14        4.2233    0.7781    2.4423 C.ar      1 RES1    0.0000
     17 C15        5.4673    0.5205    1.8813 C.ar      1 RES1    0.0000
     18 C16        5.8313    1.1566    0.6850 C.ar      1 RES1    0.0000
     19 C17        4.9617    2.0543    0.0786 C.ar      1 RES1    0.0000
     20 C18        3.7092    2.3211    0.6437 C.ar      1 RES1    0.0000
     21 C19        3.3395    1.6784    1.8166 C.ar      1 RES1    0.0000
     22 C20        1.9634    1.7388    2.4781 C.3       1 RES1    0.0000
     23 C21        6.7869   -0.9502    4.8253 C.3       1 RES1    0.0000
     24 C22        7.9695   -0.0815    5.1878 C.3       1 RES1    0.0000
     25 H1         2.6143   -2.5589    3.5311 H         1 RES1    0.0000
     26 H2         0.5892   -3.3291    2.6490 H         1 RES1    0.0000
     27 H3        -0.7350   -1.8137    1.6457 H         1 RES1    0.0000
     28 H4        -0.2657    0.4613    1.4789 H         1 RES1    0.0000
     29 H5         3.8591    0.6979    6.3731 H         1 RES1    0.0000
     30 H6         2.8960    2.4959    7.7045 H         1 RES1    0.0000
     31 H7         1.3834    3.9863    6.4145 H         1 RES1    0.0000
     32 H8         0.9845    3.7155    4.2272 H         1 RES1    0.0000
     33 H9         6.1140   -0.1157    2.2617 H         1 RES1    0.0000
     34 H10        6.6771    0.9581    0.2963 H         1 RES1    0.0000
     35 H11        5.1305    2.4393   -0.8283 H         1 RES1    0.0000
     36 H12        3.1077    2.9559    0.2591 H         1 RES1    0.0000
     37 H13        1.3648    2.3855    2.0522 H         1 RES1    0.0000
     38 H14        4.1505   -1.2262    5.1079 H         1 RES1    0.0000
     39 H15        6.8415   -1.2972    3.9694 H         1 RES1    0.0000
     40 H16        6.6829   -1.6284    5.4593 H         1 RES1    0.0000
     41 H17        7.9584    0.6664    4.5952 H         1 RES1    0.0000
     42 H18        8.8500   -0.5914    5.0844 H         1 RES1    0.0000
     43 H19        7.8814    0.3128    6.0727 H         1 RES1    0.0000
@<TRIPOS>BOND
     1    1    2 1
     2    2    3 1
     3    3    4 1
     4    4    5 ar
     5    5    6 ar
     6    6    7 ar
     7    7    8 ar
     8    8    9 ar
     9    9    4 ar
    10   10    3 1
    11   11   10 ar
    12   12   11 ar
    13   13   12 ar
    14   14   13 ar
    15   15   10 ar
    16   16    3 1
    17   17   16 ar
    18   18   17 ar
    19   19   18 ar
    20   20   19 ar
    21   21   16 ar
    22   22    9 1
    23   23    1 1
    24   24   23 1
    25   25    5 1
    26   26    6 1
    27   27    7 1
    28   28    8 1
    29   29   11 1
    30   30   12 1
    31   31   13 1
    32   32   14 1
    33   33   17 1
    34   34   18 1
    35   35   19 1
    36   36   20 1
    37   37   22 1
    38   38    2 1
    39   39   23 1
    40   40   23 1
    41   41   24 1
    42   42   24 1
    43   43   24 1
    44   14   15 ar
    45   15   22 1
    46   20   21 ar
    47   21   22 1
@<TRIPOS>SUBSTRUCTURE
     1 RES1 1

@<TRIPOS>CRYSIN
   8.9660   13.1430   14.3390  90.0000 106.0120  90.0000  14 2

