# MOL2 file generated by ConQuest
# Please check atom types

@<TRIPOS>MOLECULE
ENIMAP
    48    50     2
SMALL
NO_CHARGES
****
Generated from CSD

@<TRIPOS>ATOM
      1 O1         8.2009    2.1882    5.9460 O.3       1 RES1    0.0000
      2 N1         6.9772    3.0505    5.9353 N.3       1 RES1    0.0000
      3 C1         6.6245    3.2129    4.5047 C.3       1 RES1    0.0000
      4 C2         5.9452    2.3650    6.7114 C.3       1 RES1    0.0000
      5 C3         6.2664    2.1958    8.2354 C.ar      1 RES1    0.0000
      6 C4         7.3580    2.6779    8.9618 C.ar      1 RES1    0.0000
      7 C5         8.4239    3.6434    8.4454 C.3       1 RES1    0.0000
      8 C6         7.4350    2.3163   10.3068 C.ar      1 RES1    0.0000
      9 C7         6.4762    1.5744   10.9244 C.ar      1 RES1    0.0000
     10 C8         5.3289    1.1628   10.2533 C.ar      1 RES1    0.0000
     11 C9         4.2521    0.3860   10.9584 C.3       1 RES1    0.0000
     12 C10        5.2405    1.5022    8.9035 C.ar      1 RES1    0.0000
     13 C11        4.0380    1.1937    8.0263 C.3       1 RES1    0.0000
     14 C12        3.6167    2.5219    7.4291 C.ar      1 RES1    0.0000
     15 C13        4.5520    0.3482    6.8884 C.ar      1 RES1    0.0000
     16 C14        4.6331    3.1625    6.7299 C.ar      1 RES1    0.0000
     17 C15        5.6085    0.9422    6.2076 C.ar      1 RES1    0.0000
     18 C16        6.2379    0.2254    5.2089 C.ar      1 RES1    0.0000
     19 C17        5.7744   -1.0404    4.8704 C.ar      1 RES1    0.0000
     20 C18        3.1448    5.0059    6.3535 C.ar      1 RES1    0.0000
     21 C19        4.0848   -0.9110    6.5393 C.ar      1 RES1    0.0000
     22 C20        4.7067   -1.5940    5.5064 C.ar      1 RES1    0.0000
     23 C21        4.4021    4.4318    6.2086 C.ar      1 RES1    0.0000
     24 C22        2.1483    4.3621    7.0294 C.ar      1 RES1    0.0000
     25 C23        2.3763    3.1056    7.5838 C.ar      1 RES1    0.0000
     26 H1         8.4517    1.8573    6.3992 H         1 RES1    0.0000
     27 H2         6.5798    1.2880   11.7753 H         1 RES1    0.0000
     28 H3         8.2456    2.6489   10.8417 H         1 RES1    0.0000
     29 H4         6.6227    4.0312    4.3219 H         1 RES1    0.0000
     30 H5         7.4423    2.8589    4.0661 H         1 RES1    0.0000
     31 H6         5.8279    2.7752    4.2003 H         1 RES1    0.0000
     32 H7         3.3376    0.7525   10.9915 H         1 RES1    0.0000
     33 H8         7.0318    0.5515    4.7965 H         1 RES1    0.0000
     34 H9         5.0776    4.8762    5.7126 H         1 RES1    0.0000
     35 H10        6.1781   -1.5371    4.1264 H         1 RES1    0.0000
     36 H11        4.3513   -2.4942    5.2526 H         1 RES1    0.0000
     37 H12        3.2805   -1.2524    7.0343 H         1 RES1    0.0000
     38 H13        1.2744    4.7517    7.1510 H         1 RES1    0.0000
     39 H14        1.6934    2.6383    8.0778 H         1 RES1    0.0000
     40 H15        3.2583    0.7152    8.5417 H         1 RES1    0.0000
     41 H16        3.0333    5.9276    5.9577 H         1 RES1    0.0000
     42 H17        4.0964   -0.5319   10.4926 H         1 RES1    0.0000
     43 H18        4.6857    0.0516   11.7822 H         1 RES1    0.0000
     44 H19        9.0414    2.9140    8.2567 H         1 RES1    0.0000
     45 H20        8.0876    4.1468    7.5565 H         1 RES1    0.0000
     46 H21        8.7474    4.0988    9.2623 H         1 RES1    0.0000
     47 O2         6.9026    4.4795    6.6219 Du        2 SUP2    0.0000
     48 H22        6.9550    5.1555    5.9363 Du        2 SUP2    0.0000
@<TRIPOS>BOND
     1    1    2 1
     2    2    3 1
     3    3   29 1
     4    4    2 1
     5    5    4 1
     6    6    5 ar
     7    7    6 1
     8    8    6 ar
     9    9    8 ar
    10   10    9 ar
    11   11   10 1
    12   12    5 ar
    13   13   12 1
    14   14   13 1
    15   15   13 1
    16   16    4 1
    17   17    4 1
    18   18   17 ar
    19   19   18 ar
    20   20   23 ar
    21   21   15 ar
    22   22   19 ar
    23   23   16 ar
    24   24   20 ar
    25   25   14 ar
    26   26    1 1
    27   27    9 1
    28   28    8 1
    29   30    3 1
    30   31    3 1
    31   32   11 1
    32   33   18 1
    33   34   23 1
    34   35   19 1
    35   36   22 1
    36   37   21 1
    37   38   24 1
    38   39   25 1
    39   40   13 1
    40   41   20 1
    41   42   11 1
    42   43   11 1
    43   44    7 1
    44   45    7 1
    45   46    7 1
    46   10   12 ar
    47   14   16 ar
    48   15   17 ar
    49   21   22 ar
    50   24   25 ar
@<TRIPOS>SUBSTRUCTURE
     1 RES1 1
     2 SUP2 47

@<TRIPOS>CRYSIN
   9.9270   17.7900   10.1680  90.0000 106.9700  90.0000  14 1

