# MOL2 file generated by ConQuest
# Please check atom types

@<TRIPOS>MOLECULE
ENIMET
    49    53     1
SMALL
NO_CHARGES
****
Generated from CSD

@<TRIPOS>ATOM
      1 O1         2.4510    1.0007    6.5429 O.3       1 RES1    0.0000
      2 N1         1.2053    0.2691    6.7600 N.3       1 RES1    0.0000
      3 C1        -4.3779    2.0412    9.0007 C.3       1 RES1    0.0000
      4 C2        -3.3466    1.0453    8.5556 C.ar      1 RES1    0.0000
      5 C3        -3.6236   -0.3163    8.5719 C.ar      1 RES1    0.0000
      6 C4        -2.6551   -1.2293    8.2380 C.ar      1 RES1    0.0000
      7 C5        -0.3939   -2.0099    7.6162 C.3       1 RES1    0.0000
      8 C6        -1.3661   -0.8642    7.8153 C.ar      1 RES1    0.0000
      9 C7        -1.1031    0.5093    7.7030 C.ar      1 RES1    0.0000
     10 C8        -2.0703    1.4312    8.1543 C.ar      1 RES1    0.0000
     11 C9        -1.5500    2.8529    8.2972 C.3       1 RES1    0.0000
     12 C10        0.2354    1.2251    7.3078 C.3       1 RES1    0.0000
     13 C11        0.6599    1.8493    8.6546 C.ar      1 RES1    0.0000
     14 C12       -0.3058    2.7271    9.1662 C.ar      1 RES1    0.0000
     15 C13       -0.1116    3.3610   10.3843 C.ar      1 RES1    0.0000
     16 C14        1.8044    1.5915    9.3847 C.ar      1 RES1    0.0000
     17 C15        1.0524    3.1096   11.1031 C.ar      1 RES1    0.0000
     18 C16        1.9926    2.2320   10.6100 C.ar      1 RES1    0.0000
     19 C17        3.5341    0.1164    6.8024 C.3       1 RES1    0.0000
     20 C18        0.8145   -0.2916    5.4454 C.3       1 RES1    0.0000
     21 C19       -0.0892    2.4511    6.4031 C.ar      1 RES1    0.0000
     22 C20       -1.0604    3.2991    6.9443 C.ar      1 RES1    0.0000
     23 C21       -1.4490    4.4653    6.3010 C.ar      1 RES1    0.0000
     24 C22        0.5461    2.8299    5.2310 C.ar      1 RES1    0.0000
     25 C23        0.1656    4.0159    4.5887 C.ar      1 RES1    0.0000
     26 C24       -0.8358    4.8144    5.1145 C.ar      1 RES1    0.0000
     27 H1        -1.1640    5.7421    4.6826 H         1 RES1    0.0000
     28 H2         0.6897    4.2131    3.6881 H         1 RES1    0.0000
     29 H3         1.2875    2.2910    4.8317 H         1 RES1    0.0000
     30 H4         2.7905    2.0164   11.1327 H         1 RES1    0.0000
     31 H5         1.2143    3.5146   12.0047 H         1 RES1    0.0000
     32 H6        -2.1455    5.1535    6.7268 H         1 RES1    0.0000
     33 H7        -0.8450    4.0775   10.6641 H         1 RES1    0.0000
     34 H8        -2.2256    3.4751    8.6618 H         1 RES1    0.0000
     35 H9         2.5117    0.9490    9.0498 H         1 RES1    0.0000
     36 H10        3.4555   -0.1819    7.6907 H         1 RES1    0.0000
     37 H11        3.5958   -0.6024    6.1326 H         1 RES1    0.0000
     38 H12        4.3300    0.6624    6.7462 H         1 RES1    0.0000
     39 H13        1.2581   -1.1738    5.2595 H         1 RES1    0.0000
     40 H14       -0.0855   -0.5543    5.4484 H         1 RES1    0.0000
     41 H15        1.0617    0.3278    4.6408 H         1 RES1    0.0000
     42 H16        0.5279   -1.7607    7.7050 H         1 RES1    0.0000
     43 H17       -0.5166   -2.4266    6.7146 H         1 RES1    0.0000
     44 H18       -0.6309   -2.6995    8.3003 H         1 RES1    0.0000
     45 H19       -2.8716   -2.2138    8.3646 H         1 RES1    0.0000
     46 H20       -4.5046   -0.6315    8.8986 H         1 RES1    0.0000
     47 H21       -5.1310    1.5428    9.2407 H         1 RES1    0.0000
     48 H22       -4.6056    2.6377    8.2186 H         1 RES1    0.0000
     49 H23       -4.1531    2.6600    9.7063 H         1 RES1    0.0000
@<TRIPOS>BOND
     1    1    2 1
     2    2   12 1
     3    3    4 1
     4    4    5 ar
     5    5    6 ar
     6    6    8 ar
     7    7    8 1
     8    8    9 ar
     9    9   10 ar
    10   10    4 ar
    11   11   10 1
    12   12    9 1
    13   13   12 1
    14   14   11 1
    15   15   14 ar
    16   16   13 ar
    17   17   15 ar
    18   18   16 ar
    19   19    1 1
    20   20    2 1
    21   21   12 1
    22   22   11 1
    23   23   22 ar
    24   24   21 ar
    25   25   24 ar
    26   26   23 ar
    27   27   26 1
    28   28   25 1
    29   29   24 1
    30   30   18 1
    31   31   17 1
    32   32   23 1
    33   33   15 1
    34   34   11 1
    35   35   16 1
    36   36   19 1
    37   37   19 1
    38   38   19 1
    39   39   20 1
    40   40   20 1
    41   41   20 1
    42   42    7 1
    43   43    7 1
    44   44    7 1
    45   45    6 1
    46   46    5 1
    47   47    3 1
    48   48    3 1
    49   49    3 1
    50   13   14 ar
    51   17   18 ar
    52   21   22 ar
    53   25   26 ar
@<TRIPOS>SUBSTRUCTURE
     1 RES1 1

@<TRIPOS>CRYSIN
  10.3357   17.1612   10.5430  90.0000 104.4230  90.0000  14 2

