# MOL2 file generated by ConQuest
# Please check atom types

@<TRIPOS>MOLECULE
ENIVAY
    34    36     1
SMALL
USER_CHARGES
****
Generated from CSD

@<TRIPOS>ATOM
      1 O1         8.1182   -2.2393    2.8590 O.2       1 RES1    0.0000
      2 O2         8.0933   -2.9293    5.0160 O.2       1 RES1   -1.0000
      3 O3         4.8349    5.4310    1.8485 O.2       1 RES1    0.0000
      4 N1         7.7179   -1.1552    2.1212 N.ar      1 RES1    0.0000
      5 N2         7.1604   -0.3643    3.0017 N.pl3     1 RES1    1.0000
      6 C1         7.1725   -0.8283    4.2542 C.ar      1 RES1    0.0000
      7 H1         6.8273   -0.4023    5.0056 H         1 RES1    0.0000
      8 C2         7.7975   -2.0653    4.2222 C.ar      1 RES1    0.0000
      9 C3         6.6467    0.8902    2.5242 C.ar      1 RES1    0.0000
     10 C4         6.4554    1.0465    1.1622 C.ar      1 RES1    0.0000
     11 H2         6.6152    0.3404    0.5784 H         1 RES1    0.0000
     12 C5         6.0272    2.2581    0.6858 C.ar      1 RES1    0.0000
     13 H3         5.9182    2.3787   -0.2304 H         1 RES1    0.0000
     14 C6         5.7558    3.3078    1.5511 C.ar      1 RES1    0.0000
     15 C7         5.9003    3.0960    2.9237 C.ar      1 RES1    0.0000
     16 H4         5.6848    3.7807    3.5150 H         1 RES1    0.0000
     17 C8         6.3547    1.8939    3.4212 C.ar      1 RES1    0.0000
     18 H5         6.4615    1.7646    4.3356 H         1 RES1    0.0000
     19 C9         5.2792    4.6352    1.0571 C.2       1 RES1    0.0000
     20 C10        5.3564    4.9256   -0.3807 C.2       1 RES1    0.0000
     21 H6         5.7275    4.2845   -0.9428 H         1 RES1    0.0000
     22 C11        4.9222    6.0578   -0.9158 C.2       1 RES1    0.0000
     23 H7         4.5900    6.6815   -0.3127 H         1 RES1    0.0000
     24 C12        4.8917    6.4680   -2.3239 C.ar      1 RES1    0.0000
     25 C13        5.2935    5.6222   -3.3356 C.ar      1 RES1    0.0000
     26 H8         5.6035    4.7709   -3.1247 H         1 RES1    0.0000
     27 C14        5.2429    6.0126   -4.6462 C.ar      1 RES1    0.0000
     28 H9         5.5154    5.4247   -5.3136 H         1 RES1    0.0000
     29 C15        4.7918    7.2710   -4.9873 C.ar      1 RES1    0.0000
     30 H10        4.7619    7.5352   -5.8779 H         1 RES1    0.0000
     31 C16        4.3860    8.1319   -3.9878 C.ar      1 RES1    0.0000
     32 H11        4.0811    8.9824   -4.2062 H         1 RES1    0.0000
     33 C17        4.4312    7.7391   -2.6740 C.ar      1 RES1    0.0000
     34 H12        4.1511    8.3255   -2.0079 H         1 RES1    0.0000
@<TRIPOS>BOND
     1    1    4 ar
     2    2    8 1
     3    3   19 2
     4    4    5 ar
     5    5    6 ar
     6    6    7 1
     7    8    1 ar
     8    9    5 1
     9   10    9 ar
    10   11   10 1
    11   12   10 ar
    12   13   12 1
    13   14   12 ar
    14   15   14 ar
    15   16   15 1
    16   17    9 ar
    17   18   17 1
    18   19   14 1
    19   20   19 1
    20   21   20 1
    21   22   20 2
    22   23   22 1
    23   24   22 1
    24   25   24 ar
    25   26   25 1
    26   27   25 ar
    27   28   27 1
    28   29   27 ar
    29   30   29 1
    30   31   29 ar
    31   32   31 1
    32   33   24 ar
    33   34   33 1
    34    6    8 ar
    35   15   17 ar
    36   31   33 ar
@<TRIPOS>SUBSTRUCTURE
     1 RES1 1

@<TRIPOS>CRYSIN
   7.5839    7.9343   23.5430  90.0000  92.9540  90.0000  14 1

