# MOL2 file generated by ConQuest
# Please check atom types

@<TRIPOS>MOLECULE
ENIZIK01
    96   104     2
SMALL
USER_CHARGES
****
Generated from CSD

@<TRIPOS>ATOM
      1 O1         2.8412    3.2066    3.4409 O.2       1 RES1   -1.0000
      2 O2        -0.4320    2.1214    0.3354 O.2       1 RES1    0.0000
      3 N1         1.7005    3.0710    2.8579 N.pl3     1 RES1    1.0000
      4 N2         0.1532    2.5103    1.4100 N.3       1 RES1    0.0000
      5 C1         1.4909    2.6370    1.5973 C.2       1 RES1    0.0000
      6 C2         0.4118    3.5332    3.4888 C.3       1 RES1    0.0000
      7 C3        -0.5837    2.6651    2.7082 C.3       1 RES1    0.0000
      8 C4         0.4206    3.3177    4.9883 C.3       1 RES1    0.0000
      9 H1         0.5988    2.3733    5.1814 H         1 RES1    0.0000
     10 H2        -0.4518    3.5673    5.3577 H         1 RES1    0.0000
     11 H3         1.1185    3.8725    5.3943 H         1 RES1    0.0000
     12 C5         0.2991    5.0236    3.1611 C.3       1 RES1    0.0000
     13 H4         1.1048    5.4880    3.4709 H         1 RES1    0.0000
     14 H5        -0.4859    5.3984    3.6106 H         1 RES1    0.0000
     15 H6         0.2073    5.1391    2.1930 H         1 RES1    0.0000
     16 C6        -1.9490    3.2732    2.4978 C.3       1 RES1    0.0000
     17 H7        -1.8562    4.1317    2.0366 H         1 RES1    0.0000
     18 H8        -2.3798    3.4147    3.3677 H         1 RES1    0.0000
     19 H9        -2.4962    2.6673    1.9567 H         1 RES1    0.0000
     20 C7        -0.7067    1.2489    3.2775 C.3       1 RES1    0.0000
     21 H10       -1.1617    0.6733    2.6290 H         1 RES1    0.0000
     22 H11       -1.2231    1.2740    4.1098 H         1 RES1    0.0000
     23 H12        0.1875    0.8911    3.4576 H         1 RES1    0.0000
     24 C8         2.5045    2.2555    0.6210 C.ar      1 RES1    0.0000
     25 C9         2.3818    1.0029    0.0103 C.ar      1 RES1    0.0000
     26 H13        1.6573    0.4348    0.2396 H         1 RES1    0.0000
     27 C10        3.3019    0.5918   -0.9198 C.ar      1 RES1    0.0000
     28 H14        3.2068   -0.2659   -1.3178 H         1 RES1    0.0000
     29 C11        4.3735    1.3985   -1.2958 C.ar      1 RES1    0.0000
     30 C12        5.3408    1.0044   -2.2669 C.ar      1 RES1    0.0000
     31 H15        5.2730    0.1415   -2.6589 H         1 RES1    0.0000
     32 C13        6.3418    1.8103   -2.6469 C.ar      1 RES1    0.0000
     33 H16        6.9590    1.5118   -3.3045 H         1 RES1    0.0000
     34 C14        6.4944    3.1207   -2.0749 C.ar      1 RES1    0.0000
     35 C15        7.5541    3.9658   -2.4349 C.ar      1 RES1    0.0000
     36 H17        8.1869    3.6806   -3.0815 H         1 RES1    0.0000
     37 C16        7.6790    5.2058   -1.8549 C.ar      1 RES1    0.0000
     38 H18        8.4066    5.7665   -2.0965 H         1 RES1    0.0000
     39 C17        6.7516    5.6472   -0.9205 C.ar      1 RES1    0.0000
     40 H19        6.8443    6.5132   -0.5424 H         1 RES1    0.0000
     41 C18        5.6825    4.8302   -0.5291 C.ar      1 RES1    0.0000
     42 C19        4.7125    5.2450    0.4346 C.ar      1 RES1    0.0000
     43 H20        4.7862    6.1109    0.8186 H         1 RES1    0.0000
     44 C20        3.6984    4.4465    0.8156 C.ar      1 RES1    0.0000
     45 H21        3.0660    4.7651    1.4476 H         1 RES1    0.0000
     46 C21        3.5536    3.1162    0.2795 C.ar      1 RES1    0.0000
     47 C22        4.4937    2.6925   -0.6995 C.ar      1 RES1    0.0000
     48 C23        5.5617    3.5458   -1.1025 C.ar      1 RES1    0.0000
     49 O3         5.8442    4.8125    5.3125 O.2       2 RES2   -1.0000
     50 O4         5.4194    8.1820    8.4522 O.2       2 RES2    0.0000
     51 N3         5.4668    5.8865    5.9005 N.pl3     2 RES2    1.0000
     52 N4         5.3218    7.5072    7.3647 N.3       2 RES2    0.0000
     53 C24        5.8900    6.3117    7.1158 C.2       2 RES2    0.0000
     54 C25        4.3463    6.7465    5.3834 C.3       2 RES2    0.0000
     55 C26        4.6530    8.0694    6.1318 C.3       2 RES2    0.0000
     56 C27        3.0607    6.0546    5.8333 C.3       2 RES2    0.0000
     57 H22        3.0436    5.1376    5.4875 H         2 RES2    0.0000
     58 H23        2.2862    6.5472    5.4875 H         2 RES2    0.0000
     59 H24        3.0252    6.0346    6.8120 H         2 RES2    0.0000
     60 C28        4.3970    6.8176    3.8689 C.3       2 RES2    0.0000
     61 H25        5.2903    7.1065    3.5840 H         2 RES2    0.0000
     62 H26        3.7301    7.4598    3.5507 H         2 RES2    0.0000
     63 H27        4.2062    5.9332    3.4942 H         2 RES2    0.0000
     64 C29        3.4458    8.8894    6.5058 C.3       2 RES2    0.0000
     65 H28        2.8332    8.3427    7.0416 H         2 RES2    0.0000
     66 H29        2.9908    9.1894    5.6905 H         2 RES2    0.0000
     67 H30        3.7295    9.6686    7.0283 H         2 RES2    0.0000
     68 C30        5.6926    8.9235    5.4313 C.3       2 RES2    0.0000
     69 H31        6.0057    9.6234    6.0433 H         2 RES2    0.0000
     70 H32        5.2933    9.3375    4.6389 H         2 RES2    0.0000
     71 H33        6.4484    8.3620    5.1614 H         2 RES2    0.0000
     72 C31        6.7526    5.5391    8.0140 C.ar      2 RES2    0.0000
     73 C32        6.4091    4.2169    8.2958 C.ar      2 RES2    0.0000
     74 H34        5.6481    3.8332    7.8769 H         2 RES2    0.0000
     75 C33        7.1541    3.4584    9.1704 C.ar      2 RES2    0.0000
     76 H35        6.8941    2.5614    9.3477 H         2 RES2    0.0000
     77 C34        8.2848    3.9858    9.8003 C.ar      2 RES2    0.0000
     78 C35        9.0893    3.2384   10.7118 C.ar      2 RES2    0.0000
     79 H36        8.8328    2.3481   10.9251 H         2 RES2    0.0000
     80 C36       10.2042    3.7510   11.2852 C.ar      2 RES2    0.0000
     81 H37       10.7184    3.2162   11.8769 H         2 RES2    0.0000
     82 C37       10.6112    5.0939   11.0023 C.ar      2 RES2    0.0000
     83 C38       11.7700    5.6658   11.5517 C.ar      2 RES2    0.0000
     84 H38       12.2923    5.1584   12.1631 H         2 RES2    0.0000
     85 C39       12.1694    6.9465   11.2256 C.ar      2 RES2    0.0000
     86 H39       12.9617    7.3072   11.6073 H         2 RES2    0.0000
     87 C40       11.4202    7.7035   10.3501 C.ar      2 RES2    0.0000
     88 H40       11.7071    8.5835   10.1331 H         2 RES2    0.0000
     89 C41       10.2433    7.2005    9.7744 C.ar      2 RES2    0.0000
     90 C42        9.4683    7.9398    8.8353 C.ar      2 RES2    0.0000
     91 H41        9.7472    8.8160    8.5957 H         2 RES2    0.0000
     92 C43        8.3488    7.4346    8.2729 C.ar      2 RES2    0.0000
     93 H42        7.8525    7.9642    7.6606 H         2 RES2    0.0000
     94 C44        7.8977    6.1006    8.5903 C.ar      2 RES2    0.0000
     95 C45        8.6631    5.3302    9.5085 C.ar      2 RES2    0.0000
     96 C46        9.8276    5.8806   10.1161 C.ar      2 RES2    0.0000
@<TRIPOS>BOND
     1    1    3 1
     2    2    4 1
     3    3    5 2
     4    4    5 1
     5    5   24 1
     6    6    3 1
     7    7    4 1
     8    8    6 1
     9    9    8 1
    10   10    8 1
    11   11    8 1
    12   12    6 1
    13   13   12 1
    14   14   12 1
    15   15   12 1
    16   16    7 1
    17   17   16 1
    18   18   16 1
    19   19   16 1
    20   20    7 1
    21   21   20 1
    22   22   20 1
    23   23   20 1
    24   24   25 ar
    25   25   26 1
    26   27   25 ar
    27   28   27 1
    28   29   27 ar
    29   30   29 ar
    30   31   30 1
    31   32   30 ar
    32   33   32 1
    33   34   32 ar
    34   35   34 ar
    35   36   35 1
    36   37   35 ar
    37   38   37 1
    38   39   37 ar
    39   40   39 1
    40   41   39 ar
    41   42   41 ar
    42   43   42 1
    43   44   42 ar
    44   45   44 1
    45   46   24 ar
    46   47   29 ar
    47   48   34 ar
    48   49   51 1
    49   50   52 1
    50   51   53 2
    51   52   53 1
    52   53   72 1
    53   54   51 1
    54   55   52 1
    55   56   54 1
    56   57   56 1
    57   58   56 1
    58   59   56 1
    59   60   54 1
    60   61   60 1
    61   62   60 1
    62   63   60 1
    63   64   55 1
    64   65   64 1
    65   66   64 1
    66   67   64 1
    67   68   55 1
    68   69   68 1
    69   70   68 1
    70   71   68 1
    71   72   73 ar
    72   73   74 1
    73   75   73 ar
    74   76   75 1
    75   77   75 ar
    76   78   77 ar
    77   79   78 1
    78   80   78 ar
    79   81   80 1
    80   82   80 ar
    81   83   82 ar
    82   84   83 1
    83   85   83 ar
    84   86   85 1
    85   87   85 ar
    86   88   87 1
    87   89   87 ar
    88   90   89 ar
    89   91   90 1
    90   92   90 ar
    91   93   92 1
    92   94   72 ar
    93   95   77 ar
    94   96   82 ar
    95    6    7 1
    96   41   48 ar
    97   44   46 ar
    98   46   47 ar
    99   47   48 ar
   100   54   55 1
   101   89   96 ar
   102   92   94 ar
   103   94   95 ar
   104   95   96 ar
@<TRIPOS>SUBSTRUCTURE
     1 RES1 1
     2 RES2 49

@<TRIPOS>CRYSIN
  14.4280    7.4072   33.2890  90.0000  91.4830  90.0000 231 1

