# MOL2 file generated by ConQuest
# Please check atom types

@<TRIPOS>MOLECULE
ENIZIK
    96   104     2
SMALL
USER_CHARGES
****
Generated from CSD

@<TRIPOS>ATOM
      1 O1         7.3875   -2.6652   44.9366 O.2       1 RES1    0.0000
      2 O2         7.8096    0.6937   41.8004 O.2       1 RES1   -1.0000
      3 N1         7.7636   -1.5954   44.3469 N.3       1 RES1    0.0000
      4 N2         7.9020    0.0233   42.8896 N.pl3     1 RES1    1.0000
      5 C1         7.3347   -1.1720   43.1389 C.2       1 RES1    0.0000
      6 C2         8.8802   -0.7448   44.8622 C.3       1 RES1    0.0000
      7 C3         8.5972    0.5713   44.1121 C.3       1 RES1    0.0000
      8 C4         8.8426   -0.6652   46.3714 C.3       1 RES1    0.0000
      9 H1         9.4981   -0.0308   46.6747 H         1 RES1    0.0000
     10 H2         9.0388   -1.5286   46.7425 H         1 RES1    0.0000
     11 H3         7.9698   -0.3844   46.6559 H         1 RES1    0.0000
     12 C5        10.1724   -1.4385   44.4123 C.3       1 RES1    0.0000
     13 H4        10.9294   -0.9430   44.7344 H         1 RES1    0.0000
     14 H5        10.1992   -1.4768   43.4532 H         1 RES1    0.0000
     15 H6        10.1985   -2.3296   44.7679 H         1 RES1    0.0000
     16 C6         7.5684    1.4580   44.8129 C.3       1 RES1    0.0000
     17 H7         7.9843    1.9092   45.5495 H         1 RES1    0.0000
     18 H8         6.8448    0.9152   45.1369 H         1 RES1    0.0000
     19 H9         7.2283    2.1067   44.1909 H         1 RES1    0.0000
     20 C7         9.7961    1.3994   43.7239 C.3       1 RES1    0.0000
     21 H10       10.2456    1.7027   44.5163 H         1 RES1    0.0000
     22 H11        9.5087    2.1570   43.2080 H         1 RES1    0.0000
     23 H12       10.3978    0.8656   43.2013 H         1 RES1    0.0000
     24 C8         6.4724   -1.9460   42.2452 C.ar      1 RES1    0.0000
     25 C9         6.8075   -3.2576   41.9550 C.ar      1 RES1    0.0000
     26 H13        7.5522   -3.6337   42.3660 H         1 RES1    0.0000
     27 C10        6.0731   -4.0211   41.0774 C.ar      1 RES1    0.0000
     28 H14        6.3325   -4.8965   40.8993 H         1 RES1    0.0000
     29 C11        4.9389   -3.4903   40.4491 C.ar      1 RES1    0.0000
     30 C12        4.1426   -4.2539   39.5373 C.ar      1 RES1    0.0000
     31 H15        4.3909   -5.1285   39.3411 H         1 RES1    0.0000
     32 C13        3.0481   -3.7351   38.9586 C.ar      1 RES1    0.0000
     33 H16        2.5527   -4.2576   38.3706 H         1 RES1    0.0000
     34 C14        2.6288   -2.3905   39.2310 C.ar      1 RES1    0.0000
     35 C15        1.4783   -1.8319   38.6752 C.ar      1 RES1    0.0000
     36 H17        0.9775   -2.3319   38.0717 H         1 RES1    0.0000
     37 C16        1.0637   -0.5556   38.9982 C.ar      1 RES1    0.0000
     38 H18        0.2891   -0.2072   38.6198 H         1 RES1    0.0000
     39 C17        1.8009    0.2012   39.8822 C.ar      1 RES1    0.0000
     40 H19        1.5158    1.0608   40.0939 H         1 RES1    0.0000
     41 C18        2.9668   -0.2958   40.4662 C.ar      1 RES1    0.0000
     42 C19        3.7477    0.4527   41.4089 C.ar      1 RES1    0.0000
     43 H20        3.4797    1.3146   41.6353 H         1 RES1    0.0000
     44 C20        4.8485   -0.0563   41.9698 C.ar      1 RES1    0.0000
     45 H21        5.3186    0.4617   42.5820 H         1 RES1    0.0000
     46 C21        5.3283   -1.3687   41.6635 C.ar      1 RES1    0.0000
     47 C22        3.3947   -1.6074   40.1365 C.ar      1 RES1    0.0000
     48 C23        4.5628   -2.1540   40.7467 C.ar      1 RES1    0.0000
     49 O3         9.3361   -0.6209   36.9804 O.2       2 RES2    0.0000
     50 O4         6.0960   -1.6592   33.8445 O.2       2 RES2   -1.0000
     51 N3         8.1979   -0.7613   36.3970 N.3       2 RES2    0.0000
     52 N4         6.6663   -1.3011   34.9337 N.pl3     2 RES2    1.0000
     53 C24        8.0094   -1.1584   35.1323 C.2       2 RES2    0.0000
     54 C25        6.9156   -0.3191   37.0334 C.3       2 RES2    0.0000
     55 C26        5.9271   -1.1862   36.2357 C.3       2 RES2    0.0000
     56 C27        6.7725    1.1772   36.7536 C.3       2 RES2    0.0000
     57 H22        5.9863    1.5113   37.1931 H         2 RES2    0.0000
     58 H23        6.6970    1.3206   35.8076 H         2 RES2    0.0000
     59 H24        7.5453    1.6389   37.0857 H         2 RES2    0.0000
     60 C28        6.9307   -0.5706   38.5350 C.3       2 RES2    0.0000
     61 H25        6.0732   -0.3454   38.9073 H         2 RES2    0.0000
     62 H26        7.6083   -0.0278   38.9442 H         2 RES2    0.0000
     63 H27        7.1174   -1.4970   38.7020 H         2 RES2    0.0000
     64 C29        4.5526   -0.5864   36.0123 C.3       2 RES2    0.0000
     65 H28        4.0843   -0.5406   36.8509 H         2 RES2    0.0000
     66 H29        4.0592   -1.1367   35.4017 H         2 RES2    0.0000
     67 H30        4.6432    0.2966   35.6499 H         2 RES2    0.0000
     68 C30        5.8122   -2.6172   36.7503 C.3       2 RES2    0.0000
     69 H31        5.2965   -2.6254   37.5621 H         2 RES2    0.0000
     70 H32        6.6895   -2.9648   36.9281 H         2 RES2    0.0000
     71 H33        5.3799   -3.1622   36.0894 H         2 RES2    0.0000
     72 C31        9.0294   -1.4858   34.1400 C.ar      2 RES2    0.0000
     73 C32        8.9506   -2.7290   33.5030 C.ar      2 RES2    0.0000
     74 H34        8.2575   -3.3116   33.7143 H         2 RES2    0.0000
     75 C33        9.8905   -3.0969   32.5704 C.ar      2 RES2    0.0000
     76 H35        9.8277   -3.9333   32.1645 H         2 RES2    0.0000
     77 C34       10.9326   -2.2493   32.2121 C.ar      2 RES2    0.0000
     78 C35       11.9322   -2.6022   31.2252 C.ar      2 RES2    0.0000
     79 H36       11.8898   -3.4378   30.8192 H         2 RES2    0.0000
     80 C36       12.8863   -1.7861   30.8897 C.ar      2 RES2    0.0000
     81 H37       13.5055   -2.0564   30.2523 H         2 RES2    0.0000
     82 C37       13.0133   -0.4985   31.4657 C.ar      2 RES2    0.0000
     83 C38       14.0414    0.3972   31.1480 C.ar      2 RES2    0.0000
     84 H38       14.6807    0.1502   30.5197 H         2 RES2    0.0000
     85 C39       14.1257    1.6247   31.7384 C.ar      2 RES2    0.0000
     86 H39       14.8250    2.1945   31.5137 H         2 RES2    0.0000
     87 C40       13.1874    2.0353   32.6683 C.ar      2 RES2    0.0000
     88 H40       13.2508    2.8822   33.0464 H         2 RES2    0.0000
     89 C41       12.1404    1.1772   33.0444 C.ar      2 RES2    0.0000
     90 C42       11.1544    1.5458   34.0159 C.ar      2 RES2    0.0000
     91 H41       11.2029    2.3882   34.4074 H         2 RES2    0.0000
     92 C43       10.1645    0.7230   34.3802 C.ar      2 RES2    0.0000
     93 H42        9.5411    1.0045   35.0102 H         2 RES2    0.0000
     94 C44       10.0549   -0.5939   33.8082 C.ar      2 RES2    0.0000
     95 C45       12.0547   -0.0916   32.4469 C.ar      2 RES2    0.0000
     96 C46       11.0103   -0.9745   32.8374 C.ar      2 RES2    0.0000
@<TRIPOS>BOND
     1    1    3 1
     2    2    4 1
     3    3    5 1
     4    4    5 2
     5    5   24 1
     6    6    3 1
     7    7    4 1
     8    8    6 1
     9    9    8 1
    10   10    8 1
    11   11    8 1
    12   12    6 1
    13   13   12 1
    14   14   12 1
    15   15   12 1
    16   16    7 1
    17   17   16 1
    18   18   16 1
    19   19   16 1
    20   20    7 1
    21   21   20 1
    22   22   20 1
    23   23   20 1
    24   24   25 ar
    25   25   26 1
    26   27   25 ar
    27   28   27 1
    28   29   27 ar
    29   30   29 ar
    30   31   30 1
    31   32   30 ar
    32   33   32 1
    33   34   32 ar
    34   35   34 ar
    35   36   35 1
    36   37   35 ar
    37   38   37 1
    38   39   37 ar
    39   40   39 1
    40   41   39 ar
    41   42   41 ar
    42   43   42 1
    43   44   42 ar
    44   45   44 1
    45   46   24 ar
    46   47   34 ar
    47   48   29 ar
    48   49   51 1
    49   50   52 1
    50   51   53 1
    51   52   53 2
    52   53   72 1
    53   54   51 1
    54   55   52 1
    55   56   54 1
    56   57   56 1
    57   58   56 1
    58   59   56 1
    59   60   54 1
    60   61   60 1
    61   62   60 1
    62   63   60 1
    63   64   55 1
    64   65   64 1
    65   66   64 1
    66   67   64 1
    67   68   55 1
    68   69   68 1
    69   70   68 1
    70   71   68 1
    71   72   73 ar
    72   73   74 1
    73   75   73 ar
    74   76   75 1
    75   77   75 ar
    76   78   77 ar
    77   79   78 1
    78   80   78 ar
    79   81   80 1
    80   82   80 ar
    81   83   82 ar
    82   84   83 1
    83   85   83 ar
    84   86   85 1
    85   87   85 ar
    86   88   87 1
    87   89   87 ar
    88   90   89 ar
    89   91   90 1
    90   92   90 ar
    91   93   92 1
    92   94   72 ar
    93   95   82 ar
    94   96   77 ar
    95    6    7 1
    96   41   47 ar
    97   44   46 ar
    98   46   48 ar
    99   47   48 ar
   100   54   55 1
   101   89   95 ar
   102   92   94 ar
   103   94   96 ar
   104   95   96 ar
@<TRIPOS>SUBSTRUCTURE
     1 RES1 1
     2 RES2 49

@<TRIPOS>CRYSIN
  14.5730    7.5077   33.5570  90.0000  91.4280  90.0000 231 1

