# MOL2 file generated by ConQuest
# Please check atom types

@<TRIPOS>MOLECULE
ENIZEG
    37    39     1
SMALL
NO_CHARGES
****
Generated from CSD

@<TRIPOS>ATOM
      1 O1        10.6973    1.6691   -1.2011 O.3       1 RES1    0.0000
      2 O2        12.4614    2.6123   -2.2314 O.2       1 RES1    0.0000
      3 O3        13.4890    5.8151    3.5241 O.2       1 RES1    0.0000
      4 O4        14.5217    5.8312    1.6321 O.2       1 RES1    0.0000
      5 N1        13.6380    5.4247    2.3741 N.pl3     1 RES1    0.0000
      6 N2         5.7903   -2.6724   -2.4429 N.3       1 RES1    0.0000
      7 C1        11.8066    2.4965   -1.2362 C.2       1 RES1    0.0000
      8 C2        11.9333    3.1041    0.0883 C.ar      1 RES1    0.0000
      9 C3        12.8493    4.0194    0.5496 C.ar      1 RES1    0.0000
     10 H1        13.5354    4.3407    0.0089 H         1 RES1    0.0000
     11 C4        12.7014    4.4340    1.8469 C.ar      1 RES1    0.0000
     12 C5        11.6928    3.9467    2.6854 C.ar      1 RES1    0.0000
     13 H2        11.6351    4.2438    3.5641 H         1 RES1    0.0000
     14 C6        10.7909    3.0323    2.2118 C.ar      1 RES1    0.0000
     15 H3        10.1135    2.7065    2.7599 H         1 RES1    0.0000
     16 C7        10.9085    2.5988    0.8907 C.ar      1 RES1    0.0000
     17 C8        10.1304    1.6871    0.0864 C.2       1 RES1    0.0000
     18 C9         9.0590    0.9602    0.4081 C.2       1 RES1    0.0000
     19 H4         8.7809    1.0580    1.2913 H         1 RES1    0.0000
     20 C10        8.2549    0.0494   -0.3664 C.ar      1 RES1    0.0000
     21 C11        7.1997   -0.6228    0.2577 C.ar      1 RES1    0.0000
     22 H5         7.0388   -0.4577    1.1588 H         1 RES1    0.0000
     23 C12        6.3912   -1.5121   -0.3962 C.ar      1 RES1    0.0000
     24 H6         5.7051   -1.9357    0.0670 H         1 RES1    0.0000
     25 C13        6.5836   -1.7921   -1.7605 C.ar      1 RES1    0.0000
     26 C14        7.6388   -1.1101   -2.4054 C.ar      1 RES1    0.0000
     27 H7         7.7910   -1.2608   -3.3094 H         1 RES1    0.0000
     28 C15        8.4397   -0.2342   -1.7322 C.ar      1 RES1    0.0000
     29 H8         9.1301    0.1876   -2.1909 H         1 RES1    0.0000
     30 C16        4.6873   -3.3500   -1.7962 C.3       1 RES1    0.0000
     31 H9         5.0291   -3.9745   -1.1528 H         1 RES1    0.0000
     32 H10        4.1697   -3.8184   -2.4545 H         1 RES1    0.0000
     33 H11        4.1326   -2.7047   -1.3524 H         1 RES1    0.0000
     34 C17        6.0142   -2.9766   -3.8307 C.3       1 RES1    0.0000
     35 H12        5.4488   -3.7062   -4.0944 H         1 RES1    0.0000
     36 H13        6.9336   -3.2207   -3.9603 H         1 RES1    0.0000
     37 H14        5.8103   -2.2049   -4.3654 H         1 RES1    0.0000
@<TRIPOS>BOND
     1    1    7 1
     2    2    7 2
     3    3    5 2
     4    4    5 2
     5    5   11 1
     6    6   25 1
     7    7    8 1
     8    8    9 ar
     9    9   10 1
    10   11    9 ar
    11   12   11 ar
    12   13   12 1
    13   14   12 ar
    14   15   14 1
    15   16    8 ar
    16   17    1 1
    17   18   17 2
    18   19   18 1
    19   20   18 1
    20   21   20 ar
    21   22   21 1
    22   23   21 ar
    23   24   23 1
    24   25   23 ar
    25   26   25 ar
    26   27   26 1
    27   28   20 ar
    28   29   28 1
    29   30    6 1
    30   31   30 1
    31   32   30 1
    32   33   30 1
    33   34    6 1
    34   35   34 1
    35   36   34 1
    36   37   34 1
    37   14   16 ar
    38   16   17 1
    39   26   28 ar
@<TRIPOS>SUBSTRUCTURE
     1 RES1 1

@<TRIPOS>CRYSIN
  10.8544    8.9739   14.8940  90.0000  90.0130  90.0000  14 1

