# MOL2 file generated by ConQuest
# Please check atom types

@<TRIPOS>MOLECULE
ENPROP
    34    34     1
SMALL
NO_CHARGES
****
Generated from CSD

@<TRIPOS>ATOM
      1 O1         6.6165   12.3284    0.5500 O.2       1 RES1    0.0000
      2 O2         5.4754   11.5772    2.2178 O.2       1 RES1    0.0000
      3 O3        10.4288   13.7179    6.5175 O.3       1 RES1    0.0000
      4 O4         9.7183   15.3047    7.8153 O.2       1 RES1    0.0000
      5 O5        10.4361   15.8545    5.8562 O.2       1 RES1    0.0000
      6 O6        13.1051   11.6575    7.1795 O.2       1 RES1    0.0000
      7 O7        13.4512   13.4988    6.1166 O.2       1 RES1    0.0000
      8 O8        13.5141   11.4003    4.0154 O.2       1 RES1    0.0000
      9 O9        11.4110   11.1471    3.3016 O.3       1 RES1    0.0000
     10 N1         6.4506   12.1161    1.7481 N.pl3     1 RES1    0.0000
     11 N2        10.1721   15.0992    6.7338 N.pl3     1 RES1    0.0000
     12 N3        12.8431   12.4686    6.3136 N.pl3     1 RES1    0.0000
     13 C1         7.5498   12.5067    2.6566 C.ar      1 RES1    0.0000
     14 C2         7.5551   11.9977    3.9250 C.ar      1 RES1    0.0000
     15 C3         8.6156   12.3053    4.7547 C.ar      1 RES1    0.0000
     16 C4         9.6426   13.1204    4.2950 C.ar      1 RES1    0.0000
     17 C5         9.5946   13.6594    3.0197 C.ar      1 RES1    0.0000
     18 C6         8.5324   13.3327    2.1776 C.ar      1 RES1    0.0000
     19 C7        10.8496   13.3845    5.1656 C.3       1 RES1    0.0000
     20 C8        11.6976   12.1283    5.3943 C.3       1 RES1    0.0000
     21 C9        12.3386   11.5241    4.1444 C.2       1 RES1    0.0000
     22 C10       11.8415   10.4708    2.0772 C.3       1 RES1    0.0000
     23 C11       10.7237   10.5524    1.1093 C.3       1 RES1    0.0000
     24 H1         6.8874   11.4043    4.2023 H         1 RES1    0.0000
     25 H2         8.6403   11.9487    5.6623 H         1 RES1    0.0000
     26 H3        10.2802   14.2214    2.7192 H         1 RES1    0.0000
     27 H4         8.5238   13.6362    1.2514 H         1 RES1    0.0000
     28 H5        11.3965   14.1125    4.7894 H         1 RES1    0.0000
     29 H6        11.1607   11.4588    5.8168 H         1 RES1    0.0000
     30 H7        12.0362    9.5263    2.2711 H         1 RES1    0.0000
     31 H8        12.6425   10.9280    1.7072 H         1 RES1    0.0000
     32 H9         9.9627   10.1251    1.5218 H         1 RES1    0.0000
     33 H10       10.9906   10.0298    0.3399 H         1 RES1    0.0000
     34 H11       10.6295   11.4724    0.8652 H         1 RES1    0.0000
@<TRIPOS>BOND
     1    1   10 2
     2    2   10 2
     3    3   11 1
     4    4   11 2
     5    5   11 2
     6    6   12 2
     7    7   12 2
     8    8   21 2
     9    9   21 1
    10   10   13 1
    11   12   20 1
    12   13   14 ar
    13   14   15 ar
    14   15   16 ar
    15   16   17 ar
    16   17   18 ar
    17   18   13 ar
    18   19    3 1
    19   20   19 1
    20   21   20 1
    21   22    9 1
    22   23   22 1
    23   24   14 1
    24   25   15 1
    25   26   17 1
    26   27   18 1
    27   28   19 1
    28   29   20 1
    29   30   22 1
    30   31   22 1
    31   32   23 1
    32   33   23 1
    33   34   23 1
    34   16   19 1
@<TRIPOS>SUBSTRUCTURE
     1 RES1 1

@<TRIPOS>CRYSIN
  13.4660   13.6090    7.7450  90.0000  94.1300  90.0000 231 1

