# MOL2 file generated by ConQuest
# Please check atom types

@<TRIPOS>MOLECULE
ENUCEW
    92    98     2
SMALL
NO_CHARGES
****
Generated from CSD

@<TRIPOS>ATOM
      1 O1         8.5266    1.8659    2.7171 O.2       1 RES1    0.0000
      2 O2         7.1341    1.8404    4.3472 O.2       1 RES1    0.0000
      3 N1         7.8403    2.4344    3.5572 N.pl3     1 RES1    0.0000
      4 C1         7.0309    5.9115    4.5082 C.ar      1 RES1    0.0000
      5 H1         6.4709    6.3642    5.0969 H         1 RES1    0.0000
      6 C2         7.8698    3.8904    3.6029 C.ar      1 RES1    0.0000
      7 N2         4.3772   12.3598    6.5635 N.ar      1 RES1    0.0000
      8 C3         7.8631    8.0986    3.6410 C.2       1 RES1    0.0000
      9 C4         5.3959   14.4161    5.8162 C.ar      1 RES1    0.0000
     10 C5         6.1724   12.1985    4.9772 C.ar      1 RES1    0.0000
     11 H2         6.7743   12.6293    4.4135 H         1 RES1    0.0000
     12 C6         8.7144    5.9511    2.7868 C.ar      1 RES1    0.0000
     13 H3         9.2864    6.4244    2.2264 H         1 RES1    0.0000
     14 N3         7.0263   10.0787    4.2906 N.pl3     1 RES1    0.0000
     15 C7         6.4186   16.3188    5.0806 C.ar      1 RES1    0.0000
     16 H4         7.0695   16.7264    4.5572 H         1 RES1    0.0000
     17 C8         4.6205   16.5296    6.5964 C.ar      1 RES1    0.0000
     18 H5         4.0473   17.0449    7.1154 H         1 RES1    0.0000
     19 C9         1.4231   10.6190    8.9457 C.ar      1 RES1    0.0000
     20 H6         0.8383   11.1356    9.4517 H         1 RES1    0.0000
     21 C10        2.2111    8.5216    8.1927 C.ar      1 RES1    0.0000
     22 H7         2.1476    7.5942    8.2101 H         1 RES1    0.0000
     23 C11        3.2508   10.4130    7.4245 C.ar      1 RES1    0.0000
     24 C12        7.8692    6.6437    3.6518 C.ar      1 RES1    0.0000
     25 C13        4.3157   11.0177    6.5724 C.ar      1 RES1    0.0000
     26 C14        5.3104   12.9284    5.7748 C.ar      1 RES1    0.0000
     27 C15        5.1718   10.2020    5.8466 C.ar      1 RES1    0.0000
     28 H8         5.1116    9.2755    5.9010 H         1 RES1    0.0000
     29 N4         3.1610    9.0741    7.4234 N.ar      1 RES1    0.0000
     30 C16        2.3982   11.2138    8.1753 C.ar      1 RES1    0.0000
     31 H9         2.4839   12.1391    8.1579 H         1 RES1    0.0000
     32 C17        1.3311    9.2408    8.9511 C.ar      1 RES1    0.0000
     33 H10        0.6825    8.8101    9.4615 H         1 RES1    0.0000
     34 C18        6.1242   10.8128    5.0327 C.ar      1 RES1    0.0000
     35 C19        7.0262    4.5463    4.4897 C.ar      1 RES1    0.0000
     36 H11        6.4695    4.0652    5.0599 H         1 RES1    0.0000
     37 N5         6.3533   14.9874    5.0664 N.ar      1 RES1    0.0000
     38 C20        4.5155   15.1615    6.5931 C.ar      1 RES1    0.0000
     39 H12        3.8640   14.7389    7.1045 H         1 RES1    0.0000
     40 N6         6.9929    8.7283    4.3405 N.2       1 RES1    0.0000
     41 C21        5.5862   17.1306    5.8205 C.ar      1 RES1    0.0000
     42 H13        5.6745   18.0555    5.7966 H         1 RES1    0.0000
     43 C22        8.7132    4.5709    2.7530 C.ar      1 RES1    0.0000
     44 H14        9.2715    4.1095    2.1676 H         1 RES1    0.0000
     45 O3         0.8849   -3.6123   -2.2274 O.2       2 RES2    0.0000
     46 O4         1.9859   -3.5327   -0.3809 O.2       2 RES2    0.0000
     47 N7         1.3931   -2.9874   -1.2971 N.pl3     2 RES2    0.0000
     48 C23        1.2921   -1.5337   -1.2949 C.ar      2 RES2    0.0000
     49 C24        0.6311    0.4780   -2.3689 C.ar      2 RES2    0.0000
     50 H15        0.2425    0.9185   -3.0903 H         2 RES2    0.0000
     51 C25        2.2826    7.4970    1.8194 C.ar      2 RES2    0.0000
     52 C26        2.1656    4.7799    1.9837 C.ar      2 RES2    0.0000
     53 H16        2.1283    3.8546    2.0718 H         2 RES2    0.0000
     54 C27        2.3469    8.9901    1.8009 C.ar      2 RES2    0.0000
     55 C28        1.8613   10.9439    0.7171 C.ar      2 RES2    0.0000
     56 H17        1.5181   11.3851   -0.0272 H         2 RES2    0.0000
     57 C29        2.3437   11.7129    1.7541 C.ar      2 RES2    0.0000
     58 H18        2.3175   12.6417    1.7117 H         2 RES2    0.0000
     59 C30        2.6579    5.5697    3.0131 C.ar      2 RES2    0.0000
     60 C31        1.7283    5.4002    0.8150 C.ar      2 RES2    0.0000
     61 C32        1.0309    2.6729   -1.3003 C.2       2 RES2    0.0000
     62 C33        2.8651   11.0683    2.8564 C.ar      2 RES2    0.0000
     63 H19        3.2115   11.5568    3.5680 H         2 RES2    0.0000
     64 C34        3.9187    3.7421    6.5931 C.ar      2 RES2    0.0000
     65 H20        4.1877    3.2954    7.3635 H         2 RES2    0.0000
     66 C35        3.6435    3.0522    5.4408 C.ar      2 RES2    0.0000
     67 H21        3.7351    2.1273    5.4582 H         2 RES2    0.0000
     68 C36        3.3894    5.7292    5.4092 C.ar      2 RES2    0.0000
     69 H22        3.2968    6.6544    5.3700 H         2 RES2    0.0000
     70 C37        1.7539    0.5357   -0.2383 C.ar      2 RES2    0.0000
     71 H23        2.1101    1.0194    0.4712 H         2 RES2    0.0000
     72 N8         1.8535    9.6058    0.7086 N.ar      2 RES2    0.0000
     73 C38        2.8659    9.6909    2.8890 C.ar      2 RES2    0.0000
     74 H24        3.2074    9.2366    3.6246 H         2 RES2    0.0000
     75 C39        0.6937   -0.8976   -2.3613 C.ar      2 RES2    0.0000
     76 H25        0.3375   -1.3893   -3.0653 H         2 RES2    0.0000
     77 C40        1.8301   -0.8322   -0.2296 C.ar      2 RES2    0.0000
     78 H26        2.2339   -1.2796    0.4777 H         2 RES2    0.0000
     79 C41        3.1286    4.9535    4.2873 C.ar      2 RES2    0.0000
     80 N9         1.2630    4.6739   -0.2688 N.pl3     2 RES2    0.0000
     81 C42        1.1467    1.2144   -1.3003 C.ar      2 RES2    0.0000
     82 N10        1.3700    3.3205   -0.2392 N.2       2 RES2    0.0000
     83 C43        3.7861    5.1211    6.5801 C.ar      2 RES2    0.0000
     84 H27        3.9600    5.6244    7.3428 H         2 RES2    0.0000
     85 N11        2.7371    6.9109    2.9433 N.ar      2 RES2    0.0000
     86 N12        3.2526    3.6176    4.2928 N.ar      2 RES2    0.0000
     87 C44        1.7600    6.7936    0.7454 C.ar      2 RES2    0.0000
     88 H28        1.4391    7.2403   -0.0044 H         2 RES2    0.0000
     89 H29        0.6873    3.1184   -2.1437 H         2 RES2    0.0000
     90 H30        8.5274    8.5888    3.0795 H         1 RES1    0.0000
     91 H31        7.6541   10.4754    3.8085 H         1 RES1    0.0000
     92 H32        1.0708    5.1023   -1.0555 H         2 RES2    0.0000
@<TRIPOS>BOND
     1    1    3 2
     2    2    3 2
     3    3    6 1
     4    4    5 1
     5    6   35 ar
     6    7   25 ar
     7    8   24 1
     8    9   26 1
     9   10   11 1
    10   12   13 1
    11   14   34 1
    12   15   16 1
    13   17   18 1
    14   19   20 1
    15   21   22 1
    16   23   25 1
    17   24    4 ar
    18   25   27 ar
    19   26    7 ar
    20   27   28 1
    21   29   21 ar
    22   30   19 ar
    23   31   30 1
    24   32   19 ar
    25   33   32 1
    26   34   10 ar
    27   35    4 ar
    28   36   35 1
    29   37    9 ar
    30   38    9 ar
    31   39   38 1
    32   40    8 2
    33   41   15 ar
    34   42   41 1
    35   43    6 ar
    36   44   43 1
    37   45   47 2
    38   46   47 2
    39   47   48 1
    40   48   75 ar
    41   49   50 1
    42   51   54 1
    43   52   53 1
    44   54   72 ar
    45   55   56 1
    46   57   55 ar
    47   58   57 1
    48   59   52 ar
    49   60   52 ar
    50   61   81 1
    51   62   57 ar
    52   63   62 1
    53   64   65 1
    54   66   64 ar
    55   67   66 1
    56   68   69 1
    57   70   71 1
    58   72   55 ar
    59   73   54 ar
    60   74   73 1
    61   75   49 ar
    62   76   75 1
    63   77   48 ar
    64   78   77 1
    65   79   59 1
    66   80   60 1
    67   81   49 ar
    68   82   61 2
    69   83   64 ar
    70   84   83 1
    71   85   51 ar
    72   86   66 ar
    73   87   51 ar
    74   88   87 1
    75   89   61 1
    76   90    8 1
    77   91   14 1
    78   92   80 1
    79   10   26 ar
    80   12   24 ar
    81   12   43 ar
    82   14   40 1
    83   15   37 ar
    84   17   38 ar
    85   17   41 ar
    86   21   32 ar
    87   23   29 ar
    88   23   30 ar
    89   27   34 ar
    90   59   85 ar
    91   60   87 ar
    92   62   73 ar
    93   68   79 ar
    94   68   83 ar
    95   70   77 ar
    96   70   81 ar
    97   79   86 ar
    98   80   82 1
@<TRIPOS>SUBSTRUCTURE
     1 RES1 1
     2 RES2 45

@<TRIPOS>CRYSIN
  19.6170   17.6980   11.3010  90.0000 105.6600  90.0000  14 1

