# MOL2 file generated by ConQuest
# Please check atom types

@<TRIPOS>MOLECULE
ENULAB
    27    29     1
SMALL
NO_CHARGES
****
Generated from CSD

@<TRIPOS>ATOM
      1 C1         2.5627    3.6696    2.5520 C.3       1 RES1    0.0000
      2 H1         2.7264    2.9062    3.1442 H         1 RES1    0.0000
      3 C2         2.3956    4.9331    3.3452 C.2       1 RES1    0.0000
      4 H2         2.4094    4.9629    4.2743 H         1 RES1    0.0000
      5 C3         2.2274    6.0001    2.5804 C.2       1 RES1    0.0000
      6 H3         2.1532    6.8646    2.9148 H         1 RES1    0.0000
      7 C4         2.1692    5.6724    1.1229 C.3       1 RES1    0.0000
      8 H4         2.0507    6.4887    0.5930 H         1 RES1    0.0000
      9 C5         1.0262    4.6934    0.8589 C.3       1 RES1    0.0000
     10 H5         0.9694    4.4881   -0.0876 H         1 RES1    0.0000
     11 H6         0.1819    5.0764    1.1434 H         1 RES1    0.0000
     12 C6         1.3339    3.4194    1.6651 C.3       1 RES1    0.0000
     13 H7         0.5713    3.1870    2.2168 H         1 RES1    0.0000
     14 H8         1.5087    2.6816    1.0609 H         1 RES1    0.0000
     15 C7         4.9648    4.1517    2.2583 C.ar      1 RES1    0.0000
     16 C8         5.7599    5.2378    1.9038 C.ar      1 RES1    0.0000
     17 H9         5.4608    5.8503    1.2710 H         1 RES1    0.0000
     18 C9         7.0086    5.4010    2.5041 C.ar      1 RES1    0.0000
     19 H10        7.5387    6.1261    2.2651 H         1 RES1    0.0000
     20 C10        7.4712    4.5052    3.4464 C.ar      1 RES1    0.0000
     21 H11        8.3068    4.6212    3.8372 H         1 RES1    0.0000
     22 C11        6.6705    3.4267    3.8036 C.ar      1 RES1    0.0000
     23 H12        6.9690    2.8244    4.4461 H         1 RES1    0.0000
     24 C12        5.4312    3.2407    3.2123 C.ar      1 RES1    0.0000
     25 H13        4.9087    2.5095    3.4503 H         1 RES1    0.0000
     26 N1         3.7173    3.8738    1.6136 N.3       1 RES1    0.0000
     27 O1         3.3944    4.9687    0.7140 O.3       1 RES1    0.0000
@<TRIPOS>BOND
     1    1    2 1
     2    3    1 1
     3    4    3 1
     4    5    3 2
     5    6    5 1
     6    7    5 1
     7    8    7 1
     8    9    7 1
     9   10    9 1
    10   11    9 1
    11   12    1 1
    12   13   12 1
    13   14   12 1
    14   15   16 ar
    15   16   17 1
    16   18   16 ar
    17   19   18 1
    18   20   18 ar
    19   21   20 1
    20   22   20 ar
    21   23   22 1
    22   24   15 ar
    23   25   24 1
    24   26    1 1
    25   27    7 1
    26    9   12 1
    27   15   26 1
    28   22   24 ar
    29   26   27 1
@<TRIPOS>SUBSTRUCTURE
     1 RES1 1

@<TRIPOS>CRYSIN
   9.5146   12.2059    8.6162  90.0000 104.5460  90.0000  14 1

