# MOL2 file generated by ConQuest
# Please check atom types

@<TRIPOS>MOLECULE
ENULIJ
   124   132     4
SMALL
NO_CHARGES
****
Generated from CSD

@<TRIPOS>ATOM
      1 O1         2.0425   11.5802    6.5445 O.3       1 RES1    0.0000
      2 O2         3.5253   10.0325    7.3237 O.3       1 RES1    0.0000
      3 N1         0.7684   12.2534    6.7106 N.3       1 RES1    0.0000
      4 C1         0.9871   13.6360    6.9842 C.ar      1 RES1    0.0000
      5 C2         2.2217   14.2434    6.7602 C.ar      1 RES1    0.0000
      6 H1         2.9543   13.7320    6.5008 H         1 RES1    0.0000
      7 C3        -0.0986   14.4310    7.3611 C.ar      1 RES1    0.0000
      8 H2        -0.9282   14.0392    7.5098 H         1 RES1    0.0000
      9 C4         1.2813   16.4037    7.3007 C.ar      1 RES1    0.0000
     10 H3         1.3832   17.3221    7.4078 H         1 RES1    0.0000
     11 C5         1.2455    9.4169    7.1658 C.3       1 RES1    0.0000
     12 H4         1.2844    8.6829    7.7979 H         1 RES1    0.0000
     13 H5         1.4467    9.0721    6.2816 H         1 RES1    0.0000
     14 C6         0.0527   15.8030    7.5141 C.ar      1 RES1    0.0000
     15 H6        -0.6780   16.3220    7.7621 H         1 RES1    0.0000
     16 C7        -0.0478   11.5001    7.7061 C.3       1 RES1    0.0000
     17 H7        -0.9347   11.9047    7.8090 H         1 RES1    0.0000
     18 C8         0.7067   11.5226    9.0081 C.2       1 RES1    0.0000
     19 H8         0.3482   11.8471    9.8022 H         1 RES1    0.0000
     20 C9         2.3552   15.6192    6.9252 C.ar      1 RES1    0.0000
     21 H9         3.1830   16.0184    6.7806 H         1 RES1    0.0000
     22 C10       -0.1585   10.0578    7.1811 C.3       1 RES1    0.0000
     23 H10       -0.5291   10.0617    6.2844 H         1 RES1    0.0000
     24 H11       -0.7499    9.5433    7.7524 H         1 RES1    0.0000
     25 C11        2.2494   10.4940    7.5502 C.3       1 RES1    0.0000
     26 C12        1.9305   11.0341    8.9087 C.2       1 RES1    0.0000
     27 H12        2.5360   11.0268    9.6147 H         1 RES1    0.0000
     28 C13        4.5910   10.8792    7.7626 C.3       1 RES1    0.0000
     29 H13        5.4334   10.4683    7.5526 H         1 RES1    0.0000
     30 H14        4.5250   11.0094    8.7118 H         1 RES1    0.0000
     31 H15        4.5288   11.7284    7.3182 H         1 RES1    0.0000
     32 O3        -0.0639    5.8447    9.9116 O.3       2 RES2    0.0000
     33 O4        -1.6175    7.4266    9.4278 O.3       2 RES2    0.0000
     34 N2         0.6825    5.1242   10.9221 N.3       2 RES2    0.0000
     35 C14        0.4423    3.7273   10.8079 C.ar      2 RES2    0.0000
     36 C15       -0.0070    7.9277   11.0915 C.3       2 RES2    0.0000
     37 H16       -0.5151    8.6288   11.5294 H         2 RES2    0.0000
     38 H17        0.5265    8.3268   10.3880 H         2 RES2    0.0000
     39 C16       -0.1594    3.1829    9.6746 C.ar      2 RES2    0.0000
     40 H18       -0.5017    3.7454    9.0179 H         2 RES2    0.0000
     41 C17       -1.7564    6.2609   11.5975 C.2       2 RES2    0.0000
     42 H19       -2.6867    6.2621   11.6094 H         2 RES2    0.0000
     43 C18        0.4589    5.7520   12.2418 C.3       2 RES2    0.0000
     44 H20        0.9752    5.2935   12.9382 H         2 RES2    0.0000
     45 C19        0.9463    2.8572   11.7848 C.ar      2 RES2    0.0000
     46 H21        1.3466    3.2026   12.5495 H         2 RES2    0.0000
     47 C20        0.9014    7.2154   12.1090 C.3       2 RES2    0.0000
     48 H22        1.8231    7.2552   11.8106 H         2 RES2    0.0000
     49 H23        0.8404    7.6566   12.9699 H         2 RES2    0.0000
     50 C21       -1.0108    5.7029   12.5473 C.2       2 RES2    0.0000
     51 H24       -1.3620    5.3232   13.3200 H         2 RES2    0.0000
     52 C22       -0.9463    6.8854   10.5095 C.3       2 RES2    0.0000
     53 C23       -0.2500    1.8078    9.5215 C.ar      2 RES2    0.0000
     54 H25       -0.6529    1.4573    8.7601 H         2 RES2    0.0000
     55 C24        0.8513    1.4846   11.6180 C.ar      2 RES2    0.0000
     56 H26        1.1921    0.9163   12.2696 H         2 RES2    0.0000
     57 C25        0.2497    0.9507   10.4832 C.ar      2 RES2    0.0000
     58 H27        0.1840    0.0297   10.3729 H         2 RES2    0.0000
     59 C26       -2.6284    6.5864    8.8400 C.3       2 RES2    0.0000
     60 H28       -3.0377    7.0458    8.1026 H         2 RES2    0.0000
     61 H29       -3.2954    6.3808    9.4989 H         2 RES2    0.0000
     62 H30       -2.2262    5.7735    8.5257 H         2 RES2    0.0000
     63 O5         5.6015    5.2226    8.2283 O.3       3 RES3    0.0000
     64 O6         6.9110    6.8320    9.1758 O.3       3 RES3    0.0000
     65 N3         4.3621    4.4631    8.2808 N.3       3 RES3    0.0000
     66 C27        4.6583    3.0970    8.5450 C.ar      3 RES3    0.0000
     67 C28        3.6535    2.2284    8.9966 C.ar      3 RES3    0.0000
     68 H31        2.8188    2.5638    9.2329 H         3 RES3    0.0000
     69 C29        4.6227    7.3156    8.7783 C.3       3 RES3    0.0000
     70 H32        4.8793    7.6636    7.9096 H         3 RES3    0.0000
     71 H33        4.5639    8.0563    9.4024 H         3 RES3    0.0000
     72 C30        5.2339    5.7256   10.5854 C.2       3 RES3    0.0000
     73 H34        5.7716    5.7612   11.3433 H         3 RES3    0.0000
     74 C31        5.6439    6.3002    9.2605 C.3       3 RES3    0.0000
     75 C32        3.2696    6.5880    8.6844 C.3       3 RES3    0.0000
     76 H35        2.6076    7.0580    9.2150 H         3 RES3    0.0000
     77 H36        2.9677    6.5780    7.7635 H         3 RES3    0.0000
     78 C33        6.1326    1.2079    8.2957 C.ar      3 RES3    0.0000
     79 H37        6.9655    0.8639    8.0640 H         3 RES3    0.0000
     80 C34        3.4159    5.1488    9.1976 C.3       3 RES3    0.0000
     81 H38        2.5481    4.6931    9.2067 H         3 RES3    0.0000
     82 C35        4.0282    5.1600   10.5728 C.2       3 RES3    0.0000
     83 H39        3.6125    4.8118   11.3281 H         3 RES3    0.0000
     84 C36        5.1407    0.3503    8.7358 C.ar      3 RES3    0.0000
     85 H40        5.2988   -0.5637    8.7932 H         3 RES3    0.0000
     86 C37        5.9049    2.5745    8.1946 C.ar      3 RES3    0.0000
     87 H41        6.5801    3.1398    7.8944 H         3 RES3    0.0000
     88 C38        3.9079    0.8730    9.0901 C.ar      3 RES3    0.0000
     89 H42        3.2407    0.3019    9.3956 H         3 RES3    0.0000
     90 C39        7.9710    5.9886    9.6464 C.3       3 RES3    0.0000
     91 H43        8.8110    6.4436    9.5472 H         3 RES3    0.0000
     92 H44        7.9859    5.1766    9.1336 H         3 RES3    0.0000
     93 H45        7.8263    5.7804   10.5728 H         3 RES3    0.0000
     94 O7        -3.6362   12.1155    8.2637 O.3       4 RES4    0.0000
     95 O8        -5.2365   10.5514    7.8287 O.3       4 RES4    0.0000
     96 N4        -2.8606   12.8377    9.2561 N.3       4 RES4    0.0000
     97 C40       -3.7523   14.7687    8.0347 C.ar      4 RES4    0.0000
     98 H46       -4.0484   14.2085    7.3541 H         4 RES4    0.0000
     99 C41       -4.5156   11.0746    8.8768 C.3       4 RES4    0.0000
    100 C42       -4.5148   12.2539   10.9295 C.2       4 RES4    0.0000
    101 H47       -4.8447   12.6412   11.7086 H         4 RES4    0.0000
    102 C43       -3.1602   14.2277    9.1790 C.ar      4 RES4    0.0000
    103 C44       -3.5497   10.0297    9.4007 C.3       4 RES4    0.0000
    104 H48       -3.0198    9.6690    8.6732 H         4 RES4    0.0000
    105 H49       -4.0379    9.3007    9.8160 H         4 RES4    0.0000
    106 C45       -2.6395   10.7116   10.4301 C.3       4 RES4    0.0000
    107 H50       -1.7156   10.6568   10.1372 H         4 RES4    0.0000
    108 H51       -2.7132   10.2571   11.2840 H         4 RES4    0.0000
    109 C46       -3.0478   12.1838   10.5887 C.3       4 RES4    0.0000
    110 H52       -2.5071   12.6255   11.2758 H         4 RES4    0.0000
    111 C47       -3.8991   16.1397    7.9140 C.ar      4 RES4    0.0000
    112 H53       -4.2861   16.4913    7.1445 H         4 RES4    0.0000
    113 C48       -3.4781   16.9999    8.9219 C.ar      4 RES4    0.0000
    114 H54       -3.5892   17.9190    8.8387 H         4 RES4    0.0000
    115 C49       -2.7221   15.0948   10.1905 C.ar      4 RES4    0.0000
    116 H55       -2.3181   14.7513   10.9546 H         4 RES4    0.0000
    117 C50       -5.2834   11.7043    9.9992 C.2       4 RES4    0.0000
    118 H56       -6.2119   11.7092   10.0393 H         4 RES4    0.0000
    119 C51       -6.2517   11.4185    7.2907 C.3       4 RES4    0.0000
    120 H57       -6.7014   10.9744    6.5683 H         4 RES4    0.0000
    121 H58       -5.8448   12.2241    6.9653 H         4 RES4    0.0000
    122 H59       -6.8853   11.6359    7.9785 H         4 RES4    0.0000
    123 C52       -2.8915   16.4603   10.0503 C.ar      4 RES4    0.0000
    124 H60       -2.6047   17.0271   10.7299 H         4 RES4    0.0000
@<TRIPOS>BOND
     1    1    3 1
     2    2   25 1
     3    3    4 1
     4    4    5 ar
     5    5    6 1
     6    7    4 ar
     7    8    7 1
     8    9   10 1
     9   11   12 1
    10   13   11 1
    11   14    7 ar
    12   15   14 1
    13   16    3 1
    14   17   16 1
    15   18   16 1
    16   19   18 1
    17   20    5 ar
    18   21   20 1
    19   22   11 1
    20   23   22 1
    21   24   22 1
    22   25    1 1
    23   26   18 2
    24   27   26 1
    25   28    2 1
    26   29   28 1
    27   30   28 1
    28   31   28 1
    29   32   34 1
    30   33   52 1
    31   34   35 1
    32   35   39 ar
    33   36   37 1
    34   38   36 1
    35   39   40 1
    36   41   42 1
    37   43   34 1
    38   44   43 1
    39   45   35 ar
    40   46   45 1
    41   47   36 1
    42   48   47 1
    43   49   47 1
    44   50   41 2
    45   51   50 1
    46   52   32 1
    47   53   39 ar
    48   54   53 1
    49   55   45 ar
    50   56   55 1
    51   57   53 ar
    52   58   57 1
    53   59   33 1
    54   60   59 1
    55   61   59 1
    56   62   59 1
    57   63   65 1
    58   64   74 1
    59   65   66 1
    60   66   67 ar
    61   67   68 1
    62   69   70 1
    63   71   69 1
    64   72   73 1
    65   74   63 1
    66   75   69 1
    67   76   75 1
    68   77   75 1
    69   78   79 1
    70   80   65 1
    71   81   80 1
    72   82   72 2
    73   83   82 1
    74   84   78 ar
    75   85   84 1
    76   86   66 ar
    77   87   86 1
    78   88   67 ar
    79   89   88 1
    80   90   64 1
    81   91   90 1
    82   92   90 1
    83   93   90 1
    84   94   96 1
    85   95   99 1
    86   96  102 1
    87   97   98 1
    88   99   94 1
    89  100  101 1
    90  102   97 ar
    91  103   99 1
    92  104  103 1
    93  105  103 1
    94  106  103 1
    95  107  106 1
    96  108  106 1
    97  109   96 1
    98  110  109 1
    99  111   97 ar
   100  112  111 1
   101  113  111 ar
   102  114  113 1
   103  115  102 ar
   104  116  115 1
   105  117   99 1
   106  118  117 1
   107  119   95 1
   108  120  119 1
   109  121  119 1
   110  122  119 1
   111  123  113 ar
   112  124  123 1
   113    9   14 ar
   114    9   20 ar
   115   11   25 1
   116   16   22 1
   117   25   26 1
   118   36   52 1
   119   41   52 1
   120   43   47 1
   121   43   50 1
   122   55   57 ar
   123   69   74 1
   124   72   74 1
   125   75   80 1
   126   78   86 ar
   127   80   82 1
   128   84   88 ar
   129  100  109 1
   130  100  117 2
   131  106  109 1
   132  115  123 ar
@<TRIPOS>SUBSTRUCTURE
     1 RES1 1
     2 RES2 32
     3 RES3 63
     4 RES4 94

@<TRIPOS>CRYSIN
  18.5752   17.4530   15.0817  90.0000 113.9370  90.0000  14 1

