# MOL2 file generated by ConQuest
# Please check atom types

@<TRIPOS>MOLECULE
ENUNUY
    39    41     1
SMALL
NO_CHARGES
****
Generated from CSD

@<TRIPOS>ATOM
      1 N1         5.8709    0.9251   -2.7240 N.2       1 RES1    0.0000
      2 N2         6.3401    2.1632   -0.9314 N.3       1 RES1    0.0000
      3 N3         5.8042    2.6048   -4.4316 N.pl3     1 RES1    0.0000
      4 N4         8.2162    7.2784   -3.5796 N.pl3     1 RES1    0.0000
      5 O1         5.7854    1.7055   -5.2695 O.2       1 RES1    0.0000
      6 O2         5.6803    3.7888   -4.7128 O.2       1 RES1    0.0000
      7 O3         8.5891    6.6745   -4.5711 O.2       1 RES1    0.0000
      8 O4         8.4513    8.4581   -3.3890 O.2       1 RES1    0.0000
      9 C1         6.0962    0.9188   -1.4335 C.2       1 RES1    0.0000
     10 H1         6.0903    0.1303   -0.9030 H         1 RES1    0.0000
     11 C2         6.2630    3.0556   -1.9761 C.2       1 RES1    0.0000
     12 C3         5.9761    2.2385   -3.0625 C.2       1 RES1    0.0000
     13 C4         6.7402    2.3841    0.4660 C.3       1 RES1    0.0000
     14 H2         7.1166    3.2956    0.5602 H         1 RES1    0.0000
     15 H3         7.4453    1.7351    0.7132 H         1 RES1    0.0000
     16 C5         5.5530    2.2256    1.4080 C.3       1 RES1    0.0000
     17 H4         4.8539    2.8818    1.1608 H         1 RES1    0.0000
     18 H5         5.1701    1.3199    1.2968 H         1 RES1    0.0000
     19 C6         5.9276    2.4272    2.8564 C.ar      1 RES1    0.0000
     20 C7         6.5151    3.6172    3.2849 C.ar      1 RES1    0.0000
     21 H6         6.7293    4.2877    2.6461 H         1 RES1    0.0000
     22 C8         6.7922    3.8424    4.6235 C.ar      1 RES1    0.0000
     23 H7         7.1944    4.6585    4.8962 H         1 RES1    0.0000
     24 C9         6.4798    2.8704    5.5655 C.ar      1 RES1    0.0000
     25 H8         6.6555    3.0250    6.4863 H         1 RES1    0.0000
     26 C10        5.9143    1.6750    5.1576 C.ar      1 RES1    0.0000
     27 H9         5.7070    1.0050    5.7993 H         1 RES1    0.0000
     28 C11        5.6449    1.4507    3.8069 C.ar      1 RES1    0.0000
     29 H10        5.2651    0.6242    3.5335 H         1 RES1    0.0000
     30 C12        6.4754    4.5048   -1.8181 C.ar      1 RES1    0.0000
     31 C13        7.2574    5.1919   -2.7424 C.ar      1 RES1    0.0000
     32 H11        7.6566    4.7372   -3.4740 H         1 RES1    0.0000
     33 C14        7.4401    6.5518   -2.5710 C.ar      1 RES1    0.0000
     34 C15        6.9105    7.2607   -1.5107 C.ar      1 RES1    0.0000
     35 H12        7.0685    8.1931   -1.4137 H         1 RES1    0.0000
     36 C16        6.1434    6.5674   -0.5964 C.ar      1 RES1    0.0000
     37 H13        5.7711    7.0249    0.1480 H         1 RES1    0.0000
     38 C17        5.9110    5.2066   -0.7550 C.ar      1 RES1    0.0000
     39 H14        5.3600    4.7487   -0.1310 H         1 RES1    0.0000
@<TRIPOS>BOND
     1    1    9 2
     2    2    9 1
     3    3    5 2
     4    4    7 2
     5    6    3 2
     6    8    4 2
     7    9   10 1
     8   11    2 1
     9   12    1 1
    10   13    2 1
    11   14   13 1
    12   15   13 1
    13   16   13 1
    14   17   16 1
    15   18   16 1
    16   19   16 1
    17   20   19 ar
    18   21   20 1
    19   22   20 ar
    20   23   22 1
    21   24   22 ar
    22   25   24 1
    23   26   24 ar
    24   27   26 1
    25   28   19 ar
    26   29   28 1
    27   30   11 1
    28   31   30 ar
    29   32   31 1
    30   33    4 1
    31   34   33 ar
    32   35   34 1
    33   36   34 ar
    34   37   36 1
    35   38   30 ar
    36   39   38 1
    37    3   12 1
    38   11   12 2
    39   26   28 ar
    40   31   33 ar
    41   36   38 ar
@<TRIPOS>SUBSTRUCTURE
     1 RES1 1

