# MOL2 file generated by ConQuest
# Please check atom types

@<TRIPOS>MOLECULE
ENUNIM
    28    30     1
SMALL
NO_CHARGES
****
Generated from CSD

@<TRIPOS>ATOM
      1 N1         4.9849    3.1188    8.6662 N.3       1 RES1    0.0000
      2 N2         3.7644    2.8855   10.4908 N.2       1 RES1    0.0000
      3 N3         1.6262    2.4322    9.5483 N.pl3     1 RES1    0.0000
      4 O1         1.1361    2.4822   10.6816 O.2       1 RES1    0.0000
      5 O2         0.9712    2.0769    8.5760 O.2       1 RES1    0.0000
      6 C1         4.9720    3.0984   10.0289 C.2       1 RES1    0.0000
      7 C2         2.9963    2.7713    9.3798 C.2       1 RES1    0.0000
      8 C3         3.7061    2.9243    8.2033 C.2       1 RES1    0.0000
      9 C4         3.4688    2.9666    6.7613 C.ar      1 RES1    0.0000
     10 C5         4.5790    2.7240    5.9327 C.ar      1 RES1    0.0000
     11 C6         5.9124    2.4428    6.5512 C.3       1 RES1    0.0000
     12 H1         6.6270    2.6183    5.8891 H         1 RES1    0.0000
     13 H2         5.9615    1.4889    6.8108 H         1 RES1    0.0000
     14 C7         6.1276    3.3127    7.7732 C.3       1 RES1    0.0000
     15 H3         6.9669    3.0554    8.2321 H         1 RES1    0.0000
     16 H4         6.1959    4.2637    7.5076 H         1 RES1    0.0000
     17 C8         2.2384    3.2810    6.1835 C.ar      1 RES1    0.0000
     18 H5         1.4884    3.4741    6.7335 H         1 RES1    0.0000
     19 C9         2.1130    3.3120    4.8058 C.ar      1 RES1    0.0000
     20 H6         1.2729    3.5263    4.4183 H         1 RES1    0.0000
     21 C10        3.1829    3.0378    3.9892 C.ar      1 RES1    0.0000
     22 H7         3.0791    3.0455    3.0447 H         1 RES1    0.0000
     23 C11        4.4054    2.7529    4.5531 C.ar      1 RES1    0.0000
     24 H8         5.1465    2.5718    3.9882 H         1 RES1    0.0000
     25 C12        6.1881    3.2887   10.8535 C.3       1 RES1    0.0000
     26 H9         5.9410    3.3000   11.8020 H         1 RES1    0.0000
     27 H10        6.6129    4.1389   10.6167 H         1 RES1    0.0000
     28 H11        6.8127    2.5527   10.6880 H         1 RES1    0.0000
@<TRIPOS>BOND
     1    1    6 1
     2    2    6 2
     3    3    4 2
     4    5    3 2
     5    6   25 1
     6    7    2 1
     7    8    1 1
     8    9    8 1
     9   10    9 ar
    10   11   10 1
    11   12   11 1
    12   13   11 1
    13   14    1 1
    14   15   14 1
    15   16   14 1
    16   17    9 ar
    17   18   17 1
    18   19   17 ar
    19   20   19 1
    20   21   19 ar
    21   22   21 1
    22   23   10 ar
    23   24   23 1
    24   25   26 1
    25   27   25 1
    26   28   25 1
    27    3    7 1
    28    7    8 2
    29   11   14 1
    30   21   23 ar
@<TRIPOS>SUBSTRUCTURE
     1 RES1 1

@<TRIPOS>CRYSIN
  15.7337    7.0498    9.9110  90.0000  90.0000  90.0000  33 1

