# MOL2 file generated by ConQuest
# Please check atom types

@<TRIPOS>MOLECULE
ENUPEK
    42    44     1
SMALL
NO_CHARGES
****
Generated from CSD

@<TRIPOS>ATOM
      1 N1        12.0816    0.8259   12.7784 N.3       1 RES1    0.0000
      2 N2        13.7156   -0.6500   12.4436 N.2       1 RES1    0.0000
      3 N3        12.5742   -2.6821   13.0920 N.pl3     1 RES1    0.0000
      4 O1        13.5746   -3.3238   12.8148 O.2       1 RES1    0.0000
      5 O2        11.5519   -3.1964   13.5435 O.2       1 RES1    0.0000
      6 O3         8.8424   -3.0564   11.4505 O.2       1 RES1    0.0000
      7 C1        13.3809    0.6210   12.3865 C.2       1 RES1    0.0000
      8 C2        12.5828   -1.2689   12.8837 C.2       1 RES1    0.0000
      9 C3        11.5413   -0.3952   13.1092 C.2       1 RES1    0.0000
     10 C4        14.2978    1.7112   11.9464 C.3       1 RES1    0.0000
     11 H1        15.2051    1.3535   11.8435 H         1 RES1    0.0000
     12 H2        14.3019    2.4253   12.6176 H         1 RES1    0.0000
     13 H3        13.9897    2.0711   11.0893 H         1 RES1    0.0000
     14 C5        10.1904   -0.5608   13.6820 C.ar      1 RES1    0.0000
     15 C6         9.2286   -1.3944   13.0923 C.ar      1 RES1    0.0000
     16 C7         7.9928   -1.5645   13.7103 C.ar      1 RES1    0.0000
     17 H4         7.3411   -2.1318   13.3163 H         1 RES1    0.0000
     18 C8         7.7091   -0.9116   14.8954 C.ar      1 RES1    0.0000
     19 H5         6.8636   -1.0330   15.3127 H         1 RES1    0.0000
     20 C9         8.6519   -0.0835   15.4749 C.ar      1 RES1    0.0000
     21 H6         8.4493    0.3694   16.2846 H         1 RES1    0.0000
     22 C10        9.8862    0.0879   14.8816 C.ar      1 RES1    0.0000
     23 H7        10.5325    0.6502   15.2914 H         1 RES1    0.0000
     24 C11        9.4977   -2.1106   11.8337 C.2       1 RES1    0.0000
     25 H8        10.2225   -1.8164   11.2942 H         1 RES1    0.0000
     26 C12       11.3929    2.1290   12.7723 C.3       1 RES1    0.0000
     27 H9        11.9839    2.8098   13.1811 H         1 RES1    0.0000
     28 H10       10.5742    2.0652   13.3262 H         1 RES1    0.0000
     29 C13       11.0102    2.5813   11.3659 C.3       1 RES1    0.0000
     30 H11       10.6295    3.4937   11.4180 H         1 RES1    0.0000
     31 H12       11.8305    2.6293   10.8133 H         1 RES1    0.0000
     32 C14       10.0162    1.6807   10.6799 C.ar      1 RES1    0.0000
     33 C15        8.6799    1.6739   11.0630 C.ar      1 RES1    0.0000
     34 H13        8.3976    2.2237   11.7837 H         1 RES1    0.0000
     35 C16        7.7565    0.8795   10.4117 C.ar      1 RES1    0.0000
     36 H14        6.8468    0.8880   10.6852 H         1 RES1    0.0000
     37 C17        8.1528    0.0742    9.3659 C.ar      1 RES1    0.0000
     38 H15        7.5168   -0.4680    8.9136 H         1 RES1    0.0000
     39 C18        9.4705    0.0590    8.9800 C.ar      1 RES1    0.0000
     40 H16        9.7482   -0.5009    8.2647 H         1 RES1    0.0000
     41 C19       10.3979    0.8593    9.6329 C.ar      1 RES1    0.0000
     42 H17       11.3076    0.8424    9.3575 H         1 RES1    0.0000
@<TRIPOS>BOND
     1    1    7 1
     2    2    7 2
     3    3    4 2
     4    5    3 2
     5    6   24 2
     6    7   10 1
     7    8    2 1
     8    9    1 1
     9   10   11 1
    10   12   10 1
    11   13   10 1
    12   14    9 1
    13   15   14 ar
    14   16   15 ar
    15   17   16 1
    16   18   16 ar
    17   19   18 1
    18   20   18 ar
    19   21   20 1
    20   22   14 ar
    21   23   22 1
    22   24   15 1
    23   25   24 1
    24   26    1 1
    25   27   26 1
    26   28   26 1
    27   29   26 1
    28   30   29 1
    29   31   29 1
    30   32   29 1
    31   33   32 ar
    32   34   33 1
    33   35   33 ar
    34   36   35 1
    35   37   35 ar
    36   38   37 1
    37   39   37 ar
    38   40   39 1
    39   41   32 ar
    40   42   41 1
    41    3    8 1
    42    8    9 2
    43   20   22 ar
    44   39   41 ar
@<TRIPOS>SUBSTRUCTURE
     1 RES1 1

@<TRIPOS>CRYSIN
  13.9795    8.4328   14.2374  90.0000  91.8680  90.0000  14 1

