# MOL2 file generated by ConQuest
# Please check atom types

@<TRIPOS>MOLECULE
ENUQAH
    44    47     1
SMALL
NO_CHARGES
****
Generated from CSD

@<TRIPOS>ATOM
      1 C1         4.6829    8.5450    0.4758 C.2       1 RES1    0.0000
      2 C2         3.5950    8.9313   -0.4736 C.ar      1 RES1    0.0000
      3 C3         3.7290    6.5814   -0.4022 C.2       1 RES1    0.0000
      4 C4         3.0319    7.7603   -0.9919 C.ar      1 RES1    0.0000
      5 C5         1.9462    7.8111   -1.8624 C.ar      1 RES1    0.0000
      6 H1         1.5671    7.0373   -2.2138 H         1 RES1    0.0000
      7 C6         3.1073   10.1888   -0.7953 C.ar      1 RES1    0.0000
      8 H2         3.4923   10.9642   -0.4531 H         1 RES1    0.0000
      9 C7         1.4494    9.0816   -2.1857 C.ar      1 RES1    0.0000
     10 H3         0.7269    9.1526   -2.7663 H         1 RES1    0.0000
     11 C8         2.0108   10.2350   -1.6590 C.ar      1 RES1    0.0000
     12 H4         1.6471   11.0600   -1.8867 H         1 RES1    0.0000
     13 C9         7.0251    4.7548    1.9762 C.3       1 RES1    0.0000
     14 C10        7.6913    5.6062    3.0668 C.3       1 RES1    0.0000
     15 H5         7.0266    6.1875    3.4690 H         1 RES1    0.0000
     16 H6         8.0360    5.0226    3.7612 H         1 RES1    0.0000
     17 C11        6.5418    5.6595    0.8067 C.3       1 RES1    0.0000
     18 H7         6.2243    5.0968    0.0691 H         1 RES1    0.0000
     19 C12        7.6231    6.5984    0.2967 C.3       1 RES1    0.0000
     20 H8         7.2268    7.2237   -0.3294 H         1 RES1    0.0000
     21 H9         8.2878    6.0802   -0.1837 H         1 RES1    0.0000
     22 C13        8.3158    7.3821    1.4048 C.3       1 RES1    0.0000
     23 H10        7.6912    8.0190    1.7865 H         1 RES1    0.0000
     24 H11        9.0584    7.8804    1.0291 H         1 RES1    0.0000
     25 C14        8.8352    6.4593    2.5105 C.3       1 RES1    0.0000
     26 H12        9.2222    6.9911    3.2231 H         1 RES1    0.0000
     27 H13        9.5286    5.8823    2.1538 H         1 RES1    0.0000
     28 C15        5.8844    3.8671    2.5151 C.ar      1 RES1    0.0000
     29 C16        5.4225    2.8083    1.7349 C.ar      1 RES1    0.0000
     30 H14        5.7901    2.6565    0.8948 H         1 RES1    0.0000
     31 C17        5.2966    4.0821    3.7718 C.ar      1 RES1    0.0000
     32 H15        5.5878    4.7883    4.3016 H         1 RES1    0.0000
     33 C18        4.3930    1.9668    2.2198 C.ar      1 RES1    0.0000
     34 H16        4.0888    1.2540    1.7053 H         1 RES1    0.0000
     35 C19        4.2781    3.2472    4.2370 C.ar      1 RES1    0.0000
     36 H17        3.9013    3.3990    5.0734 H         1 RES1    0.0000
     37 C20        3.8379    2.2160    3.4774 C.ar      1 RES1    0.0000
     38 H18        3.1577    1.6665    3.7961 H         1 RES1    0.0000
     39 O1         5.4024    6.4025    1.3828 O.3       1 RES1    0.0000
     40 O2         5.3703    9.2407    1.1869 O.2       1 RES1    0.0000
     41 O3         8.0063    3.9159    1.3258 O.3       1 RES1    0.0000
     42 O4         3.5420    5.3901   -0.5472 O.2       1 RES1    0.0000
     43 N1         4.7245    7.1363    0.4174 N.am      1 RES1    0.0000
     44 H19        8.3959    3.6135    1.8897 H         1 RES1    0.0000
@<TRIPOS>BOND
     1    1    2 1
     2    2    4 ar
     3    3    4 1
     4    4    5 ar
     5    5    6 1
     6    7    2 ar
     7    8    7 1
     8    9    5 ar
     9   10    9 1
    10   11    7 ar
    11   12   11 1
    12   13   14 1
    13   14   15 1
    14   16   14 1
    15   17   13 1
    16   18   17 1
    17   19   17 1
    18   20   19 1
    19   21   19 1
    20   22   19 1
    21   23   22 1
    22   24   22 1
    23   25   14 1
    24   26   25 1
    25   27   25 1
    26   28   13 1
    27   29   28 ar
    28   30   29 1
    29   31   28 ar
    30   32   31 1
    31   33   29 ar
    32   34   33 1
    33   35   31 ar
    34   36   35 1
    35   37   33 ar
    36   38   37 1
    37   39   17 1
    38   40    1 2
    39   41   13 1
    40   42    3 2
    41   43    1 1
    42   44   41 1
    43    3   43 1
    44    9   11 ar
    45   22   25 1
    46   35   37 ar
    47   39   43 1
@<TRIPOS>SUBSTRUCTURE
     1 RES1 1

@<TRIPOS>CRYSIN
  14.1900   16.5000    7.7360  90.0000 101.1800  90.0000   9 1

