# MOL2 file generated by ConQuest
# Please check atom types

@<TRIPOS>MOLECULE
ENUQAG
    84    88     2
SMALL
NO_CHARGES
****
Generated from CSD

@<TRIPOS>ATOM
      1 O1        -0.3764    4.1093   15.2071 O.2       1 RES1    0.0000
      2 O2        -1.1483    5.4444   11.1061 O.3       1 RES1    0.0000
      3 O3         0.2281    2.3935    8.1079 O.3       1 RES1    0.0000
      4 O4        -1.4710    3.6937    7.3609 O.2       1 RES1    0.0000
      5 O5         0.6630   15.0496    3.0005 O.2       2 RES2    0.0000
      6 O6         2.2483   14.4348    7.0121 O.3       2 RES2    0.0000
      7 O7         0.5380   10.8106    9.0247 O.3       2 RES2    0.0000
      8 O8         2.7720   11.0043    9.2988 O.2       2 RES2    0.0000
      9 N1        -0.6112    3.9803   12.9124 N.am      1 RES1    0.0000
     10 N2         2.1437    6.9698   15.4023 N.1       1 RES1    0.0000
     11 N3        -1.4264    4.9365    9.8297 N.2       1 RES1    0.0000
     12 N4         1.0922   13.9324    4.9788 N.am      2 RES2    0.0000
     13 N5        -1.1356   18.1486    4.5569 N.1       2 RES2    0.0000
     14 N6         2.5820   13.3823    7.8763 N.2       2 RES2    0.0000
     15 C1        -0.1199    4.4958   14.0826 C.2       1 RES1    0.0000
     16 C2         0.8054    5.5944   13.6834 C.2       1 RES1    0.0000
     17 C3         0.8857    5.6740   12.3511 C.2       1 RES1    0.0000
     18 C4        -0.0777    4.6604   11.7457 C.3       1 RES1    0.0000
     19 C5         0.4369    3.7557   10.6276 C.3       1 RES1    0.0000
     20 H1         1.3480    4.0140   10.3400 H         1 RES1    0.0000
     21 H2         0.4355    2.8032   10.8999 H         1 RES1    0.0000
     22 C6        -0.5735    4.0244    9.5612 C.2       1 RES1    0.0000
     23 C7        -1.4705    2.8291   12.8354 C.ar      1 RES1    0.0000
     24 C8        -2.8301    3.0186   12.5541 C.ar      1 RES1    0.0000
     25 H3        -3.1762    3.8958   12.4334 H         1 RES1    0.0000
     26 C9        -3.6664    1.9192   12.4531 C.ar      1 RES1    0.0000
     27 H4        -4.5858    2.0360   12.2422 H         1 RES1    0.0000
     28 C10       -3.1569    0.6563   12.6604 C.ar      1 RES1    0.0000
     29 H5        -3.7315   -0.0988   12.6041 H         1 RES1    0.0000
     30 C11       -1.8209    0.4787   12.9477 C.ar      1 RES1    0.0000
     31 H6        -1.4912   -0.4010   13.0861 H         1 RES1    0.0000
     32 C12       -0.9327    1.5624   13.0418 C.ar      1 RES1    0.0000
     33 C13        0.4957    1.3336   13.3530 C.3       1 RES1    0.0000
     34 H7         1.0184    1.3580   12.5249 H         1 RES1    0.0000
     35 H8         0.6012    0.4572   13.7799 H         1 RES1    0.0000
     36 H9         0.8135    2.0341   13.9601 H         1 RES1    0.0000
     37 C14        1.5386    6.3617   14.6440 C.1       1 RES1    0.0000
     38 C15        1.7173    6.5589   11.4996 C.3       1 RES1    0.0000
     39 H10        2.0272    7.3228   12.0292 H         1 RES1    0.0000
     40 H11        1.1834    6.8811   10.7428 H         1 RES1    0.0000
     41 H12        2.4900    6.0577   11.1648 H         1 RES1    0.0000
     42 C16       -0.6885    3.3691    8.2162 C.2       1 RES1    0.0000
     43 C17        0.1715    1.6556    6.8322 C.3       1 RES1    0.0000
     44 H13        0.2825    2.2782    6.0699 H         1 RES1    0.0000
     45 H14       -0.7000    1.1953    6.7390 H         1 RES1    0.0000
     46 C18        1.3030    0.6410    6.8524 C.3       1 RES1    0.0000
     47 H15        1.2943    0.1259    6.0194 H         1 RES1    0.0000
     48 H16        1.1848    0.0349    7.6130 H         1 RES1    0.0000
     49 H17        2.1601    1.1081    6.9384 H         1 RES1    0.0000
     50 C19        0.6153   14.9685    4.2066 C.2       2 RES2    0.0000
     51 C20        0.0310   15.9427    5.1734 C.2       2 RES2    0.0000
     52 C21        0.1947   15.5185    6.4260 C.2       2 RES2    0.0000
     53 C22        0.9300   14.1918    6.3959 C.3       2 RES2    0.0000
     54 C23        0.3594   13.0374    7.2250 C.3       2 RES2    0.0000
     55 H18       -0.3626   13.3456    7.8287 H         2 RES2    0.0000
     56 H19        0.0170   12.3092    6.6475 H         2 RES2    0.0000
     57 C24        1.5769   12.6064    7.9937 C.2       2 RES2    0.0000
     58 C25        1.6748   12.7381    4.4387 C.ar      2 RES2    0.0000
     59 C26        3.0449   12.5394    4.5667 C.ar      2 RES2    0.0000
     60 H20        3.5847   13.2004    4.9857 H         2 RES2    0.0000
     61 C27        3.6206   11.3776    4.0830 C.ar      2 RES2    0.0000
     62 H21        4.5574   11.2399    4.1663 H         2 RES2    0.0000
     63 C28        2.8304   10.4204    3.4786 C.ar      2 RES2    0.0000
     64 H22        3.2192    9.6106    3.1708 H         2 RES2    0.0000
     65 C29        1.4784   10.6374    3.3217 C.ar      2 RES2    0.0000
     66 H23        0.9496    9.9787    2.8868 H         2 RES2    0.0000
     67 C30        0.8666   11.8040    3.7883 C.ar      2 RES2    0.0000
     68 C31       -0.6033   12.0374    3.5659 C.3       2 RES2    0.0000
     69 H24       -1.0085   12.3770    4.3916 H         2 RES2    0.0000
     70 H25       -1.0333   11.1934    3.3128 H         2 RES2    0.0000
     71 H26       -0.7251   12.6947    2.8486 H         2 RES2    0.0000
     72 C32       -0.6218   17.1597    4.8001 C.1       2 RES2    0.0000
     73 C33       -0.1831   16.1742    7.6955 C.3       2 RES2    0.0000
     74 H27       -0.5605   17.0593    7.5065 H         2 RES2    0.0000
     75 H28        0.6112   16.2728    8.2616 H         2 RES2    0.0000
     76 H29       -0.8503   15.6277    8.1606 H         2 RES2    0.0000
     77 C34        1.7272   11.3945    8.8591 C.2       2 RES2    0.0000
     78 C35        0.5756    9.5826    9.8126 C.3       2 RES2    0.0000
     79 H30        0.7948    9.7889   10.7565 H         2 RES2    0.0000
     80 H31        1.2667    8.9694    9.4565 H         2 RES2    0.0000
     81 C36       -0.7654    8.9502    9.7248 C.3       2 RES2    0.0000
     82 H32       -0.7701    8.1209   10.2458 H         2 RES2    0.0000
     83 H33       -0.9710    8.7486    8.7874 H         2 RES2    0.0000
     84 H34       -1.4398    9.5642   10.0819 H         2 RES2    0.0000
@<TRIPOS>BOND
     1    1   15 2
     2    2   11 1
     3    3   42 1
     4    4   42 2
     5    5   50 2
     6    6   14 1
     7    7   77 1
     8    8   77 2
     9    9   15 1
    10   10   37 3
    11   11   22 2
    12   12   50 1
    13   13   72 3
    14   14   57 2
    15   15   16 1
    16   16   17 2
    17   17   18 1
    18   18    2 1
    19   19   18 1
    20   20   19 1
    21   21   19 1
    22   22   19 1
    23   23    9 1
    24   24   23 ar
    25   25   24 1
    26   26   24 ar
    27   27   26 1
    28   28   26 ar
    29   29   28 1
    30   30   28 ar
    31   31   30 1
    32   32   23 ar
    33   33   32 1
    34   34   33 1
    35   35   33 1
    36   36   33 1
    37   37   16 1
    38   38   17 1
    39   39   38 1
    40   40   38 1
    41   41   38 1
    42   42   22 1
    43   43    3 1
    44   44   43 1
    45   45   43 1
    46   46   43 1
    47   47   46 1
    48   48   46 1
    49   49   46 1
    50   50   51 1
    51   51   52 2
    52   52   53 1
    53   53    6 1
    54   54   53 1
    55   55   54 1
    56   56   54 1
    57   57   54 1
    58   58   12 1
    59   59   58 ar
    60   60   59 1
    61   61   59 ar
    62   62   61 1
    63   63   61 ar
    64   64   63 1
    65   65   63 ar
    66   66   65 1
    67   67   58 ar
    68   68   67 1
    69   69   68 1
    70   70   68 1
    71   71   68 1
    72   72   51 1
    73   73   52 1
    74   74   73 1
    75   75   73 1
    76   76   73 1
    77   77   57 1
    78   78    7 1
    79   79   78 1
    80   80   78 1
    81   81   78 1
    82   82   81 1
    83   83   81 1
    84   84   81 1
    85    9   18 1
    86   12   53 1
    87   30   32 ar
    88   65   67 ar
@<TRIPOS>SUBSTRUCTURE
     1 RES1 1
     2 RES2 5

@<TRIPOS>CRYSIN
  12.8038   19.3724   14.4035  90.0000 108.5450  90.0000  14 1

