# MOL2 file generated by ConQuest
# Please check atom types

@<TRIPOS>MOLECULE
ENVFUR01
    13    13     1
SMALL
NO_CHARGES
****
Generated from CSD

@<TRIPOS>ATOM
      1 O1         0.6903    4.4626    1.8846 O.3       1 RES1    0.0000
      2 O2         4.0567    3.7328    2.2773 O.2       1 RES1    0.0000
      3 O3         2.8279    5.3838    3.1214 O.2       1 RES1    0.0000
      4 N1         2.9821    4.3788    2.4442 N.pl3     1 RES1    0.0000
      5 N2        -3.8036    3.8694    0.3162 N.3       1 RES1    0.0000
      6 C1        -1.5555    4.1954    1.1672 C.2       1 RES1    0.0000
      7 C2        -2.5035    3.5015    0.4236 C.2       1 RES1    0.0000
      8 C3        -0.2255    3.6829    1.1873 C.2       1 RES1    0.0000
      9 C4         0.4004    2.5404    0.6547 C.2       1 RES1    0.0000
     10 C5         1.7649    2.6091    1.0010 C.2       1 RES1    0.0000
     11 C6         1.8891    3.7806    1.7408 C.2       1 RES1    0.0000
     12 C7        -4.3190    5.0817    1.0072 C.3       1 RES1    0.0000
     13 C8        -4.6917    3.0738   -0.4963 C.3       1 RES1    0.0000
@<TRIPOS>BOND
     1    1    8 1
     2    2    4 2
     3    3    4 2
     4    4   11 1
     5    5    7 1
     6    6    7 2
     7    8    6 1
     8    9    8 2
     9   10    9 1
    10   11    1 1
    11   12    5 1
    12   13    5 1
    13   10   11 2
@<TRIPOS>SUBSTRUCTURE
     1 RES1 1

@<TRIPOS>CRYSIN
  23.0100    9.9700    7.7300  90.0000  90.0000  90.0000  61 1

