# MOL2 file generated by ConQuest
# Please check atom types

@<TRIPOS>MOLECULE
ENVFUR
    13    13     1
SMALL
NO_CHARGES
****
Generated from CSD

@<TRIPOS>ATOM
      1 O1         3.8787    6.6301    3.8079 O.3       1 RES1    0.0000
      2 O2         5.0989    5.1930    0.8661 O.2       1 RES1    0.0000
      3 O3         4.7041    4.3229    2.8698 O.2       1 RES1    0.0000
      4 N1         4.7336    5.2829    2.0444 N.pl3     1 RES1    0.0000
      5 N2         2.1851   10.0525    6.6603 N.3       1 RES1    0.0000
      6 C1         3.0145    8.2717    5.2514 C.2       1 RES1    0.0000
      7 C2         2.6735    9.5885    5.5089 C.2       1 RES1    0.0000
      8 C3         3.5144    7.9338    4.0263 C.2       1 RES1    0.0000
      9 C4         3.7808    8.6792    2.8195 C.2       1 RES1    0.0000
     10 C5         4.3291    7.7569    1.8302 C.2       1 RES1    0.0000
     11 C6         4.3601    6.5301    2.5325 C.2       1 RES1    0.0000
     12 C7         1.7500   11.4447    6.8016 C.3       1 RES1    0.0000
     13 C8         2.0368    9.2027    7.8620 C.3       1 RES1    0.0000
@<TRIPOS>BOND
     1    1    8 1
     2    2    4 2
     3    3    4 2
     4    4   11 1
     5    5    7 1
     6    6    7 2
     7    8    6 1
     8    9    8 2
     9   10    9 1
    10   11    1 1
    11   12    5 1
    12   13    5 1
    13   10   11 2
@<TRIPOS>SUBSTRUCTURE
     1 RES1 1

@<TRIPOS>CRYSIN
   7.1900   14.9700    8.6700  90.0000  90.0000 104.3700  14 3

