# MOL2 file generated by ConQuest
# Please check atom types

@<TRIPOS>MOLECULE
EOISOX10
    25    26     1
SMALL
NO_CHARGES
****
Generated from CSD

@<TRIPOS>ATOM
      1 C1         5.5185    4.7269    4.0950 C.ar      1 RES1    0.0000
      2 C2         5.9391    2.4135    5.1305 C.3       1 RES1    0.0000
      3 C3         6.2576    1.3665    4.0843 C.3       1 RES1    0.0000
      4 C4         6.8018    5.1816    3.9502 C.ar      1 RES1    0.0000
      5 C5         6.9505    6.4756    3.4620 C.ar      1 RES1    0.0000
      6 C6         5.8883    7.2812    3.0990 C.ar      1 RES1    0.0000
      7 C7         4.5839    6.7859    3.2313 C.ar      1 RES1    0.0000
      8 C8         4.3967    5.5033    3.7557 C.ar      1 RES1    0.0000
      9 C9         3.2174    4.6990    4.0609 C.2       1 RES1    0.0000
     10 C10        3.7086    3.4037    4.6232 C.2       1 RES1    0.0000
     11 H1         0.4693    5.9223    3.3662 H         1 RES1    0.0000
     12 H2         6.8866    3.0869    5.4942 H         1 RES1    0.0000
     13 H3         5.4151    2.0127    5.9545 H         1 RES1    0.0000
     14 H4         5.4087    1.0725    3.7111 H         1 RES1    0.0000
     15 H5         6.8468    0.6122    4.5353 H         1 RES1    0.0000
     16 H6         6.4189    2.2919    2.4478 H         1 RES1    0.0000
     17 H7         7.6549    4.7258    4.1294 H         1 RES1    0.0000
     18 H8         7.9254    6.8675    3.3346 H         1 RES1    0.0000
     19 H9         5.9544    8.2257    2.5669 H         1 RES1    0.0000
     20 H10        3.7638    7.3833    2.7162 H         1 RES1    0.0000
     21 N1         1.9497    4.8691    3.9205 N.2       1 RES1    0.0000
     22 N2         5.0702    3.4706    4.6169 N.am      1 RES1    0.0000
     23 O1         1.6745    6.1613    3.3797 O.3       1 RES1    0.0000
     24 O2         3.0667    2.4447    5.0477 O.2       1 RES1    0.0000
     25 O3         7.0110    1.9055    3.0105 O.3       1 RES1    0.0000
@<TRIPOS>BOND
     1    1    4 ar
     2    2    3 1
     3    3   14 1
     4    4    5 ar
     5    5    6 ar
     6    6    7 ar
     7    7    8 ar
     8    8    1 ar
     9    9    8 1
    10   10    9 1
    11   11   23 1
    12   12    2 1
    13   13    2 1
    14   15    3 1
    15   16   25 1
    16   17    4 1
    17   18    5 1
    18   19    6 1
    19   20    7 1
    20   21    9 2
    21   22    1 1
    22   23   21 1
    23   24   10 2
    24   25    3 1
    25    2   22 1
    26   10   22 1
@<TRIPOS>SUBSTRUCTURE
     1 RES1 1

@<TRIPOS>CRYSIN
  15.9080   16.3240    7.3530  90.0000  90.0000  90.0000  61 3

