# MOL2 file generated by ConQuest
# Please check atom types

@<TRIPOS>MOLECULE
EPAHOU
   150   156     1
SMALL
NO_CHARGES
****
Generated from CSD

@<TRIPOS>ATOM
      1 C1         5.5022    6.1670   11.3653 C.ar      1 RES1    0.0000
      2 C2         4.7326    6.9886    9.2224 C.ar      1 RES1    0.0000
      3 C3         7.9467   11.4031   10.3594 C.2       1 RES1    0.0000
      4 C4         6.2123    8.3303   10.5849 C.ar      1 RES1    0.0000
      5 C5         6.9884    9.5755   10.6897 C.2       1 RES1    0.0000
      6 C6         6.2334    7.3225   11.5683 C.ar      1 RES1    0.0000
      7 H1         6.7331    7.4333   12.3437 H         1 RES1    0.0000
      8 C7         5.4584    8.1532    9.4325 C.ar      1 RES1    0.0000
      9 H2         5.4389    8.8253    8.7894 H         1 RES1    0.0000
     10 C8         8.3180   12.6396    9.6690 C.ar      1 RES1    0.0000
     11 C9         9.0508   14.9362    8.2609 C.ar      1 RES1    0.0000
     12 C10        4.7507    5.9947   10.2020 C.ar      1 RES1    0.0000
     13 H3         4.2607    5.2149   10.0798 H         1 RES1    0.0000
     14 C11        9.6635   14.6354    9.4592 C.ar      1 RES1    0.0000
     15 H4        10.3185   15.1990    9.8045 H         1 RES1    0.0000
     16 C12        9.2993   13.4933   10.1446 C.ar      1 RES1    0.0000
     17 H5         9.7242   13.2918   10.9469 H         1 RES1    0.0000
     18 C13        8.0458   14.1046    7.7797 C.ar      1 RES1    0.0000
     19 H6         7.6123   14.3122    6.9842 H         1 RES1    0.0000
     20 C14        7.6909   12.9758    8.4781 C.ar      1 RES1    0.0000
     21 H7         7.0190   12.4265    8.1473 H         1 RES1    0.0000
     22 C15        9.3375   18.7571    6.5504 C.3       1 RES1    0.0000
     23 H8         9.1763   19.2788    7.3512 H         1 RES1    0.0000
     24 H9         8.5772   18.1655    6.4338 H         1 RES1    0.0000
     25 C16       10.4038   16.8963    7.8620 C.3       1 RES1    0.0000
     26 H10       11.2259   16.3878    7.9431 H         1 RES1    0.0000
     27 H11       10.2201   17.3254    8.7125 H         1 RES1    0.0000
     28 C17       10.5341   17.9215    6.7818 C.3       1 RES1    0.0000
     29 H12       11.2776   18.5049    7.0020 H         1 RES1    0.0000
     30 H13       10.7555   17.4677    5.9543 H         1 RES1    0.0000
     31 C18        6.8040   21.9637    3.5986 C.3       1 RES1    0.0000
     32 H14        6.6066   22.5875    4.3148 H         1 RES1    0.0000
     33 H15        6.0958   21.3008    3.5957 H         1 RES1    0.0000
     34 C19        8.1004   20.4496    5.1648 C.3       1 RES1    0.0000
     35 H16        7.9528   21.0200    5.9336 H         1 RES1    0.0000
     36 H17        7.3756   19.8054    5.1405 H         1 RES1    0.0000
     37 C20        9.3776   19.7061    5.3728 C.3       1 RES1    0.0000
     38 H18       10.0948   20.3453    5.5104 H         1 RES1    0.0000
     39 H19        9.5811   19.2004    4.5693 H         1 RES1    0.0000
     40 C21        8.0186   21.2950    3.9331 C.3       1 RES1    0.0000
     41 H20        8.7105   21.9722    4.0041 H         1 RES1    0.0000
     42 H21        8.2537   20.7299    3.1814 H         1 RES1    0.0000
     43 C22        6.7141   22.7205    2.3054 C.3       1 RES1    0.0000
     44 H22        7.3363   23.4617    2.3586 H         1 RES1    0.0000
     45 H23        7.0319   22.1331    1.6010 H         1 RES1    0.0000
     46 C23        5.5240   23.2181    1.9118 C.3       1 RES1    0.0000
     47 H24        5.2114   23.8005    2.6191 H         1 RES1    0.0000
     48 H25        4.9053   22.4720    1.8703 H         1 RES1    0.0000
     49 C24        5.3878   23.9224    0.7191 C.3       1 RES1    0.0000
     50 H26        5.9681   24.6871    0.7310 H         1 RES1    0.0000
     51 H27        4.4783   24.2133    0.6215 H         1 RES1    0.0000
     52 H28        5.6240   23.3536   -0.0178 H         1 RES1    0.0000
     53 C25        5.1653    3.2834   13.3955 C.2       1 RES1    0.0000
     54 C26        4.5817    1.9922   13.7420 C.ar      1 RES1    0.0000
     55 C27        3.4819   -0.4931   14.3490 C.ar      1 RES1    0.0000
     56 C28        5.0212    1.2690   14.8302 C.ar      1 RES1    0.0000
     57 H29        5.6909    1.6239   15.3712 H         1 RES1    0.0000
     58 C29        5.4982    5.0682   12.3251 C.2       1 RES1    0.0000
     59 C30        4.4937    0.0354   15.1377 C.ar      1 RES1    0.0000
     60 H30        4.8137   -0.4400   15.8684 H         1 RES1    0.0000
     61 C31        3.0078    0.2352   13.2590 C.ar      1 RES1    0.0000
     62 H31        2.3227   -0.1065   12.7314 H         1 RES1    0.0000
     63 C32        3.5578    1.4580   12.9714 C.ar      1 RES1    0.0000
     64 H32        3.2382    1.9405   12.2431 H         1 RES1    0.0000
     65 C33        3.2586   -2.4556   15.7097 C.3       1 RES1    0.0000
     66 H33        3.1111   -1.9209   16.5046 H         1 RES1    0.0000
     67 H34        4.1995   -2.6867   15.6671 H         1 RES1    0.0000
     68 C34        2.7676   -4.5361   17.0009 C.3       1 RES1    0.0000
     69 H35        3.7179   -4.7283   16.9929 H         1 RES1    0.0000
     70 H36        2.5826   -4.0075   17.7920 H         1 RES1    0.0000
     71 C35        2.3238   -6.6365   18.3572 C.3       1 RES1    0.0000
     72 H37        2.0807   -6.1111   19.1355 H         1 RES1    0.0000
     73 H38        3.2796   -6.8007   18.3987 H         1 RES1    0.0000
     74 C36        2.0144   -5.8397   17.1078 C.3       1 RES1    0.0000
     75 H39        2.2225   -6.3841   16.3330 H         1 RES1    0.0000
     76 H40        1.0630   -5.6520   17.0876 H         1 RES1    0.0000
     77 C37        1.5888   -7.9703   18.4096 C.3       1 RES1    0.0000
     78 H41        0.6433   -7.8039   18.2655 H         1 RES1    0.0000
     79 H42        1.9014   -8.5199   17.6736 H         1 RES1    0.0000
     80 C38        2.4283   -3.7027   15.7707 C.3       1 RES1    0.0000
     81 H43        2.5831   -4.2305   14.9717 H         1 RES1    0.0000
     82 H44        1.4896   -3.4619   15.7944 H         1 RES1    0.0000
     83 C39        1.7457   -8.7603   19.6952 C.3       1 RES1    0.0000
     84 H45        1.4601   -8.2095   20.4406 H         1 RES1    0.0000
     85 H46        2.6832   -8.9722   19.8251 H         1 RES1    0.0000
     86 C40        0.9367  -10.0549   19.6937 C.3       1 RES1    0.0000
     87 H47        0.0244   -9.8453   19.4404 H         1 RES1    0.0000
     88 H48        1.3008  -10.6418   19.0112 H         1 RES1    0.0000
     89 C41        0.9064  -10.8004   20.9929 C.3       1 RES1    0.0000
     90 H49        0.5734  -10.2113   21.6866 H         1 RES1    0.0000
     91 H50        1.8109  -11.0586   21.2308 H         1 RES1    0.0000
     92 C42        0.0321  -12.0477   20.9372 C.3       1 RES1    0.0000
     93 H51       -0.8435  -11.8101   20.6241 H         1 RES1    0.0000
     94 H52       -0.0361  -12.4299   21.8138 H         1 RES1    0.0000
     95 H53        0.4243  -12.6874   20.3400 H         1 RES1    0.0000
     96 C43        2.5080    7.5602    4.8718 C.ar      1 RES1    0.0000
     97 C44        3.0470    6.9836    6.1138 C.2       1 RES1    0.0000
     98 C45        3.9945    6.8267    7.9724 C.2       1 RES1    0.0000
     99 C46        2.4654    8.9168    4.6913 C.ar      1 RES1    0.0000
    100 H54        2.8607    9.4756    5.3210 H         1 RES1    0.0000
    101 C47        1.8397    9.4697    3.5800 C.ar      1 RES1    0.0000
    102 H55        1.8164   10.3931    3.4714 H         1 RES1    0.0000
    103 C48        1.3318    7.2888    2.8029 C.ar      1 RES1    0.0000
    104 H56        0.9657    6.7277    2.1574 H         1 RES1    0.0000
    105 C49        1.2578    8.6588    2.6439 C.ar      1 RES1    0.0000
    106 C50        1.9406    6.7549    3.9067 C.ar      1 RES1    0.0000
    107 H57        1.9725    5.8313    4.0070 H         1 RES1    0.0000
    108 C51       -0.6042   10.6212    0.1864 C.3       1 RES1    0.0000
    109 H58       -0.1733   10.2238   -0.5860 H         1 RES1    0.0000
    110 H59       -1.4250   10.1314    0.3492 H         1 RES1    0.0000
    111 C52       -0.9477   12.0447   -0.1317 C.3       1 RES1    0.0000
    112 H60       -0.1276   12.5302   -0.3107 H         1 RES1    0.0000
    113 H61       -1.3628   12.4463    0.6481 H         1 RES1    0.0000
    114 C53        0.2999   10.4631    1.3782 C.3       1 RES1    0.0000
    115 H62        1.1213   10.9606    1.2430 H         1 RES1    0.0000
    116 H63       -0.1365   10.8027    2.1752 H         1 RES1    0.0000
    117 C54       -4.6862   15.4161   -4.0763 C.3       1 RES1    0.0000
    118 H64       -5.4621   14.8664   -3.8857 H         1 RES1    0.0000
    119 H65       -4.3032   15.0860   -4.9037 H         1 RES1    0.0000
    120 C55       -1.8856   12.2068   -1.3255 C.3       1 RES1    0.0000
    121 H66       -1.4599   11.8172   -2.1041 H         1 RES1    0.0000
    122 H67       -2.6953   11.7010   -1.1512 H         1 RES1    0.0000
    123 C56       -3.2439   13.7722   -2.7842 C.3       1 RES1    0.0000
    124 H68       -2.8292   13.4464   -3.5986 H         1 RES1    0.0000
    125 H69       -4.0186   13.2162   -2.6072 H         1 RES1    0.0000
    126 C57       -2.2630   13.5980   -1.6454 C.3       1 RES1    0.0000
    127 H70       -1.4555   14.0909   -1.8615 H         1 RES1    0.0000
    128 H71       -2.6446   14.0009   -0.8494 H         1 RES1    0.0000
    129 C58       -5.1625   16.7785   -4.3234 C.3       1 RES1    0.0000
    130 H72       -4.3876   17.3345   -4.4983 H         1 RES1    0.0000
    131 H73       -5.5654   17.1034   -3.5039 H         1 RES1    0.0000
    132 C59       -3.7161   15.1840   -3.0236 C.3       1 RES1    0.0000
    133 H74       -4.0961   15.5131   -2.1929 H         1 RES1    0.0000
    134 H75       -2.9358   15.7276   -3.2169 H         1 RES1    0.0000
    135 C60       -6.1243   16.9979   -5.4095 C.3       1 RES1    0.0000
    136 H76       -5.8596   16.4878   -6.1792 H         1 RES1    0.0000
    137 H77       -6.1455   17.9302   -5.6347 H         1 RES1    0.0000
    138 H78       -6.9971   16.7174   -5.1257 H         1 RES1    0.0000
    139 O1         2.8873   -1.7066   14.5425 O.3       1 RES1    0.0000
    140 O2         7.8491    9.7441   11.7092 O.3       1 RES1    0.0000
    141 O3         9.3152   16.0305    7.4938 O.3       1 RES1    0.0000
    142 O4         3.4313    5.6364    7.7323 O.3       1 RES1    0.0000
    143 N1         6.1480    3.8498   14.0534 N.2       1 RES1    0.0000
    144 O5         0.5833    9.0778    1.5271 O.3       1 RES1    0.0000
    145 O6         6.3835    5.0597   13.3354 O.3       1 RES1    0.0000
    146 N2         4.7293    4.0247   12.3040 N.2       1 RES1    0.0000
    147 N3         3.7953    7.6905    7.0301 N.2       1 RES1    0.0000
    148 N4         8.4846   10.9972   11.4772 N.2       1 RES1    0.0000
    149 N5         6.9981   10.5465    9.8341 N.2       1 RES1    0.0000
    150 N6         2.7903    5.7600    6.4713 N.2       1 RES1    0.0000
@<TRIPOS>BOND
     1    1    6 ar
     2    2    8 ar
     3    3   10 1
     4    4    5 1
     5    5  140 1
     6    6    4 ar
     7    7    6 1
     8    8    4 ar
     9    9    8 1
    10   10   16 ar
    11   11   14 ar
    12   12    1 ar
    13   13   12 1
    14   14   15 1
    15   16   14 ar
    16   17   16 1
    17   18   11 ar
    18   19   18 1
    19   20   10 ar
    20   21   20 1
    21   22   23 1
    22   24   22 1
    23   25   26 1
    24   27   25 1
    25   28   22 1
    26   29   28 1
    27   30   28 1
    28   31   32 1
    29   33   31 1
    30   34   35 1
    31   36   34 1
    32   37   22 1
    33   38   37 1
    34   39   37 1
    35   40   31 1
    36   41   40 1
    37   42   40 1
    38   43   31 1
    39   44   43 1
    40   45   43 1
    41   46   43 1
    42   47   46 1
    43   48   46 1
    44   49   46 1
    45   50   49 1
    46   51   49 1
    47   52   49 1
    48   53   54 1
    49   54   56 ar
    50   55   59 ar
    51   56   57 1
    52   58    1 1
    53   59   56 ar
    54   60   59 1
    55   61   55 ar
    56   62   61 1
    57   63   54 ar
    58   64   63 1
    59   65   66 1
    60   67   65 1
    61   68   69 1
    62   70   68 1
    63   71   72 1
    64   73   71 1
    65   74   68 1
    66   75   74 1
    67   76   74 1
    68   77   71 1
    69   78   77 1
    70   79   77 1
    71   80   65 1
    72   81   80 1
    73   82   80 1
    74   83   77 1
    75   84   83 1
    76   85   83 1
    77   86   83 1
    78   87   86 1
    79   88   86 1
    80   89   86 1
    81   90   89 1
    82   91   89 1
    83   92   89 1
    84   93   92 1
    85   94   92 1
    86   95   92 1
    87   96   97 1
    88   97  147 1
    89   98    2 1
    90   99   96 ar
    91  100   99 1
    92  101   99 ar
    93  102  101 1
    94  103  104 1
    95  105  101 ar
    96  106   96 ar
    97  107  106 1
    98  108  109 1
    99  110  108 1
   100  111  108 1
   101  112  111 1
   102  113  111 1
   103  114  108 1
   104  115  114 1
   105  116  114 1
   106  117  118 1
   107  119  117 1
   108  120  111 1
   109  121  120 1
   110  122  120 1
   111  123  124 1
   112  125  123 1
   113  126  120 1
   114  127  126 1
   115  128  126 1
   116  129  117 1
   117  130  129 1
   118  131  129 1
   119  132  117 1
   120  133  132 1
   121  134  132 1
   122  135  129 1
   123  136  135 1
   124  137  135 1
   125  138  135 1
   126  139   55 1
   127  140  148 1
   128  141   11 1
   129  142   98 1
   130  143   53 2
   131  144  105 1
   132  145   58 1
   133  146   53 1
   134  147   98 2
   135  148    3 2
   136  149    3 1
   137  150   97 2
   138    2   12 ar
   139    5  149 2
   140   18   20 ar
   141   25   28 1
   142   25  141 1
   143   34   37 1
   144   34   40 1
   145   58  146 2
   146   61   63 ar
   147   65  139 1
   148   68   80 1
   149   71   74 1
   150  103  105 ar
   151  103  106 ar
   152  114  144 1
   153  123  126 1
   154  123  132 1
   155  142  150 1
   156  143  145 1
@<TRIPOS>SUBSTRUCTURE
     1 RES1 1

@<TRIPOS>CRYSIN
   9.5084   10.1887   29.8085  87.8850  83.2050  80.8320   2 1

