# MOL2 file generated by ConQuest
# Please check atom types

@<TRIPOS>MOLECULE
EPAHEJ
    14    14     1
SMALL
NO_CHARGES
****
Generated from CSD

@<TRIPOS>ATOM
      1 C1         6.2415    8.3750    1.5038 C.2       1 RES1    0.0000
      2 C2         5.4536    7.1150    1.5343 C.2       1 RES1    0.0000
      3 C3         4.1384    6.8261    1.5648 C.2       1 RES1    0.0000
      4 H1         3.4080    7.4327    1.5476 H         1 RES1    0.0000
      5 C4         4.0913    5.4057    1.6296 C.2       1 RES1    0.0000
      6 C5         2.9002    4.5123    1.6976 C.3       1 RES1    0.0000
      7 H2         3.1946    3.5816    1.7809 H         1 RES1    0.0000
      8 H3         2.3680    4.6142    0.8809 H         1 RES1    0.0000
      9 H4         2.3546    4.7538    2.4749 H         1 RES1    0.0000
     10 N1         5.3028    4.9033    1.6356 N.2       1 RES1    0.0000
     11 O1         5.4540    9.4314    1.4505 O.3       1 RES1    0.0000
     12 O2         7.4504    8.3908    1.5318 O.2       1 RES1    0.0000
     13 O3         6.1983    5.9821    1.5722 O.3       1 RES1    0.0000
     14 H5         5.9393   10.1627    1.4491 H         1 RES1    0.0000
@<TRIPOS>BOND
     1    1    2 1
     2    2    3 2
     3    3    4 1
     4    5    3 1
     5    6    5 1
     6    7    6 1
     7    8    6 1
     8    9    6 1
     9   10    5 2
    10   11    1 1
    11   12    1 2
    12   13    2 1
    13   14   11 1
    14   10   13 1
@<TRIPOS>SUBSTRUCTURE
     1 RES1 1

@<TRIPOS>CRYSIN
   6.2391   13.8231    6.4019  90.0000  96.8870  90.0000  14 1

