# MOL2 file generated by ConQuest
# Please check atom types

@<TRIPOS>MOLECULE
EPATAR
    33    35     1
SMALL
NO_CHARGES
****
Generated from CSD

@<TRIPOS>ATOM
      1 O1         0.4207    2.8225    5.2637 O.2       1 RES1    0.0000
      2 N1         2.0326    1.2607    5.5666 N.am      1 RES1    0.0000
      3 N2        -2.4061   -0.1721    6.1539 N.am      1 RES1    0.0000
      4 C1        -0.1863    0.7070    6.1182 C.2       1 RES1    0.0000
      5 N3        -0.6427   -1.4996    6.9107 N.am      1 RES1    0.0000
      6 C2         0.2496   -0.5306    6.4842 C.2       1 RES1    0.0000
      7 N4         2.5068    0.0701    5.9646 N.2       1 RES1    0.0000
      8 C3         0.7309    1.6688    5.6257 C.2       1 RES1    0.0000
      9 C4         1.6530   -0.8008    6.4166 C.2       1 RES1    0.0000
     10 O2        -2.7786   -2.2998    6.7808 O.2       1 RES1    0.0000
     11 C5        -1.6322    1.0706    6.2167 C.3       1 RES1    0.0000
     12 C6        -2.0072   -1.3642    6.6358 C.2       1 RES1    0.0000
     13 C7        -3.0893    2.6974    7.4257 C.ar      1 RES1    0.0000
     14 C8        -1.9773    1.8864    7.4624 C.ar      1 RES1    0.0000
     15 C9        -3.4728    3.3833    8.5535 C.ar      1 RES1    0.0000
     16 C10       -2.7665    3.3286    9.7258 C.ar      1 RES1    0.0000
     17 C11       -1.2675    1.7976    8.6491 C.ar      1 RES1    0.0000
     18 C12       -0.1844   -2.7797    7.4508 C.3       1 RES1    0.0000
     19 O3        -5.0097    4.8576    9.4380 O.2       1 RES1    0.0000
     20 N5        -4.7020    4.1728    8.4850 N.pl3     1 RES1    0.0000
     21 O4        -5.3814    4.0974    7.4720 O.2       1 RES1    0.0000
     22 C13       -1.6599    2.5219    9.7615 C.ar      1 RES1    0.0000
     23 H1         2.0502   -1.7169    6.6860 H         1 RES1    0.0000
     24 H2        -0.9771   -3.2061    7.8216 H         1 RES1    0.0000
     25 H3         0.2032   -3.2912    6.7594 H         1 RES1    0.0000
     26 H4         0.5128   -2.6035    8.1402 H         1 RES1    0.0000
     27 H5         2.6639    1.8321    5.1854 H         1 RES1    0.0000
     28 H6        -3.3192   -0.0894    6.0448 H         1 RES1    0.0000
     29 H7        -3.5512    2.8064    6.6049 H         1 RES1    0.0000
     30 H8        -3.0417    3.8282   10.4384 H         1 RES1    0.0000
     31 H9        -1.1490    2.4498   10.5833 H         1 RES1    0.0000
     32 H10       -0.4658    1.2480    8.7293 H         1 RES1    0.0000
     33 H11       -1.8763    1.6146    5.4268 H         1 RES1    0.0000
@<TRIPOS>BOND
     1    1    8 2
     2    2    7 1
     3    3   11 1
     4    4    6 2
     5    5    6 1
     6    6    9 1
     7    7    9 2
     8    8    2 1
     9    9   23 1
    10   10   12 2
    11   11    4 1
    12   12    3 1
    13   13   14 ar
    14   14   11 1
    15   15   13 ar
    16   16   15 ar
    17   17   14 ar
    18   18    5 1
    19   19   20 2
    20   20   15 1
    21   21   20 2
    22   22   16 ar
    23   24   18 1
    24   25   18 1
    25   26   18 1
    26   27    2 1
    27   28    3 1
    28   29   13 1
    29   30   16 1
    30   31   22 1
    31   32   17 1
    32   33   11 1
    33    4    8 1
    34    5   12 1
    35   17   22 ar
@<TRIPOS>SUBSTRUCTURE
     1 RES1 1

@<TRIPOS>CRYSIN
   7.9891    8.2345   10.5430 102.8940 109.1310  91.5000   2 1

