# MOL2 file generated by ConQuest
# Please check atom types

@<TRIPOS>MOLECULE
EPNBCH10
    52    54     1
SMALL
NO_CHARGES
****
Generated from CSD

@<TRIPOS>ATOM
      1 C1         3.7933    1.5014    4.9251 C.3       1 RES1    0.0000
      2 C2         4.2256    0.2279    4.1438 C.3       1 RES1    0.0000
      3 C3         5.6440    0.5742    3.7675 C.3       1 RES1    0.0000
      4 C4         5.6646    1.6102    2.5904 C.3       1 RES1    0.0000
      5 C5         5.3702    2.9098    3.3375 C.3       1 RES1    0.0000
      6 C6         5.0729    2.3786    4.8059 C.3       1 RES1    0.0000
      7 C7         5.2087    3.4175    5.8506 C.2       1 RES1    0.0000
      8 C8         6.2113    3.5543    6.7078 C.2       1 RES1    0.0000
      9 C9         6.2523    4.6447    7.7099 C.3       1 RES1    0.0000
     10 C10        6.6050    4.1693    9.0975 C.3       1 RES1    0.0000
     11 C11        3.6314    1.1162    6.4255 C.3       1 RES1    0.0000
     12 C12        2.4687    2.1233    4.4108 C.3       1 RES1    0.0000
     13 C13        6.5754    3.8373    3.3445 C.3       1 RES1    0.0000
     14 C14        6.9320    6.6282    6.5886 C.2       1 RES1    0.0000
     15 C15        8.0514    7.5532    6.2729 C.ar      1 RES1    0.0000
     16 C16        9.2889    7.4168    6.8904 C.ar      1 RES1    0.0000
     17 C17       10.2809    8.3367    6.6430 C.ar      1 RES1    0.0000
     18 C18       10.0233    9.3892    5.7690 C.ar      1 RES1    0.0000
     19 C19        8.7973    9.5412    5.1279 C.ar      1 RES1    0.0000
     20 C20        7.8131    8.6204    5.3962 C.ar      1 RES1    0.0000
     21 N1        11.0761   10.3742    5.5126 N.pl3     1 RES1    0.0000
     22 O1         6.1192    1.3986    4.8777 O.3       1 RES1    0.0000
     23 O2         4.2933    3.6408    2.7410 O.3       1 RES1    0.0000
     24 O3         7.2940    5.5936    7.3594 O.3       1 RES1    0.0000
     25 O4         5.8064    6.8026    6.1558 O.2       1 RES1    0.0000
     26 O5        12.1170   10.2865    6.1468 O.2       1 RES1    0.0000
     27 O6        10.8794   11.2354    4.6463 O.2       1 RES1    0.0000
     28 H1         4.0452   -0.6422    4.8017 H         1 RES1    0.0000
     29 H2         3.4616   -0.0921    3.3661 H         1 RES1    0.0000
     30 H3         6.3564   -0.1478    3.6588 H         1 RES1    0.0000
     31 H4         6.4980    1.6705    2.3137 H         1 RES1    0.0000
     32 H5         4.9888    1.2358    1.7702 H         1 RES1    0.0000
     33 H6         4.6005    4.2070    5.7844 H         1 RES1    0.0000
     34 H7         6.9393    2.6708    6.7322 H         1 RES1    0.0000
     35 H8         5.4807    5.2472    7.7357 H         1 RES1    0.0000
     36 H9         7.2354    3.5699    9.0668 H         1 RES1    0.0000
     37 H10        5.8765    3.3040    9.3316 H         1 RES1    0.0000
     38 H11        6.6866    5.1391    9.6662 H         1 RES1    0.0000
     39 H12        3.3880    1.9226    6.9412 H         1 RES1    0.0000
     40 H13        3.0374    0.2977    6.4813 H         1 RES1    0.0000
     41 H14        4.5859    0.7515    6.6694 H         1 RES1    0.0000
     42 H15        2.3075    2.9334    4.8157 H         1 RES1    0.0000
     43 H16        1.8323    1.5694    4.5648 H         1 RES1    0.0000
     44 H17        2.7323    2.1084    3.3103 H         1 RES1    0.0000
     45 H18        7.2537    3.5940    3.7494 H         1 RES1    0.0000
     46 H19        6.2361    4.7515    3.8400 H         1 RES1    0.0000
     47 H20        6.9428    4.0755    2.5158 H         1 RES1    0.0000
     48 H21        9.3072    6.4469    7.5057 H         1 RES1    0.0000
     49 H22       11.2694    8.2380    6.9970 H         1 RES1    0.0000
     50 H23        8.4051   10.5709    4.5508 H         1 RES1    0.0000
     51 H24        6.8113    8.8806    5.2686 H         1 RES1    0.0000
     52 H25        4.0931    4.4594    3.2476 H         1 RES1    0.0000
@<TRIPOS>BOND
     1    1    2 1
     2    2    3 1
     3    3    4 1
     4    4    5 1
     5    5    6 1
     6    6    1 1
     7    7    6 1
     8    8    7 2
     9    9    8 1
    10   10    9 1
    11   11    1 1
    12   12    1 1
    13   13    5 1
    14   14   15 1
    15   15   16 ar
    16   16   17 ar
    17   17   18 ar
    18   18   19 ar
    19   19   20 ar
    20   20   15 ar
    21   21   18 1
    22   22    3 1
    23   23    5 1
    24   24    9 1
    25   25   14 2
    26   26   21 2
    27   27   21 2
    28   28    2 1
    29   29    2 1
    30   30    3 1
    31   31    4 1
    32   32    4 1
    33   33    7 1
    34   34    8 1
    35   35    9 1
    36   36   10 1
    37   37   10 1
    38   38   10 1
    39   39   11 1
    40   40   11 1
    41   41   11 1
    42   42   12 1
    43   43   12 1
    44   44   12 1
    45   45   13 1
    46   46   13 1
    47   47   13 1
    48   48   16 1
    49   49   17 1
    50   50   19 1
    51   51   20 1
    52   52   23 1
    53    6   22 1
    54   14   24 1
@<TRIPOS>SUBSTRUCTURE
     1 RES1 1

@<TRIPOS>CRYSIN
  11.6180   12.3730    7.9340 108.4300 108.8900  95.9500   2 1

