# MOL2 file generated by ConQuest
# Please check atom types

@<TRIPOS>MOLECULE
EPOVEL
    39    40     1
SMALL
NO_CHARGES
****
Generated from CSD

@<TRIPOS>ATOM
      1 O1         5.5314    5.3580    5.0109 O.3       1 RES1    0.0000
      2 O2         2.8658    5.7269    5.1316 O.2       1 RES1    0.0000
      3 O3         2.5384    4.4944    3.2776 O.3       1 RES1    0.0000
      4 O4         6.4808    3.3057    3.3230 O.3       1 RES1    0.0000
      5 N1         6.4006    6.4169    4.6403 N.2       1 RES1    0.0000
      6 C1         6.2575    6.7039    3.4065 C.2       1 RES1    0.0000
      7 C2         5.2452    5.8361    2.6868 C.3       1 RES1    0.0000
      8 C3         4.7698    4.9231    3.8558 C.3       1 RES1    0.0000
      9 C4         7.0139    7.8201    2.7692 C.3       1 RES1    0.0000
     10 C5         7.6379    7.4571    1.4326 C.3       1 RES1    0.0000
     11 C6         4.1793    6.6403    1.9668 C.ar      1 RES1    0.0000
     12 C7         3.5662    7.7169    2.5936 C.ar      1 RES1    0.0000
     13 C8         2.5591    8.4391    1.9530 C.ar      1 RES1    0.0000
     14 C9         2.1693    8.0722    0.6679 C.ar      1 RES1    0.0000
     15 C10        2.7851    7.0064    0.0275 C.ar      1 RES1    0.0000
     16 C11        3.7906    6.2882    0.6726 C.ar      1 RES1    0.0000
     17 C12        3.2868    5.1061    4.1945 C.2       1 RES1    0.0000
     18 C13        1.0938    4.6531    3.4264 C.3       1 RES1    0.0000
     19 C14        0.4541    4.0799    2.2033 C.3       1 RES1    0.0000
     20 C15        5.1016    3.4555    3.6124 C.3       1 RES1    0.0000
     21 H1         5.7033    5.3000    2.0504 H         1 RES1    0.0000
     22 H2         7.7073    8.0869    3.3609 H         1 RES1    0.0000
     23 H3         6.4170    8.5461    2.6333 H         1 RES1    0.0000
     24 H4         6.9611    7.1561    0.8384 H         1 RES1    0.0000
     25 H5         8.2777    6.7660    1.5588 H         1 RES1    0.0000
     26 H6         8.0662    8.2211    1.0652 H         1 RES1    0.0000
     27 H7         3.8366    7.9651    3.4696 H         1 RES1    0.0000
     28 H8         2.1433    9.1728    2.3890 H         1 RES1    0.0000
     29 H9         1.4786    8.5531    0.2278 H         1 RES1    0.0000
     30 H10        2.5209    6.7660   -0.8528 H         1 RES1    0.0000
     31 H11        4.2118    5.5591    0.2319 H         1 RES1    0.0000
     32 H12        0.7934    4.1885    4.1983 H         1 RES1    0.0000
     33 H13        0.8746    5.5746    3.5066 H         1 RES1    0.0000
     34 H14        0.7593    3.1895    2.0740 H         1 RES1    0.0000
     35 H15        0.6864    4.6066    1.4480 H         1 RES1    0.0000
     36 H16       -0.4897    4.0784    2.3100 H         1 RES1    0.0000
     37 H17        4.5910    3.1360    2.8775 H         1 RES1    0.0000
     38 H18        4.8874    2.9529    4.3891 H         1 RES1    0.0000
     39 H19        6.9451    3.1957    3.9920 H         1 RES1    0.0000
@<TRIPOS>BOND
     1    1    5 1
     2    2   17 2
     3    3   17 1
     4    4   20 1
     5    5    6 2
     6    6    7 1
     7    7    8 1
     8    8    1 1
     9    9    6 1
    10   10    9 1
    11   11    7 1
    12   12   11 ar
    13   13   12 ar
    14   14   13 ar
    15   15   14 ar
    16   16   11 ar
    17   17    8 1
    18   18    3 1
    19   19   18 1
    20   20    8 1
    21   21    7 1
    22   22    9 1
    23   23    9 1
    24   24   10 1
    25   25   10 1
    26   26   10 1
    27   27   12 1
    28   28   13 1
    29   29   14 1
    30   30   15 1
    31   31   16 1
    32   32   18 1
    33   33   18 1
    34   34   19 1
    35   35   19 1
    36   36   19 1
    37   37   20 1
    38   38   20 1
    39   39    4 1
    40   15   16 ar
@<TRIPOS>SUBSTRUCTURE
     1 RES1 1

@<TRIPOS>CRYSIN
   9.0974    7.7565   10.9278  90.0000 110.1010  90.0000   4 1

