# MOL2 file generated by ConQuest
# Please check atom types

@<TRIPOS>MOLECULE
EPPHIN10
    52    59     1
SMALL
NO_CHARGES
****
Generated from CSD

@<TRIPOS>ATOM
      1 C1        -1.0356    0.9764    4.3424 C.ar      1 RES1    0.0000
      2 C2        -1.3535   -0.1635    5.0672 C.ar      1 RES1    0.0000
      3 C3        -0.5543   -1.2782    4.8880 C.ar      1 RES1    0.0000
      4 C4         0.5323   -1.2577    4.0279 C.ar      1 RES1    0.0000
      5 C5         0.8330   -0.1145    3.2917 C.ar      1 RES1    0.0000
      6 C6         0.0307    1.0025    3.4518 C.ar      1 RES1    0.0000
      7 C7         1.4027    3.0842    2.8532 C.ar      1 RES1    0.0000
      8 C8         2.1687    2.9838    4.0110 C.ar      1 RES1    0.0000
      9 C9         3.3205    3.7343    4.1699 C.ar      1 RES1    0.0000
     10 C10        3.7357    4.5804    3.1655 C.ar      1 RES1    0.0000
     11 C11        2.9893    4.6847    2.0066 C.ar      1 RES1    0.0000
     12 C12        1.8207    3.9476    1.8522 C.ar      1 RES1    0.0000
     13 C13        0.0911    2.3345    2.7472 C.3       1 RES1    0.0000
     14 C14       -1.1215    3.0873    3.3628 C.3       1 RES1    0.0000
     15 O1        -0.2217    2.2128    1.3291 O.3       1 RES1    0.0000
     16 N1        -1.6510    2.2539    4.4686 N.3       1 RES1    0.0000
     17 H1        -2.1918   -0.1809    5.7481 H         1 RES1    0.0000
     18 H2        -0.7818   -2.1859    5.4302 H         1 RES1    0.0000
     19 H3         1.1516   -2.1377    3.9275 H         1 RES1    0.0000
     20 H4         1.6741   -0.1019    2.6142 H         1 RES1    0.0000
     21 H5         1.8576    2.3092    4.7933 H         1 RES1    0.0000
     22 H6         3.8914    3.6561    5.0830 H         1 RES1    0.0000
     23 H7         4.6423    5.1595    3.2827 H         1 RES1    0.0000
     24 H8         3.3166    5.3412    1.2130 H         1 RES1    0.0000
     25 H9         1.2336    4.0480    0.9503 H         1 RES1    0.0000
     26 H10       -0.9141    4.0132    3.6840 H         1 RES1    0.0000
     27 C14B      -2.1855    3.0873    2.2738 C.3       1 RES1    0.0000
     28 N1B       -1.6559    2.2539    1.1679 N.3       1 RES1    0.0000
     29 O1B       -3.0852    2.2128    4.3074 O.3       1 RES1    0.0000
     30 C13B      -3.3980    2.3345    2.8893 C.3       1 RES1    0.0000
     31 H10B      -2.3929    4.0132    1.9525 H         1 RES1    0.0000
     32 C1B       -2.2714    0.9764    1.2941 C.ar      1 RES1    0.0000
     33 C6B       -3.3376    1.0025    2.1847 C.ar      1 RES1    0.0000
     34 C7B       -4.7096    3.0842    2.7833 C.ar      1 RES1    0.0000
     35 C2B       -1.9534   -0.1635    0.5693 C.ar      1 RES1    0.0000
     36 C5B       -4.1399   -0.1145    2.3448 C.ar      1 RES1    0.0000
     37 C8B       -5.4757    2.9838    1.6256 C.ar      1 RES1    0.0000
     38 C12B      -5.1276    3.9476    3.7844 C.ar      1 RES1    0.0000
     39 C3B       -2.7526   -1.2782    0.7485 C.ar      1 RES1    0.0000
     40 H1B       -1.1151   -0.1809   -0.1116 H         1 RES1    0.0000
     41 C4B       -3.8392   -1.2577    1.6087 C.ar      1 RES1    0.0000
     42 H4B       -4.9810   -0.1019    3.0223 H         1 RES1    0.0000
     43 C9B       -6.6274    3.7343    1.4666 C.ar      1 RES1    0.0000
     44 H5B       -5.1645    2.3092    0.8432 H         1 RES1    0.0000
     45 C11B      -6.2963    4.6847    3.6299 C.ar      1 RES1    0.0000
     46 H9B       -4.5405    4.0480    4.6862 H         1 RES1    0.0000
     47 H2B       -2.5251   -2.1859    0.2063 H         1 RES1    0.0000
     48 H3B       -4.4585   -2.1377    1.7090 H         1 RES1    0.0000
     49 C10B      -7.0426    4.5804    2.4711 C.ar      1 RES1    0.0000
     50 H6B       -7.1983    3.6561    0.5535 H         1 RES1    0.0000
     51 H8B       -6.6235    5.3412    4.4235 H         1 RES1    0.0000
     52 H7B       -7.9493    5.1595    2.3538 H         1 RES1    0.0000
@<TRIPOS>BOND
     1    1    2 ar
     2    2    3 ar
     3    3    4 ar
     4    4    5 ar
     5    5    6 ar
     6    6    1 ar
     7    7    8 ar
     8    8    9 ar
     9    9   10 ar
    10   10   11 ar
    11   11   12 ar
    12   12    7 ar
    13   13    6 1
    14   14   13 1
    15   15   13 1
    16   16    1 1
    17   17    2 1
    18   18    3 1
    19   19    4 1
    20   20    5 1
    21   21    8 1
    22   22    9 1
    23   23   10 1
    24   24   11 1
    25   25   12 1
    26   26   14 1
    27   27   14 1
    28   28   15 1
    29   29   16 1
    30   30   27 1
    31   31   27 1
    32   32   28 1
    33   33   30 1
    34   34   30 1
    35   35   32 ar
    36   36   33 ar
    37   37   34 ar
    38   38   34 ar
    39   39   35 ar
    40   40   35 1
    41   41   36 ar
    42   42   36 1
    43   43   37 ar
    44   44   37 1
    45   45   38 ar
    46   46   38 1
    47   47   39 1
    48   48   41 1
    49   49   43 ar
    50   50   43 1
    51   51   45 1
    52   52   49 1
    53    7   13 1
    54   14   16 1
    55   27   28 1
    56   29   30 1
    57   32   33 ar
    58   39   41 ar
    59   45   49 ar
@<TRIPOS>SUBSTRUCTURE
     1 RES1 1

@<TRIPOS>CRYSIN
  23.8500    7.9000   13.0700  90.0000 120.4000  90.0000  15 1

