# MOL2 file generated by ConQuest
# Please check atom types

@<TRIPOS>MOLECULE
EQALOZ
    96    78     2
SMALL
USER_CHARGES
****
Generated from CSD

@<TRIPOS>ATOM
      1 C1         6.1196    9.2737    7.2105 C.ar      1 RES1    0.0000
      2 C2         6.6564    8.0731    6.7606 C.ar      1 RES1    0.0000
      3 C3         5.9132    7.2526    5.9193 C.ar      1 RES1    0.0000
      4 H1         6.2726    6.4486    5.6182 H         1 RES1    0.0000
      5 C4         4.6346    7.6316    5.5291 C.ar      1 RES1    0.0000
      6 C5         4.0978    8.8322    5.9791 C.ar      1 RES1    0.0000
      7 H2         3.2427    9.0860    5.7174 H         1 RES1    0.0000
      8 C6         4.8406    9.6538    6.8192 C.ar      1 RES1    0.0000
      9 H3         4.4822   10.4567    7.1203 H         1 RES1    0.0000
     10 C7         1.4605    2.7139    0.3990 C.3       1 RES1    0.0000
     11 H4         0.5451    2.7661    0.0530 H         1 RES1    0.0000
     12 C8         2.5046    2.7551   -0.7093 C.ar      1 RES1    0.0000
     13 C9         1.7181    1.4251    1.1684 C.ar      1 RES1    0.0000
     14 C10        7.1487   10.0661    8.0637 C.3       1 RES1    0.0000
     15 H5         6.8070   10.9252    8.3878 H         1 RES1    0.0000
     16 C11        7.4983    9.0911    9.1822 C.ar      1 RES1    0.0000
     17 C12        8.4107   10.1937    7.2253 C.ar      1 RES1    0.0000
     18 C13        8.8805    8.9674    6.7495 C.ar      1 RES1    0.0000
     19 C14        0.8146    0.4114    1.4403 C.ar      1 RES1    0.0000
     20 H6        -0.0580    0.4681    1.1254 H         1 RES1    0.0000
     21 C15        1.7580    3.7946    1.3927 C.ar      1 RES1    0.0000
     22 C16        3.0373    3.7627    1.9351 C.ar      1 RES1    0.0000
     23 C17        3.4566    4.7751    2.7899 C.ar      1 RES1    0.0000
     24 H7         4.3128    4.7534    3.1519 H         1 RES1    0.0000
     25 C18        2.5957    5.8205    3.1023 C.ar      1 RES1    0.0000
     26 C19        1.3158    5.8536    2.5610 C.ar      1 RES1    0.0000
     27 H8         0.7408    6.5534    2.7708 H         1 RES1    0.0000
     28 C20        0.8975    4.8413    1.7062 C.ar      1 RES1    0.0000
     29 H9         0.0409    4.8629    1.3431 H         1 RES1    0.0000
     30 C21        7.9465    7.8668    8.7097 C.ar      1 RES1    0.0000
     31 C22        2.2740    2.8757   -2.0647 C.ar      1 RES1    0.0000
     32 H10        1.4066    2.9557   -2.3885 H         1 RES1    0.0000
     33 C23        3.8576    2.5901    1.3893 C.3       1 RES1    0.0000
     34 H11        4.7658    2.5437    1.7547 H         1 RES1    0.0000
     35 C24        3.0225    1.3182    1.6485 C.ar      1 RES1    0.0000
     36 C25        7.4083    9.3258   10.5458 C.ar      1 RES1    0.0000
     37 H12        7.1341   10.1562   10.8620 H         1 RES1    0.0000
     38 C26        3.8113    2.6400   -0.2303 C.ar      1 RES1    0.0000
     39 C27        9.0889   11.3530    6.9275 C.ar      1 RES1    0.0000
     40 H13        8.7909   12.1741    7.2466 H         1 RES1    0.0000
     41 C28       10.0204    8.9055    5.9813 C.ar      1 RES1    0.0000
     42 H14       10.3326    8.0860    5.6735 H         1 RES1    0.0000
     43 C29        1.2161   -0.6903    2.1855 C.ar      1 RES1    0.0000
     44 H15        0.6081   -1.3688    2.3716 H         1 RES1    0.0000
     45 C30        4.8715    2.6291   -1.1097 C.ar      1 RES1    0.0000
     46 H16        5.7413    2.5447   -0.7928 H         1 RES1    0.0000
     47 C31        3.4190    0.2222    2.3749 C.ar      1 RES1    0.0000
     48 H17        4.2954    0.1576    2.6817 H         1 RES1    0.0000
     49 C32       10.2406   11.2691    6.1336 C.ar      1 RES1    0.0000
     50 H18       10.7034   12.0454    5.9159 H         1 RES1    0.0000
     51 C33       10.6925   10.0633    5.6712 C.ar      1 RES1    0.0000
     52 H19       11.4594   10.0272    5.1457 H         1 RES1    0.0000
     53 C34        3.3557    2.8763   -2.9399 C.ar      1 RES1    0.0000
     54 H20        3.2085    2.9662   -3.8545 H         1 RES1    0.0000
     55 C35        8.2888    6.8630    9.6046 C.ar      1 RES1    0.0000
     56 H21        8.5961    6.0389    9.3013 H         1 RES1    0.0000
     57 C36        2.5069   -0.7865    2.6512 C.ar      1 RES1    0.0000
     58 H22        2.7682   -1.5264    3.1497 H         1 RES1    0.0000
     59 C37        7.7305    8.3177   11.4281 C.ar      1 RES1    0.0000
     60 H23        7.6497    8.4607   12.3427 H         1 RES1    0.0000
     61 C38        4.6316    2.7453   -2.4719 C.ar      1 RES1    0.0000
     62 H24        5.3447    2.7343   -3.0696 H         1 RES1    0.0000
     63 C39        8.1652    7.1157   10.9703 C.ar      1 RES1    0.0000
     64 H25        8.3843    6.4486   11.5792 H         1 RES1    0.0000
     65 C40        8.0939    7.7554    7.2286 C.3       1 RES1    0.0000
     66 H26        8.4403    6.8943    6.9139 H         1 RES1    0.0000
     67 O1         2.3338    8.0137    4.0845 O.2       1 RES1   -1.0000
     68 N1         3.0172    6.8716    4.0293 N.pl3     1 RES1    1.0000
     69 N2         4.1031    6.6431    4.6427 N.2       1 RES1    0.0000
     70 H27        0.5386    2.8095    0.0812 Du        2 SUP2    0.0000
     71 H28        6.8580   10.9331    8.4160 Du        2 SUP2    0.0000
     72 C41        7.8528    7.8852    7.1383 Du        2 SUP2    0.0000
     73 H29        8.1266    7.0179    6.7730 Du        2 SUP2    0.0000
     74 C42        3.9214    2.4181    1.1176 Du        2 SUP2    0.0000
     75 H30        4.8575    2.3152    1.4062 Du        2 SUP2    0.0000
     76 C43        1.9562    3.9122    1.2890 Du        2 SUP2    0.0000
     77 C44        1.2397    4.9669    1.8427 Du        2 SUP2    0.0000
     78 H31        0.3664    5.1293    1.5698 Du        2 SUP2    0.0000
     79 C45        1.8288    5.7778    2.8057 Du        2 SUP2    0.0000
     80 H32        1.3487    6.4833    3.1756 Du        2 SUP2    0.0000
     81 C46        3.1345    5.5353    3.2151 Du        2 SUP2    0.0000
     82 C47        3.8521    4.4807    2.6614 Du        2 SUP2    0.0000
     83 H33        4.7259    4.3182    2.9354 Du        2 SUP2    0.0000
     84 C48        3.2630    3.6697    1.6983 Du        2 SUP2    0.0000
     85 C49        6.5141    8.2646    6.5970 Du        2 SUP2    0.0000
     86 C50        5.6272    7.5783    5.7761 Du        2 SUP2    0.0000
     87 H34        5.8817    6.7718    5.3882 Du        2 SUP2    0.0000
     88 C51        4.3594    8.0962    5.5348 Du        2 SUP2    0.0000
     89 C52        3.9801    9.3018    6.1155 Du        2 SUP2    0.0000
     90 H35        3.1320    9.6482    5.9543 Du        2 SUP2    0.0000
     91 C53        4.8666    9.9881    6.9354 Du        2 SUP2    0.0000
     92 H36        4.6132   10.7946    7.3233 Du        2 SUP2    0.0000
     93 C54        6.1344    9.4701    7.1767 Du        2 SUP2    0.0000
     94 N3         3.9068    6.2895    4.0936 Du        2 SUP2    0.0000
     95 N4         3.4820    7.4094    4.6123 Du        2 SUP2    0.0000
     96 O2         2.2895    7.7378    4.4003 Du        2 SUP2    0.0000
@<TRIPOS>BOND
     1    1    2 ar
     2    2    3 ar
     3    3    4 1
     4    5    3 ar
     5    6    5 ar
     6    7    6 1
     7    8    1 ar
     8    9    8 1
     9   10   11 1
    10   12   10 1
    11   13   10 1
    12   14    1 1
    13   15   14 1
    14   16   14 1
    15   17   14 1
    16   18   17 ar
    17   19   13 ar
    18   20   19 1
    19   21   10 1
    20   22   21 ar
    21   23   22 ar
    22   24   23 1
    23   25   23 ar
    24   26   25 ar
    25   27   26 1
    26   28   21 ar
    27   29   28 1
    28   30   16 ar
    29   31   12 ar
    30   32   31 1
    31   33   22 1
    32   34   33 1
    33   35   13 ar
    34   36   16 ar
    35   37   36 1
    36   38   12 ar
    37   39   17 ar
    38   40   39 1
    39   41   18 ar
    40   42   41 1
    41   43   19 ar
    42   44   43 1
    43   45   38 ar
    44   46   45 1
    45   47   35 ar
    46   48   47 1
    47   49   39 ar
    48   50   49 1
    49   51   41 ar
    50   52   51 1
    51   53   31 ar
    52   54   53 1
    53   55   30 ar
    54   56   55 1
    55   57   43 ar
    56   58   57 1
    57   59   36 ar
    58   60   59 1
    59   61   45 ar
    60   62   61 1
    61   63   55 ar
    62   64   63 1
    63   65    2 1
    64   66   65 1
    65   67   68 1
    66   68   25 1
    67   69    5 1
    68    6    8 ar
    69   18   65 1
    70   26   28 ar
    71   30   65 1
    72   33   35 1
    73   33   38 1
    74   47   57 ar
    75   49   51 ar
    76   53   61 ar
    77   59   63 ar
    78   68   69 2
@<TRIPOS>SUBSTRUCTURE
     1 RES1 1
     2 SUP2 70

@<TRIPOS>CRYSIN
  10.6315   11.8390   12.1481  87.2790  68.2280  86.7250   2 1

