# MOL2 file generated by ConQuest
# Please check atom types

@<TRIPOS>MOLECULE
EQASOG
    60    64     2
SMALL
NO_CHARGES
****
Generated from CSD

@<TRIPOS>ATOM
      1 C1        15.3180    5.8167    7.8783 C.ar      1 RES1    0.0000
      2 H1        14.7968    5.3639    7.2556 H         1 RES1    0.0000
      3 C2        16.6916    5.6533    7.8685 C.ar      1 RES1    0.0000
      4 H2        17.0900    5.1082    7.2282 H         1 RES1    0.0000
      5 C3        17.4790    6.2996    8.8105 C.ar      1 RES1    0.0000
      6 H3        18.4023    6.1834    8.8105 H         1 RES1    0.0000
      7 C4        16.8831    7.1123    9.7417 C.ar      1 RES1    0.0000
      8 H4        17.4080    7.5419   10.3781 H         1 RES1    0.0000
      9 C5        15.5162    7.3005    9.7475 C.ar      1 RES1    0.0000
     10 H5        15.1282    7.8636   10.3791 H         1 RES1    0.0000
     11 C6        14.7108    6.6482    8.8085 C.ar      1 RES1    0.0000
     12 C7        13.2629    6.8589    8.7419 C.2       1 RES1    0.0000
     13 C8        12.3396    7.2968    9.7466 C.ar      1 RES1    0.0000
     14 C9        12.3968    7.6364   11.1066 C.ar      1 RES1    0.0000
     15 H6        13.1966    7.6012   11.5805 H         1 RES1    0.0000
     16 C10       11.2315    8.0203   11.7068 C.ar      1 RES1    0.0000
     17 C11       10.0069    8.0750   11.0479 C.ar      1 RES1    0.0000
     18 H7         9.2463    8.3517   11.5061 H         1 RES1    0.0000
     19 C12        9.9182    7.7226    9.7309 C.ar      1 RES1    0.0000
     20 H8         9.1057    7.7466    9.2756 H         1 RES1    0.0000
     21 C13       11.0966    7.3260    9.0964 C.ar      1 RES1    0.0000
     22 C14       10.3668    6.7982    6.7376 C.3       1 RES1    0.0000
     23 H9         9.4907    7.0306    7.0539 H         1 RES1    0.0000
     24 H10       10.6189    7.3927    6.0267 H         1 RES1    0.0000
     25 H11       10.3611    5.8947    6.4115 H         1 RES1    0.0000
     26 N1        12.6265    6.6332    7.6091 N.2       1 RES1    0.0000
     27 N2        11.3155    6.9129    7.8196 N.pl3     1 RES1    0.0000
     28 N3        11.2673    8.3832   13.1266 N.pl3     1 RES1    0.0000
     29 O1        12.3403    8.4117   13.7112 O.2       1 RES1    0.0000
     30 O2        10.2061    8.6486   13.6867 O.2       1 RES1    0.0000
     31 C15        2.2292    4.5893    6.9677 C.ar      2 RES2    0.0000
     32 H12        1.4830    4.5751    6.4145 H         2 RES2    0.0000
     33 C16        2.1285    5.1232    8.2455 C.ar      2 RES2    0.0000
     34 H13        1.3156    5.4606    8.5451 H         2 RES2    0.0000
     35 C17        3.2208    5.1547    9.0631 C.ar      2 RES2    0.0000
     36 H14        3.1502    5.5198    9.9160 H         2 RES2    0.0000
     37 C18        4.4250    4.6478    8.6303 C.ar      2 RES2    0.0000
     38 H15        5.1688    4.6733    9.1884 H         2 RES2    0.0000
     39 C19        4.5254    4.1042    7.3701 C.ar      2 RES2    0.0000
     40 H16        5.3362    3.7496    7.0891 H         2 RES2    0.0000
     41 C20        3.4351    4.0757    6.5104 C.ar      2 RES2    0.0000
     42 C21        3.5660    3.5464    5.1523 C.2       2 RES2    0.0000
     43 C22        4.7162    3.4849    4.3073 C.ar      2 RES2    0.0000
     44 C23        6.0483    3.8688    4.3964 C.ar      2 RES2    0.0000
     45 H17        6.3907    4.2647    5.1651 H         2 RES2    0.0000
     46 C24        6.8407    3.6364    3.2959 C.ar      2 RES2    0.0000
     47 C25        6.3717    3.0598    2.1032 C.ar      2 RES2    0.0000
     48 H18        6.9532    2.9234    1.3904 H         2 RES2    0.0000
     49 C26        5.0480    2.6969    1.9975 C.ar      2 RES2    0.0000
     50 H19        4.7135    2.3130    1.2191 H         2 RES2    0.0000
     51 C27        4.2265    2.9271    3.1020 C.ar      2 RES2    0.0000
     52 C28        1.9798    2.2111    2.2795 C.3       2 RES2    0.0000
     53 H20        1.1081    2.1466    2.6760 H         2 RES2    0.0000
     54 H21        1.9484    2.8176    1.5363 H         2 RES2    0.0000
     55 H22        2.2563    1.3443    1.9750 H         2 RES2    0.0000
     56 N4         2.4903    3.0816    4.5120 N.2       2 RES2    0.0000
     57 N5         2.9262    2.7044    3.2684 N.pl3     2 RES2    0.0000
     58 N6         8.2276    4.0345    3.3477 N.pl3     2 RES2    0.0000
     59 O3         8.6360    4.6793    4.3132 O.2       2 RES2    0.0000
     60 O4         8.9474    3.7219    2.4166 O.2       2 RES2    0.0000
@<TRIPOS>BOND
     1    1    2 1
     2    3    1 ar
     3    4    3 1
     4    5    3 ar
     5    6    5 1
     6    7    5 ar
     7    8    7 1
     8    9    7 ar
     9   10    9 1
    10   11    1 ar
    11   12   11 1
    12   13   12 1
    13   14   13 ar
    14   15   14 1
    15   16   14 ar
    16   17   16 ar
    17   18   17 1
    18   19   17 ar
    19   20   19 1
    20   21   13 ar
    21   22   23 1
    22   24   22 1
    23   25   22 1
    24   26   12 2
    25   27   21 1
    26   28   16 1
    27   29   28 2
    28   30   28 2
    29   31   32 1
    30   33   31 ar
    31   34   33 1
    32   35   33 ar
    33   36   35 1
    34   37   35 ar
    35   38   37 1
    36   39   37 ar
    37   40   39 1
    38   41   31 ar
    39   42   41 1
    40   43   42 1
    41   44   43 ar
    42   45   44 1
    43   46   44 ar
    44   47   46 ar
    45   48   47 1
    46   49   47 ar
    47   50   49 1
    48   51   43 ar
    49   52   53 1
    50   54   52 1
    51   55   52 1
    52   56   42 2
    53   57   51 1
    54   58   46 1
    55   59   58 2
    56   60   58 2
    57    9   11 ar
    58   19   21 ar
    59   22   27 1
    60   26   27 1
    61   39   41 ar
    62   49   51 ar
    63   52   57 1
    64   56   57 1
@<TRIPOS>SUBSTRUCTURE
     1 RES1 1
     2 RES2 31

@<TRIPOS>CRYSIN
  33.4769    7.4977    9.7916  90.0000  90.0000  90.0000  29 1

