# MOL2 file generated by ConQuest
# Please check atom types

@<TRIPOS>MOLECULE
EQAWEA
    31    31     1
SMALL
NO_CHARGES
****
Generated from CSD

@<TRIPOS>ATOM
      1 C1         7.1260    4.5547    3.1172 C.ar      1 RES1    0.0000
      2 C2         8.2586    3.7934    3.3803 C.ar      1 RES1    0.0000
      3 H1         9.0649    4.2170    3.5661 H         1 RES1    0.0000
      4 C3         8.1975    2.4397    3.3684 C.ar      1 RES1    0.0000
      5 H2         8.9562    1.9330    3.5484 H         1 RES1    0.0000
      6 C4         6.9888    1.8190    3.0843 C.ar      1 RES1    0.0000
      7 H3         6.9448    0.8895    3.0724 H         1 RES1    0.0000
      8 C5         5.8577    2.5499    2.8213 C.ar      1 RES1    0.0000
      9 H4         5.0609    2.1093    2.6321 H         1 RES1    0.0000
     10 C6         5.8855    3.9462    2.8331 C.ar      1 RES1    0.0000
     11 C7         2.5708    4.7780    2.0751 C.2       1 RES1    0.0000
     12 C8         2.5686    6.2619    2.1252 C.3       1 RES1    0.0000
     13 H5         1.6880    6.5868    1.9235 H         1 RES1    0.0000
     14 H6         2.8238    6.5535    3.0039 H         1 RES1    0.0000
     15 H7         3.1923    6.6043    1.4805 H         1 RES1    0.0000
     16 C9         1.3023    4.0911    1.7356 C.2       1 RES1    0.0000
     17 C10        0.1735    2.0383    1.4719 C.3       1 RES1    0.0000
     18 H8        -0.0438    2.1538    0.5333 H         1 RES1    0.0000
     19 H9        -0.5701    2.3634    2.0032 H         1 RES1    0.0000
     20 C11        0.4334    0.6026    1.7692 C.3       1 RES1    0.0000
     21 H10       -0.3499    0.0858    1.5629 H         1 RES1    0.0000
     22 H11        1.1702    0.2938    1.2366 H         1 RES1    0.0000
     23 H12        0.6467    0.5019    2.6993 H         1 RES1    0.0000
     24 N1         7.2874    5.9920    3.1509 N.pl3     1 RES1    0.0000
     25 N2         4.7479    4.6705    2.5800 N.pl3     1 RES1    0.0000
     26 H13        4.8246    5.5465    2.5576 H         1 RES1    0.0000
     27 N3         3.5902    4.0277    2.2962 N.2       1 RES1    0.0000
     28 O1         6.3243    6.7215    2.9149 O.2       1 RES1    0.0000
     29 O2         8.3871    6.4542    3.4218 O.2       1 RES1    0.0000
     30 O3         0.2967    4.6856    1.4350 O.2       1 RES1    0.0000
     31 O4         1.3837    2.7674    1.8007 O.3       1 RES1    0.0000
@<TRIPOS>BOND
     1    1    2 ar
     2    2    3 1
     3    4    2 ar
     4    5    4 1
     5    6    4 ar
     6    7    6 1
     7    8    6 ar
     8    9    8 1
     9   10    1 ar
    10   11   12 1
    11   12   13 1
    12   14   12 1
    13   15   12 1
    14   16   11 1
    15   17   18 1
    16   19   17 1
    17   20   17 1
    18   21   20 1
    19   22   20 1
    20   23   20 1
    21   24    1 1
    22   25   10 1
    23   26   25 1
    24   27   11 2
    25   28   24 2
    26   29   24 2
    27   30   16 2
    28   31   16 1
    29    8   10 ar
    30   17   31 1
    31   25   27 1
@<TRIPOS>SUBSTRUCTURE
     1 RES1 1

@<TRIPOS>CRYSIN
  11.8614   15.8834    6.7495  90.0000 102.4110  90.0000  14 1

