# MOL2 file generated by ConQuest
# Please check atom types

@<TRIPOS>MOLECULE
EQAZAY
    62    62     2
SMALL
NO_CHARGES
****
Generated from CSD

@<TRIPOS>ATOM
      1 O1         2.2120   -1.6894    7.5031 O.3       1 RES1    0.0000
      2 H1         2.9752   -2.1455    7.8173 H         1 RES1    0.0000
      3 N1         1.9038    1.7920    8.3275 N.3       1 RES1    0.0000
      4 H2         2.7995    2.0906    8.6139 H         1 RES1    0.0000
      5 O2         1.1187   -1.2357   10.0333 O.2       1 RES1    0.0000
      6 C1         2.1089    0.7458    7.3074 C.3       1 RES1    0.0000
      7 N2         2.1852   -0.4562    8.1577 N.am      1 RES1    0.0000
      8 C2         1.4747   -0.3274    9.2994 C.2       1 RES1    0.0000
      9 C3         1.1993    1.1570    9.4685 C.3       1 RES1    0.0000
     10 H3         0.2372    1.3092    9.3642 H         1 RES1    0.0000
     11 C4         3.3938    0.9716    6.5480 C.3       1 RES1    0.0000
     12 H4         4.1313    0.9741    7.1615 H         1 RES1    0.0000
     13 H5         3.3531    1.8163    6.0930 H         1 RES1    0.0000
     14 H6         3.5138    0.2684    5.9059 H         1 RES1    0.0000
     15 C5         0.9116    0.6482    6.3721 C.3       1 RES1    0.0000
     16 H7         0.1079    0.5560    6.8896 H         1 RES1    0.0000
     17 H8         1.0145   -0.1157    5.7998 H         1 RES1    0.0000
     18 H9         0.8574    1.4427    5.8365 H         1 RES1    0.0000
     19 C6         1.6507    1.7935   10.7720 C.3       1 RES1    0.0000
     20 H10        2.5890    1.5821   10.8976 H         1 RES1    0.0000
     21 H11        1.5835    2.7564   10.6719 H         1 RES1    0.0000
     22 C7         0.9154    1.4056   12.0365 C.3       1 RES1    0.0000
     23 H12        0.9615    0.4315   12.1378 H         1 RES1    0.0000
     24 C8        -0.5421    1.8193   12.0028 C.3       1 RES1    0.0000
     25 H13       -0.9890    1.3611   11.2872 H         1 RES1    0.0000
     26 H14       -0.6029    2.7667   11.8639 H         1 RES1    0.0000
     27 H15       -0.9588    1.5909   12.8379 H         1 RES1    0.0000
     28 C9         1.6041    2.0504   13.2310 C.3       1 RES1    0.0000
     29 H16        2.5298    1.7970   13.2410 H         1 RES1    0.0000
     30 H17        1.1827    1.7540   14.0415 H         1 RES1    0.0000
     31 H18        1.5343    3.0055   13.1639 H         1 RES1    0.0000
     32 O3        -2.8585   10.7803   11.7323 O.3       2 RES2    0.0000
     33 H19       -3.3940   11.5177   11.4415 H         2 RES2    0.0000
     34 N3         0.6237   10.4991   10.9051 N.3       2 RES2    0.0000
     35 H20        0.9013   11.3590   10.5658 H         2 RES2    0.0000
     36 O4        -2.4010    9.6951    9.2003 O.2       2 RES2    0.0000
     37 C10       -0.4229   10.6957   11.9233 C.3       2 RES2    0.0000
     38 N4        -1.6245   10.7763   11.0708 N.am      2 RES2    0.0000
     39 C11       -1.4932   10.0621    9.9307 C.2       2 RES2    0.0000
     40 C12       -0.0040    9.7964    9.7617 C.3       2 RES2    0.0000
     41 H21        0.1521    8.8340    9.8676 H         2 RES2    0.0000
     42 C13       -0.2087   11.9727   12.6906 C.3       2 RES2    0.0000
     43 H22       -0.1861   12.7128   12.0799 H         2 RES2    0.0000
     44 H23        0.6241   11.9240   13.1658 H         2 RES2    0.0000
     45 H24       -0.9266   12.0959   13.3143 H         2 RES2    0.0000
     46 C14       -0.5111    9.4910   12.8393 C.3       2 RES2    0.0000
     47 H25       -0.5359    8.6887   12.3114 H         2 RES2    0.0000
     48 H26       -1.3084    9.5501   13.3703 H         2 RES2    0.0000
     49 H27        0.2556    9.4701   13.4166 H         2 RES2    0.0000
     50 C15        0.6280   10.2412    8.4613 C.3       2 RES2    0.0000
     51 H28        1.5907   10.1714    8.5599 H         2 RES2    0.0000
     52 H29        0.4205   11.1811    8.3362 H         2 RES2    0.0000
     53 C16        0.2361    9.5049    7.1897 C.3       2 RES2    0.0000
     54 H30       -0.7372    9.5605    7.0863 H         2 RES2    0.0000
     55 C17        0.6284    8.0569    7.2395 C.3       2 RES2    0.0000
     56 H31        0.1479    7.6196    7.9465 H         2 RES2    0.0000
     57 H32        1.5719    7.9859    7.4026 H         2 RES2    0.0000
     58 H33        0.4164    7.6389    6.4016 H         2 RES2    0.0000
     59 C18        0.8880   10.1877    5.9996 C.3       2 RES2    0.0000
     60 H34        0.6322    9.7355    5.1923 H         2 RES2    0.0000
     61 H35        1.8426   10.1551    6.0949 H         2 RES2    0.0000
     62 H36        0.6007   11.1025    5.9599 H         2 RES2    0.0000
@<TRIPOS>BOND
     1    1    2 1
     2    3    4 1
     3    5    8 2
     4    6    3 1
     5    7    1 1
     6    8    7 1
     7    9    3 1
     8   10    9 1
     9   11    6 1
    10   12   11 1
    11   13   11 1
    12   14   11 1
    13   15    6 1
    14   16   15 1
    15   17   15 1
    16   18   15 1
    17   19    9 1
    18   20   19 1
    19   21   19 1
    20   22   19 1
    21   23   22 1
    22   24   22 1
    23   25   24 1
    24   26   24 1
    25   27   24 1
    26   28   22 1
    27   29   28 1
    28   30   28 1
    29   31   28 1
    30   32   33 1
    31   34   35 1
    32   36   39 2
    33   37   34 1
    34   38   32 1
    35   39   38 1
    36   40   34 1
    37   41   40 1
    38   42   37 1
    39   43   42 1
    40   44   42 1
    41   45   42 1
    42   46   37 1
    43   47   46 1
    44   48   46 1
    45   49   46 1
    46   50   40 1
    47   51   50 1
    48   52   50 1
    49   53   50 1
    50   54   53 1
    51   55   53 1
    52   56   55 1
    53   57   55 1
    54   58   55 1
    55   59   53 1
    56   60   59 1
    57   61   59 1
    58   62   59 1
    59    6    7 1
    60    8    9 1
    61   37   38 1
    62   39   40 1
@<TRIPOS>SUBSTRUCTURE
     1 RES1 1
     2 RES2 32

@<TRIPOS>CRYSIN
  14.8213   14.8271   19.4308  90.0000  96.9570  90.0000  15 1

