# MOL2 file generated by ConQuest
# Please check atom types

@<TRIPOS>MOLECULE
EQEBIN
    60    62     2
SMALL
NO_CHARGES
****
Generated from CSD

@<TRIPOS>ATOM
      1 C1         1.6970    6.4176    9.9499 C.ar      1 RES1    0.0000
      2 C2         2.8438    5.6790    9.6860 C.ar      1 RES1    0.0000
      3 H1         2.7744    4.7877    9.4303 H         1 RES1    0.0000
      4 C3         4.0650    6.2590    9.7998 C.ar      1 RES1    0.0000
      5 H2         4.8317    5.7636    9.6249 H         1 RES1    0.0000
      6 C4         4.1740    7.5989   10.1826 C.ar      1 RES1    0.0000
      7 C5         3.0173    8.3514   10.4713 C.ar      1 RES1    0.0000
      8 C6         1.7879    7.7336   10.3393 C.ar      1 RES1    0.0000
      9 H3         1.0113    8.2150   10.5142 H         1 RES1    0.0000
     10 C7         3.1875    9.7282   10.9052 C.2       1 RES1    0.0000
     11 C8         4.3922   10.2614   10.9514 C.2       1 RES1    0.0000
     12 H4         4.4566   11.1404   11.2450 H         1 RES1    0.0000
     13 C9         5.6678    9.5729   10.5686 C.3       1 RES1    0.0000
     14 C10        1.9647   10.5070   11.2830 C.3       1 RES1    0.0000
     15 H5         1.3864   10.5842   10.5191 H         1 RES1    0.0000
     16 H6         2.2225   11.3827   11.5799 H         1 RES1    0.0000
     17 H7         1.5021   10.0527   11.9907 H         1 RES1    0.0000
     18 C11        6.2396   10.2277    9.3115 C.3       1 RES1    0.0000
     19 H8         6.4263   11.1527    9.4896 H         1 RES1    0.0000
     20 H9         7.0493    9.7800    9.0574 H         1 RES1    0.0000
     21 H10        5.6001   10.1628    8.5971 H         1 RES1    0.0000
     22 C12        6.6626    9.6296   11.7020 C.3       1 RES1    0.0000
     23 H11        6.8592   10.5456   11.9099 H         1 RES1    0.0000
     24 H12        6.2891    9.2000   12.4758 H         1 RES1    0.0000
     25 H13        7.4690    9.1786   11.4430 H         1 RES1    0.0000
     26 N1         0.3999    5.8211    9.8510 N.pl3     1 RES1    0.0000
     27 N2         5.3886    8.1674   10.2783 N.3       1 RES1    0.0000
     28 O1        -0.5932    6.4923   10.1100 O.2       1 RES1    0.0000
     29 O2         0.3239    4.6431    9.4929 O.2       1 RES1    0.0000
     30 H14        6.1140    7.6892   10.1628 H         1 RES1    0.0000
     31 C13        5.6744    5.7349    6.5250 C.ar      2 RES2    0.0000
     32 C14        6.7865    6.5071    6.8120 C.ar      2 RES2    0.0000
     33 H15        6.6808    7.3927    7.0743 H         2 RES2    0.0000
     34 C15        8.0292    5.9748    6.7114 C.ar      2 RES2    0.0000
     35 H16        8.7744    6.5046    6.8830 H         2 RES2    0.0000
     36 C16        8.1994    4.6357    6.3517 C.ar      2 RES2    0.0000
     37 C17        7.0509    3.8454    6.0399 C.ar      2 RES2    0.0000
     38 C18        5.8199    4.4328    6.1356 C.ar      2 RES2    0.0000
     39 H17        5.0614    3.9342    5.9310 H         2 RES2    0.0000
     40 C19        7.2624    2.4711    5.6093 C.2       2 RES2    0.0000
     41 C20        8.4918    1.9757    5.5763 C.2       2 RES2    0.0000
     42 H18        8.5877    1.0951    5.2926 H         2 RES2    0.0000
     43 C21        9.7279    2.7052    5.9525 C.3       2 RES2    0.0000
     44 C22       10.7061    2.6986    4.7762 C.3       2 RES2    0.0000
     45 H19       10.9226    1.7925    4.5452 H         2 RES2    0.0000
     46 H20       10.3012    3.1332    4.0222 H         2 RES2    0.0000
     47 H21       11.5075    3.1661    5.0236 H         2 RES2    0.0000
     48 C23       10.3822    2.0562    7.1585 C.3       2 RES2    0.0000
     49 H22       10.5888    1.1402    6.9572 H         2 RES2    0.0000
     50 H23       11.1919    2.5261    7.3763 H         2 RES2    0.0000
     51 H24        9.7824    2.0924    7.9075 H         2 RES2    0.0000
     52 C24        6.0644    1.6537    5.2051 C.3       2 RES2    0.0000
     53 H25        5.6067    2.0915    4.4842 H         2 RES2    0.0000
     54 H26        5.4712    1.5633    5.9541 H         2 RES2    0.0000
     55 H27        6.3536    0.7837    4.9197 H         2 RES2    0.0000
     56 N3         4.3690    6.3223    6.5943 N.pl3     2 RES2    0.0000
     57 N4         9.4222    4.0944    6.2742 N.3       2 RES2    0.0000
     58 O3         3.3842    5.6158    6.3979 O.2       2 RES2    0.0000
     59 O4         4.2583    7.5233    6.8681 O.2       2 RES2    0.0000
     60 H28       10.1624    4.6497    6.3847 H         2 RES2    0.0000
@<TRIPOS>BOND
     1    1    2 ar
     2    2    3 1
     3    4    2 ar
     4    5    4 1
     5    6    4 ar
     6    7    6 ar
     7    8    1 ar
     8    9    8 1
     9   10    7 1
    10   11   10 2
    11   12   11 1
    12   13   11 1
    13   14   10 1
    14   15   14 1
    15   16   14 1
    16   17   14 1
    17   18   13 1
    18   19   18 1
    19   20   18 1
    20   21   18 1
    21   22   13 1
    22   23   22 1
    23   24   22 1
    24   25   22 1
    25   26    1 1
    26   27    6 1
    27   28   26 2
    28   29   26 2
    29   30   27 1
    30   31   32 ar
    31   32   33 1
    32   34   32 ar
    33   35   34 1
    34   36   34 ar
    35   37   36 ar
    36   38   31 ar
    37   39   38 1
    38   40   37 1
    39   41   40 2
    40   42   41 1
    41   43   41 1
    42   44   43 1
    43   45   44 1
    44   46   44 1
    45   47   44 1
    46   48   43 1
    47   49   48 1
    48   50   48 1
    49   51   48 1
    50   52   40 1
    51   53   52 1
    52   54   52 1
    53   55   52 1
    54   56   31 1
    55   57   36 1
    56   58   56 2
    57   59   56 2
    58   60   57 1
    59    7    8 ar
    60   13   27 1
    61   37   38 ar
    62   43   57 1
@<TRIPOS>SUBSTRUCTURE
     1 RES1 1
     2 RES2 31

@<TRIPOS>CRYSIN
  16.5243    8.2150   16.4980  90.0000  90.0000  90.0000  33 1

