# MOL2 file generated by ConQuest
# Please check atom types

@<TRIPOS>MOLECULE
EQETUQ
    44    47     1
SMALL
NO_CHARGES
****
Generated from CSD

@<TRIPOS>ATOM
      1 O1         4.7692   -0.4216    4.0489 O.2       1 RES1    0.0000
      2 O2         7.3253    0.7422    4.9936 O.2       1 RES1    0.0000
      3 O3         6.1559    0.9465    6.8146 O.2       1 RES1    0.0000
      4 N1         3.9287    1.3115    2.8685 N.am      1 RES1    0.0000
      5 N2         4.3709    2.6911    1.1337 N.3       1 RES1    0.0000
      6 N3         6.3327    1.0950    5.6113 N.pl3     1 RES1    0.0000
      7 C1         3.8101    2.7401    2.5124 C.3       1 RES1    0.0000
      8 C2         3.6311    0.4985    1.6683 C.3       1 RES1    0.0000
      9 C3         4.6345    3.6676    3.4062 C.3       1 RES1    0.0000
     10 C4         8.6153    5.1739    5.4400 C.ar      1 RES1    0.0000
     11 C5        -0.2802    4.1061    2.6650 C.ar      1 RES1    0.0000
     12 C6         0.6521    4.7803    1.8978 C.ar      1 RES1    0.0000
     13 C7         0.0925    2.9894    3.3834 C.ar      1 RES1    0.0000
     14 C8         5.8357    2.9894    4.0676 C.3       1 RES1    0.0000
     15 C9         4.6191    0.7845    3.8880 C.2       1 RES1    0.0000
     16 C10        6.5926    3.9590    4.9490 C.ar      1 RES1    0.0000
     17 C11        5.2361    1.7991    4.8462 C.3       1 RES1    0.0000
     18 C12        2.3493    3.1868    2.5477 C.ar      1 RES1    0.0000
     19 C13        5.9517    4.6291    6.0079 C.ar      1 RES1    0.0000
     20 C14        6.6526    5.5606    6.7668 C.ar      1 RES1    0.0000
     21 C15        3.7686    1.4831    0.5118 C.3       1 RES1    0.0000
     22 C16        1.4056    2.5168    3.3232 C.ar      1 RES1    0.0000
     23 C17        7.9208    4.2396    4.6884 C.ar      1 RES1    0.0000
     24 C18        1.9596    4.3240    1.8573 C.ar      1 RES1    0.0000
     25 C19        7.9834    5.8289    6.4678 C.ar      1 RES1    0.0000
     26 H1         6.0381    5.9787    7.5683 H         1 RES1    0.0000
     27 H2         8.4866    6.4826    6.9973 H         1 RES1    0.0000
     28 H3         8.3500    3.7316    3.9243 H         1 RES1    0.0000
     29 H4         4.9394    4.4398    6.2498 H         1 RES1    0.0000
     30 H5        -0.6278    2.4242    3.9243 H         1 RES1    0.0000
     31 H6         1.7377    1.6615    3.8516 H         1 RES1    0.0000
     32 H7         0.4221    5.5702    1.3704 H         1 RES1    0.0000
     33 H8         2.4856    4.7803    1.3911 H         1 RES1    0.0000
     34 H9         4.4719    2.0837    5.5438 H         1 RES1    0.0000
     35 H10        6.4978    2.6012    3.3429 H         1 RES1    0.0000
     36 H11       -1.2160    4.4398    2.5954 H         1 RES1    0.0000
     37 H12        9.6330    5.3250    5.2428 H         1 RES1    0.0000
     38 H13        4.5133    1.1712   -0.3218 H         1 RES1    0.0000
     39 H14        2.7161    1.7569    0.1453 H         1 RES1    0.0000
     40 H15        2.5820    0.0409    1.7857 H         1 RES1    0.0000
     41 H16        4.2635   -0.1770    1.6092 H         1 RES1    0.0000
     42 H17        3.9306    4.0448    4.1838 H         1 RES1    0.0000
     43 H18        4.9603    4.3445    2.8965 H         1 RES1    0.0000
     44 H19        4.1796    3.3775    0.6333 H         1 RES1    0.0000
@<TRIPOS>BOND
     1    1   15 2
     2    2    6 2
     3    3    6 2
     4    4    7 1
     5    5    7 1
     6    6   17 1
     7    7    9 1
     8    8    4 1
     9    9   14 1
    10   10   23 ar
    11   11   12 ar
    12   12   24 ar
    13   13   11 ar
    14   14   16 1
    15   15    4 1
    16   16   19 ar
    17   17   14 1
    18   18    7 1
    19   19   20 ar
    20   20   25 ar
    21   21    5 1
    22   22   13 ar
    23   23   16 ar
    24   24   18 ar
    25   25   10 ar
    26   26   20 1
    27   27   25 1
    28   28   23 1
    29   29   19 1
    30   30   13 1
    31   31   22 1
    32   32   12 1
    33   33   24 1
    34   34   17 1
    35   35   14 1
    36   36   11 1
    37   37   10 1
    38   38   21 1
    39   39   21 1
    40   40    8 1
    41   41    8 1
    42   42    9 1
    43   43    9 1
    44   44    5 1
    45    8   21 1
    46   15   17 1
    47   18   22 ar
@<TRIPOS>SUBSTRUCTURE
     1 RES1 1

@<TRIPOS>CRYSIN
  11.5100   13.6190   11.1720  90.0000 111.6800  90.0000  14 1

