# MOL2 file generated by ConQuest
# Please check atom types

@<TRIPOS>MOLECULE
EQETOK
    34    35     1
SMALL
USER_CHARGES
****
Generated from CSD

@<TRIPOS>ATOM
      1 O1        -0.3806    2.2772   16.8601 O.3       1 RES1    0.0000
      2 O2         0.5172    3.8463   15.6216 O.2       1 RES1   -1.0000
      3 N1         1.8368   -0.5695   15.0504 N.3       1 RES1    0.0000
      4 N2         3.4275   -1.3589   13.5829 N.3       1 RES1    0.0000
      5 N3         0.7195   -0.0392   16.9730 N.2       1 RES1    0.0000
      6 N4         0.5051    2.6279   15.9727 N.pl3     1 RES1    1.0000
      7 C1         1.2848    0.3411   15.8294 C.2       1 RES1    0.0000
      8 C2         1.3468    1.7344   15.4087 C.2       1 RES1    0.0000
      9 C3         2.4137    2.2437   14.4479 C.3       1 RES1    0.0000
     10 C4         3.2635    1.0502   13.9718 C.3       1 RES1    0.0000
     11 C5         2.5032   -0.2485   13.7659 C.3       1 RES1    0.0000
     12 C6         2.7417   -2.5218   14.1768 C.3       1 RES1    0.0000
     13 C7         1.9820   -1.9915   15.3894 C.3       1 RES1    0.0000
     14 C8         3.3654    3.1927   15.1959 C.3       1 RES1    0.0000
     15 C9         1.8172    3.0015   13.2217 C.3       1 RES1    0.0000
     16 C10        1.4727   -0.2227   12.6522 C.3       1 RES1    0.0000
     17 H1         3.9399    0.8935   14.6211 H         1 RES1    0.0000
     18 H2         3.6680    1.2881   13.1453 H         1 RES1    0.0000
     19 H3         3.3760   -3.1764   14.4463 H         1 RES1    0.0000
     20 H4         2.1386   -2.9041   13.5510 H         1 RES1    0.0000
     21 H5         1.1357   -2.4138   15.4815 H         1 RES1    0.0000
     22 H6         2.4805   -2.1071   16.1903 H         1 RES1    0.0000
     23 H7         3.7190    2.7502   15.9595 H         1 RES1    0.0000
     24 H8         2.8891    3.9677   15.4698 H         1 RES1    0.0000
     25 H9         4.0774    3.4468   14.6188 H         1 RES1    0.0000
     26 H10        1.5378    3.8683   13.4903 H         1 RES1    0.0000
     27 H11        1.0718    2.5190   12.8841 H         1 RES1    0.0000
     28 H12        2.4781    3.0780   12.5437 H         1 RES1    0.0000
     29 H13        0.7369    0.3182   12.9145 H         1 RES1    0.0000
     30 H14        1.8664    0.1376   11.8653 H         1 RES1    0.0000
     31 H15        1.1721   -1.1066   12.4785 H         1 RES1    0.0000
     32 H16        3.5823   -1.5079   12.6580 H         1 RES1    0.0000
     33 H17        0.3236    0.7100   17.5099 H         1 RES1    0.0000
     34 H18       -0.0110    2.3718   17.7291 H         1 RES1    0.0000
@<TRIPOS>BOND
     1    1    6 1
     2    2    6 1
     3    3    7 1
     4    4   11 1
     5    5    7 2
     6    6    8 2
     7    7    8 1
     8    8    9 1
     9    9   10 1
    10   10   11 1
    11   11    3 1
    12   12    4 1
    13   13    3 1
    14   14    9 1
    15   15    9 1
    16   16   11 1
    17   17   10 1
    18   18   10 1
    19   19   12 1
    20   20   12 1
    21   21   13 1
    22   22   13 1
    23   23   14 1
    24   24   14 1
    25   25   14 1
    26   26   15 1
    27   27   15 1
    28   28   15 1
    29   29   16 1
    30   30   16 1
    31   31   16 1
    32   32    4 1
    33   33    5 1
    34   34    1 1
    35   12   13 1
@<TRIPOS>SUBSTRUCTURE
     1 RES1 1

@<TRIPOS>CRYSIN
  10.7130    9.5560   23.6220  90.0000  99.2400  90.0000  15 1

