# MOL2 file generated by ConQuest
# Please check atom types

@<TRIPOS>MOLECULE
EQIKOF
    41    44     1
SMALL
NO_CHARGES
****
Generated from CSD

@<TRIPOS>ATOM
      1 O1        -2.7638   -0.7652    7.9646 O.2       1 RES1    0.0000
      2 O2        -0.9992   -0.6473    9.2229 O.2       1 RES1    0.0000
      3 O3         2.6691    3.2930   -0.4276 O.3       1 RES1    0.0000
      4 N1        -1.5916   -0.4202    8.1621 N.pl3     1 RES1    0.0000
      5 N2         2.2549    2.9450    4.1967 N.2       1 RES1    0.0000
      6 N3         2.6436    3.5079    3.0248 N.pl3     1 RES1    0.0000
      7 C1        -0.8798    0.2736    7.1129 C.ar      1 RES1    0.0000
      8 C2         0.3749    0.8015    7.3594 C.ar      1 RES1    0.0000
      9 H1         0.7713    0.7148    8.2181 H         1 RES1    0.0000
     10 C3         1.0433    1.4516    6.3511 C.ar      1 RES1    0.0000
     11 H2         1.9045    1.8149    6.5205 H         1 RES1    0.0000
     12 C4         0.4759    1.5878    5.0753 C.ar      1 RES1    0.0000
     13 C5        -0.8083    1.0336    4.8603 C.ar      1 RES1    0.0000
     14 H3        -1.2088    1.1065    4.0016 H         1 RES1    0.0000
     15 C6        -1.4855    0.3950    5.8628 C.ar      1 RES1    0.0000
     16 H4        -2.3530    0.0399    5.7097 H         1 RES1    0.0000
     17 C7         1.1608    2.2796    4.0051 C.2       1 RES1    0.0000
     18 C8         0.6675    2.3543    2.5844 C.3       1 RES1    0.0000
     19 H5        -0.2205    2.7896    2.5388 H         1 RES1    0.0000
     20 H6         0.6058    1.4513    2.1825 H         1 RES1    0.0000
     21 C9         1.7381    3.2039    1.8729 C.3       1 RES1    0.0000
     22 H7         1.3293    4.0493    1.5282 H         1 RES1    0.0000
     23 C10        3.7484    4.3875    2.9641 C.ar      1 RES1    0.0000
     24 C11        4.6004    4.4843    4.0787 C.ar      1 RES1    0.0000
     25 H8         4.4113    4.0046    4.8767 H         1 RES1    0.0000
     26 C12        5.7247    5.2962    3.9887 C.ar      1 RES1    0.0000
     27 H9         6.3045    5.3683    4.7376 H         1 RES1    0.0000
     28 C13        6.0196    6.0004    2.8391 C.ar      1 RES1    0.0000
     29 H10        6.8017    6.5371    2.7853 H         1 RES1    0.0000
     30 C14        5.1516    5.9071    1.7630 C.ar      1 RES1    0.0000
     31 H11        5.3366    6.3968    0.9697 H         1 RES1    0.0000
     32 C15        4.0158    5.1112    1.8261 C.ar      1 RES1    0.0000
     33 H12        3.4239    5.0667    1.0842 H         1 RES1    0.0000
     34 C16        2.3977    2.4720    0.7606 C.3       1 RES1    0.0000
     35 C17        1.6037    2.3239   -0.4825 C.3       1 RES1    0.0000
     36 H13        1.7479    1.5104   -1.0270 H         1 RES1    0.0000
     37 H14        0.6732    2.6619   -0.4779 H         1 RES1    0.0000
     38 C18        3.4493    1.4732    1.0854 C.3       1 RES1    0.0000
     39 H15        3.7189    1.0060    0.2676 H         1 RES1    0.0000
     40 H16        3.0968    0.8267    1.7303 H         1 RES1    0.0000
     41 H17        4.2259    1.9303    1.4709 H         1 RES1    0.0000
@<TRIPOS>BOND
     1    1    4 2
     2    2    4 2
     3    3   34 1
     4    4    7 1
     5    5    6 1
     6    6   21 1
     7    7    8 ar
     8    8    9 1
     9   10    8 ar
    10   11   10 1
    11   12   10 ar
    12   13   12 ar
    13   14   13 1
    14   15    7 ar
    15   16   15 1
    16   17    5 2
    17   18   17 1
    18   19   18 1
    19   20   18 1
    20   21   18 1
    21   22   21 1
    22   23    6 1
    23   24   23 ar
    24   25   24 1
    25   26   24 ar
    26   27   26 1
    27   28   26 ar
    28   29   28 1
    29   30   28 ar
    30   31   30 1
    31   32   23 ar
    32   33   32 1
    33   34   21 1
    34   35    3 1
    35   36   35 1
    36   37   35 1
    37   38   34 1
    38   39   38 1
    39   40   38 1
    40   41   38 1
    41   12   17 1
    42   13   15 ar
    43   30   32 ar
    44   34   35 1
@<TRIPOS>SUBSTRUCTURE
     1 RES1 1

@<TRIPOS>CRYSIN
   6.2053   10.8579   11.8305  98.4310  91.5490 101.2230   2 1

