# MOL2 file generated by ConQuest
# Please check atom types

@<TRIPOS>MOLECULE
EQIKUL
    44    44     2
SMALL
NO_CHARGES
****
Generated from CSD

@<TRIPOS>ATOM
      1 C1        -0.7294    8.7963    5.9027 C.ar      1 RES1    0.0000
      2 C2        -0.3680    7.7243    5.0952 C.ar      1 RES1    0.0000
      3 H1        -0.9194    6.9541    5.0270 H         1 RES1    0.0000
      4 C3         0.8183    7.8157    4.3950 C.ar      1 RES1    0.0000
      5 H2         1.0990    7.0891    3.8521 H         1 RES1    0.0000
      6 C4         1.6155    8.9681    4.4741 C.ar      1 RES1    0.0000
      7 C5         1.2309   10.0192    5.3152 C.ar      1 RES1    0.0000
      8 H3         1.7784   10.7914    5.3925 H         1 RES1    0.0000
      9 C6         0.0518    9.9309    6.0355 C.ar      1 RES1    0.0000
     10 H4        -0.2160   10.6376    6.6111 H         1 RES1    0.0000
     11 C7         2.8518    9.0832    3.6829 C.2       1 RES1    0.0000
     12 C8         3.6070   10.3656    3.4783 C.3       1 RES1    0.0000
     13 H5         3.9665   10.7120    4.3331 H         1 RES1    0.0000
     14 H6         3.0351   11.0575    3.0609 H         1 RES1    0.0000
     15 C9         4.7416    9.9249    2.5289 C.3       1 RES1    0.0000
     16 H7         5.6300   10.0500    2.9718 H         1 RES1    0.0000
     17 C10        5.4223    7.5218    2.0324 C.ar      1 RES1    0.0000
     18 C11        5.2512    6.1779    2.3871 C.ar      1 RES1    0.0000
     19 H8         4.4783    5.9059    2.8672 H         1 RES1    0.0000
     20 C12        6.2100    5.2488    2.0361 C.ar      1 RES1    0.0000
     21 H9         6.0837    4.3386    2.2780 H         1 RES1    0.0000
     22 C13        7.3560    5.6091    1.3377 C.ar      1 RES1    0.0000
     23 H10        8.0122    4.9620    1.1076 H         1 RES1    0.0000
     24 C14        7.5121    6.9432    0.9867 C.ar      1 RES1    0.0000
     25 H11        8.2812    7.2072    0.4947 H         1 RES1    0.0000
     26 C15        6.5774    7.8951    1.3359 C.ar      1 RES1    0.0000
     27 H12        6.7176    8.8053    1.1031 H         1 RES1    0.0000
     28 C16        4.6906   10.7120    1.2304 C.3       1 RES1    0.0000
     29 C17        5.9008   11.3860    0.7348 C.3       1 RES1    0.0000
     30 H13        6.7603   11.1835    1.1840 H         1 RES1    0.0000
     31 H14        5.9680   11.5577   -0.2383 H         1 RES1    0.0000
     32 C18        3.5710   10.3964    0.2828 C.3       1 RES1    0.0000
     33 H15        2.8466    9.9507    0.7693 H         1 RES1    0.0000
     34 H16        3.9007    9.8058   -0.4265 H         1 RES1    0.0000
     35 H17        3.2348   11.2272   -0.1137 H         1 RES1    0.0000
     36 N1        -2.0059    8.7388    6.6105 N.pl3     1 RES1    0.0000
     37 N2         3.3562    8.0619    3.0809 N.2       1 RES1    0.0000
     38 N3         4.4572    8.4794    2.3562 N.pl3     1 RES1    0.0000
     39 O1        -2.2480    9.5965    7.4625 O.2       1 RES1    0.0000
     40 O2        -2.8001    7.8430    6.3224 O.2       1 RES1    0.0000
     41 O3         4.9007   12.1246    1.4847 O.3       1 RES1    0.0000
     42 H18        3.8082   10.7051   -0.6166 Du        2 SUP2    0.0000
     43 H19        2.7541   10.8510    0.5793 Du        2 SUP2    0.0000
     44 H20        3.4199    9.4286    0.2664 Du        2 SUP2    0.0000
@<TRIPOS>BOND
     1    1    2 ar
     2    2    3 1
     3    4    2 ar
     4    5    4 1
     5    6    4 ar
     6    7    6 ar
     7    8    7 1
     8    9    1 ar
     9   10    9 1
    10   11    6 1
    11   12   11 1
    12   13   12 1
    13   14   12 1
    14   15   12 1
    15   16   15 1
    16   17   18 ar
    17   18   19 1
    18   20   18 ar
    19   21   20 1
    20   22   20 ar
    21   23   22 1
    22   24   22 ar
    23   25   24 1
    24   26   17 ar
    25   27   26 1
    26   28   15 1
    27   29   28 1
    28   30   29 1
    29   31   29 1
    30   32   28 1
    31   33   32 1
    32   34   32 1
    33   35   32 1
    34   36    1 1
    35   37   11 2
    36   38   15 1
    37   39   36 2
    38   40   36 2
    39   41   28 1
    40    7    9 ar
    41   17   38 1
    42   24   26 ar
    43   29   41 1
    44   37   38 1
@<TRIPOS>SUBSTRUCTURE
     1 RES1 1
     2 SUP2 42

@<TRIPOS>CRYSIN
  17.0933    9.9259    9.3363  90.0000 103.0910  90.0000  14 1

