# MOL2 file generated by ConQuest
# Please check atom types

@<TRIPOS>MOLECULE
EQOGEW
    80    88     2
SMALL
NO_CHARGES
****
Generated from CSD

@<TRIPOS>ATOM
      1 N1         7.3097    9.1633    1.5803 N.3       1 RES1    0.0000
      2 O1         8.1708    8.1533    0.9736 O.3       1 RES1    0.0000
      3 C1         8.3536    8.4827   -0.4276 C.3       1 RES1    0.0000
      4 H1         8.0749    7.7434   -0.9904 H         1 RES1    0.0000
      5 H2         9.2845    8.6809   -0.6124 H         1 RES1    0.0000
      6 C2         7.4839    9.7088   -0.6851 C.3       1 RES1    0.0000
      7 H3         7.0737    9.6964   -1.5753 H         1 RES1    0.0000
      8 C3         8.2562   10.9763   -0.4254 C.2       1 RES1    0.0000
      9 O2         8.2964   11.8979   -1.2146 O.2       1 RES1    0.0000
     10 C4         8.9664   10.9873    0.8947 C.3       1 RES1    0.0000
     11 H4         9.1137   11.9062    1.1645 H         1 RES1    0.0000
     12 H5         9.8347   10.5676    0.7875 H         1 RES1    0.0000
     13 C5         8.1920   10.2546    2.0158 C.3       1 RES1    0.0000
     14 H6         8.8353    9.8922    2.6447 H         1 RES1    0.0000
     15 H7         7.6561   10.9071    2.4925 H         1 RES1    0.0000
     16 C6         6.4354    9.5542    0.4534 C.3       1 RES1    0.0000
     17 C7         5.4303    8.4239    0.1764 C.3       1 RES1    0.0000
     18 H8         5.9313    7.6227   -0.0841 H         1 RES1    0.0000
     19 C8         4.6393    8.1062    1.4541 C.3       1 RES1    0.0000
     20 H9         3.8682    7.5638    1.2245 H         1 RES1    0.0000
     21 H10        5.1980    7.5883    2.0544 H         1 RES1    0.0000
     22 C9         4.1791    9.3416    2.1564 C.2       1 RES1    0.0000
     23 H11        3.5583    9.2560    2.8441 H         1 RES1    0.0000
     24 C10        4.6104   10.5472    1.8467 C.2       1 RES1    0.0000
     25 H12        4.2843   11.2708    2.3322 H         1 RES1    0.0000
     26 C11        5.6054   10.8161    0.7464 C.3       1 RES1    0.0000
     27 H13        6.2096   11.5323    1.0336 H         1 RES1    0.0000
     28 C12        4.8879   11.2573   -0.5387 C.3       1 RES1    0.0000
     29 H14        4.2262   11.9298   -0.3134 H         1 RES1    0.0000
     30 H15        5.5342   11.6672   -1.1344 H         1 RES1    0.0000
     31 C13        4.2054   10.1255   -1.2642 C.ar      1 RES1    0.0000
     32 C14        4.4971    8.7932   -0.9583 C.ar      1 RES1    0.0000
     33 C15        3.8814    7.7772   -1.6961 C.ar      1 RES1    0.0000
     34 H16        4.0760    6.8884   -1.5028 H         1 RES1    0.0000
     35 C16        2.9891    8.0742   -2.7087 C.ar      1 RES1    0.0000
     36 H17        2.5829    7.3889   -3.1873 H         1 RES1    0.0000
     37 C17        2.7012    9.3890   -3.0082 C.ar      1 RES1    0.0000
     38 H18        2.1044    9.5927   -3.6913 H         1 RES1    0.0000
     39 C18        3.3041   10.3992   -2.2898 C.ar      1 RES1    0.0000
     40 H19        3.1038   11.2845   -2.4946 H         1 RES1    0.0000
     41 N2         2.5331    6.3254    8.3533 N.3       2 RES2    0.0000
     42 O3         1.6621    5.2949    7.7937 O.3       2 RES2    0.0000
     43 C19        1.4751    5.5605    6.3819 C.3       2 RES2    0.0000
     44 H20        0.5431    5.7501    6.1905 H         2 RES2    0.0000
     45 H21        1.7534    4.7976    5.8512 H         2 RES2    0.0000
     46 C20        2.3438    6.7743    6.0726 C.3       2 RES2    0.0000
     47 H22        2.7484    6.7269    5.1812 H         2 RES2    0.0000
     48 C21        1.5591    8.0446    6.2810 C.2       2 RES2    0.0000
     49 O4         1.4909    8.9266    5.4504 O.2       2 RES2    0.0000
     50 C22        0.8634    8.1062    7.6077 C.3       2 RES2    0.0000
     51 H23       -0.0022    7.6757    7.5284 H         2 RES2    0.0000
     52 H24        0.7098    9.0359    7.8377 H         2 RES2    0.0000
     53 C23        1.6525    7.4336    8.7509 C.3       2 RES2    0.0000
     54 H25        2.1924    8.1108    9.1884 H         2 RES2    0.0000
     55 H26        1.0184    7.1005    9.4048 H         2 RES2    0.0000
     56 C24        3.3976    6.6673    7.2055 C.3       2 RES2    0.0000
     57 C25        4.3979    5.5197    6.9776 C.3       2 RES2    0.0000
     58 H27        3.8954    4.7082    6.7569 H         2 RES2    0.0000
     59 C26        5.1894    5.2652    8.2714 C.3       2 RES2    0.0000
     60 H28        4.6283    4.7806    8.8964 H         2 RES2    0.0000
     61 H29        5.9587    4.7108    8.0695 H         2 RES2    0.0000
     62 C27        5.6532    6.5307    8.9130 C.2       2 RES2    0.0000
     63 H30        6.2717    6.4767    9.6052 H         2 RES2    0.0000
     64 C28        5.2258    7.7250    8.5430 C.2       2 RES2    0.0000
     65 H31        5.5564    8.4702    8.9905 H         2 RES2    0.0000
     66 C29        4.2307    7.9418    7.4337 C.3       2 RES2    0.0000
     67 H32        3.6293    8.6738    7.6849 H         2 RES2    0.0000
     68 C30        4.9424    8.3097    6.1209 C.3       2 RES2    0.0000
     69 H33        4.2919    8.6812    5.5052 H         2 RES2    0.0000
     70 H34        5.6015    8.9976    6.3042 H         2 RES2    0.0000
     71 C31        5.6286    7.1442    5.4588 C.ar      2 RES2    0.0000
     72 C32        5.3349    5.8312    5.8280 C.ar      2 RES2    0.0000
     73 C33        5.9499    4.7818    5.1375 C.ar      2 RES2    0.0000
     74 H35        5.7545    3.9031    5.3711 H         2 RES2    0.0000
     75 C34        6.8407    5.0302    4.1167 C.ar      2 RES2    0.0000
     76 H36        7.2451    4.3215    3.6701 H         2 RES2    0.0000
     77 C35        7.1334    6.3250    3.7576 C.ar      2 RES2    0.0000
     78 H37        7.7325    6.4945    3.0671 H         2 RES2    0.0000
     79 C36        6.5320    7.3735    4.4274 C.ar      2 RES2    0.0000
     80 H38        6.7344    8.2479    4.1838 H         2 RES2    0.0000
@<TRIPOS>BOND
     1    1    2 1
     2    2    3 1
     3    3    4 1
     4    5    3 1
     5    6    3 1
     6    7    6 1
     7    8    6 1
     8    9    8 2
     9   10    8 1
    10   11   10 1
    11   12   10 1
    12   13    1 1
    13   14   13 1
    14   15   13 1
    15   16    1 1
    16   17   16 1
    17   18   17 1
    18   19   17 1
    19   20   19 1
    20   21   19 1
    21   22   19 1
    22   23   22 1
    23   24   22 2
    24   25   24 1
    25   26   16 1
    26   27   26 1
    27   28   26 1
    28   29   28 1
    29   30   28 1
    30   31   28 1
    31   32   17 1
    32   33   32 ar
    33   34   33 1
    34   35   33 ar
    35   36   35 1
    36   37   35 ar
    37   38   37 1
    38   39   31 ar
    39   40   39 1
    40   41   42 1
    41   42   43 1
    42   43   44 1
    43   45   43 1
    44   46   43 1
    45   47   46 1
    46   48   46 1
    47   49   48 2
    48   50   48 1
    49   51   50 1
    50   52   50 1
    51   53   41 1
    52   54   53 1
    53   55   53 1
    54   56   41 1
    55   57   56 1
    56   58   57 1
    57   59   57 1
    58   60   59 1
    59   61   59 1
    60   62   59 1
    61   63   62 1
    62   64   62 2
    63   65   64 1
    64   66   56 1
    65   67   66 1
    66   68   66 1
    67   69   68 1
    68   70   68 1
    69   71   68 1
    70   72   57 1
    71   73   72 ar
    72   74   73 1
    73   75   73 ar
    74   76   75 1
    75   77   75 ar
    76   78   77 1
    77   79   71 ar
    78   80   79 1
    79    6   16 1
    80   10   13 1
    81   24   26 1
    82   31   32 ar
    83   37   39 ar
    84   46   56 1
    85   50   53 1
    86   64   66 1
    87   71   72 ar
    88   77   79 ar
@<TRIPOS>SUBSTRUCTURE
     1 RES1 1
     2 RES2 41

@<TRIPOS>CRYSIN
   7.9484   13.0733   14.7801 113.0510  90.1750  99.0080   2 1

