# MOL2 file generated by ConQuest
# Please check atom types

@<TRIPOS>MOLECULE
EQUKIK
   128   130     2
SMALL
NO_CHARGES
****
Generated from CSD

@<TRIPOS>ATOM
      1 O1         3.2549   12.3023   -1.5471 O.2       1 RES1    0.0000
      2 O2        -0.7259    7.9650   -2.9542 O.2       1 RES1    0.0000
      3 O3         2.2286   13.3188   -6.5910 O.2       2 RES2    0.0000
      4 O4         6.6236   16.5926   -2.4374 O.2       2 RES2    0.0000
      5 N1         3.0292   10.7139    0.0657 N.am      1 RES1    0.0000
      6 H1         3.4747   10.5622    0.8398 H         1 RES1    0.0000
      7 N2         0.1501    8.6178   -2.2824 N.3       1 RES1    0.0000
      8 N3         2.8850   13.1513   -4.4507 N.am      2 RES2    0.0000
      9 H2         2.7305   12.6877   -3.7466 H         2 RES2    0.0000
     10 N4         5.7544   15.8562   -3.0166 N.3       2 RES2    0.0000
     11 C1         3.5342   11.8217   -0.4576 C.2       1 RES1    0.0000
     12 C2         2.0087    9.8158   -0.5017 C.3       1 RES1    0.0000
     13 H3         1.7701    9.1638    0.1895 H         1 RES1    0.0000
     14 C3         2.5075    9.0504   -1.7032 C.3       1 RES1    0.0000
     15 H4         3.3405    8.6093   -1.4749 H         1 RES1    0.0000
     16 H5         2.6896    9.6745   -2.4224 H         1 RES1    0.0000
     17 C4         1.5085    8.0040   -2.1930 C.3       1 RES1    0.0000
     18 C5        -0.3865    9.6387   -1.3328 C.3       1 RES1    0.0000
     19 C6         0.7478   10.5578   -0.8871 C.3       1 RES1    0.0000
     20 H6         0.9534   11.1750   -1.6063 H         1 RES1    0.0000
     21 H7         0.4468   11.0802   -0.1270 H         1 RES1    0.0000
     22 C7         1.4512    6.7989   -1.2478 C.3       1 RES1    0.0000
     23 H8         0.7475    6.2089   -1.5245 H         1 RES1    0.0000
     24 H9         1.2826    7.1014   -0.3531 H         1 RES1    0.0000
     25 H10        2.2896    6.3329   -1.2747 H         1 RES1    0.0000
     26 C8         1.8965    7.5368   -3.5851 C.3       1 RES1    0.0000
     27 H11        1.2839    6.8582   -3.8779 H         1 RES1    0.0000
     28 H12        2.7864    7.1768   -3.5668 H         1 RES1    0.0000
     29 H13        1.8640    8.2785   -4.1934 H         1 RES1    0.0000
     30 C9        -1.0449    8.9233   -0.1432 C.3       1 RES1    0.0000
     31 H14       -0.3718    8.4658    0.3671 H         1 RES1    0.0000
     32 H15       -1.6866    8.2883   -0.4683 H         1 RES1    0.0000
     33 H16       -1.4864    9.5675    0.4134 H         1 RES1    0.0000
     34 C10       -1.4324   10.4498   -2.0768 C.3       1 RES1    0.0000
     35 H17       -1.0521   10.7956   -2.8885 H         1 RES1    0.0000
     36 H18       -1.7233   11.1799   -1.5245 H         1 RES1    0.0000
     37 H19       -2.1820    9.8885   -2.2878 H         1 RES1    0.0000
     38 C11        2.2011   12.7782   -5.5047 C.2       2 RES2    0.0000
     39 C12        3.8294   14.2576   -4.4130 C.3       2 RES2    0.0000
     40 H20        3.8561   14.6893   -5.2926 H         2 RES2    0.0000
     41 C13        3.4016   15.2688   -3.3730 C.3       2 RES2    0.0000
     42 H21        3.2656   14.8036   -2.5332 H         2 RES2    0.0000
     43 H22        2.5471   15.6402   -3.6421 H         2 RES2    0.0000
     44 C14        4.3716   16.4182   -3.1351 C.3       2 RES2    0.0000
     45 C15        6.2847   14.7812   -3.9102 C.3       2 RES2    0.0000
     46 C16        5.1993   13.7301   -4.0782 C.3       2 RES2    0.0000
     47 H23        5.4714   13.1182   -4.7801 H         2 RES2    0.0000
     48 H24        5.1379   13.2204   -3.2556 H         2 RES2    0.0000
     49 C17        4.3271   17.4440   -4.2784 C.3       2 RES2    0.0000
     50 H25        5.0589   18.0576   -4.1858 H         2 RES2    0.0000
     51 H26        3.4976   17.9263   -4.2440 H         2 RES2    0.0000
     52 H27        4.3973   16.9875   -5.1203 H         2 RES2    0.0000
     53 C18        4.0248   17.1130   -1.8216 C.3       2 RES2    0.0000
     54 H28        4.0997   16.4865   -1.0981 H         2 RES2    0.0000
     55 H29        3.1257   17.4472   -1.8636 H         2 RES2    0.0000
     56 H30        4.6316   17.8436   -1.6763 H         2 RES2    0.0000
     57 C19        7.4862   14.1620   -3.2083 C.3       2 RES2    0.0000
     58 H31        7.2407   13.9135   -2.3136 H         2 RES2    0.0000
     59 H32        8.2030   14.7987   -3.1781 H         2 RES2    0.0000
     60 H33        7.7708   13.3809   -3.6895 H         2 RES2    0.0000
     61 C20        6.7277   15.3773   -5.2549 C.3       2 RES2    0.0000
     62 H34        5.9548   15.6572   -5.7501 H         2 RES2    0.0000
     63 H35        7.2065   14.7136   -5.7577 H         2 RES2    0.0000
     64 H36        7.2981   16.1339   -5.0977 H         2 RES2    0.0000
     65 C1B        4.5668   12.4983    0.4576 C.2       1 RES1    0.0000
     66 O1B        4.8461   12.0177    1.5471 O.2       1 RES1    0.0000
     67 N1B        5.0718   13.6061   -0.0657 N.am      1 RES1    0.0000
     68 H1B        4.6263   13.7578   -0.8398 H         1 RES1    0.0000
     69 C2B        6.0923   14.5042    0.5017 C.3       1 RES1    0.0000
     70 H3B        6.3309   15.1562   -0.1895 H         1 RES1    0.0000
     71 C3B        5.5935   15.2696    1.7032 C.3       1 RES1    0.0000
     72 H4B        4.7605   15.7107    1.4749 H         1 RES1    0.0000
     73 H5B        5.4114   14.6455    2.4224 H         1 RES1    0.0000
     74 C4B        6.5925   16.3160    2.1930 C.3       1 RES1    0.0000
     75 N2B        7.9509   15.7022    2.2824 N.3       1 RES1    0.0000
     76 O2B        8.8269   16.3550    2.9542 O.2       1 RES1    0.0000
     77 C5B        8.4875   14.6813    1.3328 C.3       1 RES1    0.0000
     78 C6B        7.3532   13.7622    0.8871 C.3       1 RES1    0.0000
     79 H6B        7.1476   13.1450    1.6063 H         1 RES1    0.0000
     80 H7B        7.6542   13.2398    0.1270 H         1 RES1    0.0000
     81 C9B        9.1459   15.3967    0.1432 C.3       1 RES1    0.0000
     82 H14B       8.4728   15.8542   -0.3671 H         1 RES1    0.0000
     83 H15B       9.7876   16.0317    0.4683 H         1 RES1    0.0000
     84 H16B       9.5874   14.7525   -0.4134 H         1 RES1    0.0000
     85 C10B       9.5334   13.8702    2.0768 C.3       1 RES1    0.0000
     86 H17B       9.1531   13.5244    2.8885 H         1 RES1    0.0000
     87 H18B       9.8243   13.1401    1.5245 H         1 RES1    0.0000
     88 H19B      10.2830   14.4315    2.2878 H         1 RES1    0.0000
     89 C7B        6.6498   17.5211    1.2478 C.3       1 RES1    0.0000
     90 H8B        7.3535   18.1111    1.5245 H         1 RES1    0.0000
     91 H9B        6.8184   17.2186    0.3531 H         1 RES1    0.0000
     92 H10B       5.8114   17.9871    1.2747 H         1 RES1    0.0000
     93 C8B        6.2045   16.7832    3.5851 C.3       1 RES1    0.0000
     94 H11B       6.8171   17.4618    3.8779 H         1 RES1    0.0000
     95 H12B       5.3146   17.1432    3.5668 H         1 RES1    0.0000
     96 H13B       6.2370   16.0415    4.1934 H         1 RES1    0.0000
     97 C11B       1.3386   11.5418   -5.2614 C.2       2 RES2    0.0000
     98 O3B        1.3111   11.0012   -4.1751 O.2       2 RES2    0.0000
     99 N3B        0.6547   11.1687   -6.3154 N.am      2 RES2    0.0000
    100 H2B        0.8092   11.6323   -7.0195 H         2 RES2    0.0000
    101 C12B      -0.2897   10.0624   -6.3530 C.3       2 RES2    0.0000
    102 H20B      -0.3164    9.6307   -5.4735 H         2 RES2    0.0000
    103 C13B       0.1381    9.0512   -7.3930 C.3       2 RES2    0.0000
    104 H21B       0.2741    9.5164   -8.2328 H         2 RES2    0.0000
    105 H22B       0.9926    8.6798   -7.1239 H         2 RES2    0.0000
    106 C14B      -0.8319    7.9018   -7.6310 C.3       2 RES2    0.0000
    107 N4B       -2.2147    8.4638   -7.7494 N.3       2 RES2    0.0000
    108 O4B       -3.0839    7.7274   -8.3286 O.2       2 RES2    0.0000
    109 C15B      -2.7451    9.5388   -6.8558 C.3       2 RES2    0.0000
    110 C16B      -1.6596   10.5899   -6.6879 C.3       2 RES2    0.0000
    111 H23B      -1.9318   11.2018   -5.9859 H         2 RES2    0.0000
    112 H24B      -1.5982   11.0996   -7.5104 H         2 RES2    0.0000
    113 C19B      -3.9465   10.1580   -7.5578 C.3       2 RES2    0.0000
    114 H31B      -3.7010   10.4065   -8.4524 H         2 RES2    0.0000
    115 H32B      -4.6633    9.5213   -7.5879 H         2 RES2    0.0000
    116 H33B      -4.2311   10.9391   -7.0765 H         2 RES2    0.0000
    117 C20B      -3.1880    8.9427   -5.5111 C.3       2 RES2    0.0000
    118 H34B      -2.4151    8.6628   -5.0159 H         2 RES2    0.0000
    119 H35B      -3.6668    9.6064   -5.0084 H         2 RES2    0.0000
    120 H36B      -3.7584    8.1861   -5.6683 H         2 RES2    0.0000
    121 C17B      -0.7874    6.8760   -6.4876 C.3       2 RES2    0.0000
    122 H25B      -1.5193    6.2624   -6.5802 H         2 RES2    0.0000
    123 H26B       0.0421    6.3937   -6.5221 H         2 RES2    0.0000
    124 H27B      -0.8576    7.3325   -5.6457 H         2 RES2    0.0000
    125 C18B      -0.4851    7.2070   -8.9444 C.3       2 RES2    0.0000
    126 H28B      -0.5600    7.8335   -9.6679 H         2 RES2    0.0000
    127 H29B       0.4140    6.8728   -8.9024 H         2 RES2    0.0000
    128 H30B      -1.0919    6.4764   -9.0898 H         2 RES2    0.0000
@<TRIPOS>BOND
     1    1   11 2
     2    2    7 1
     3    3   38 2
     4    4   10 1
     5    5    6 1
     6    7   17 1
     7    8    9 1
     8   10   44 1
     9   11    5 1
    10   12    5 1
    11   13   12 1
    12   14   12 1
    13   15   14 1
    14   16   14 1
    15   17   14 1
    16   18    7 1
    17   19   12 1
    18   20   19 1
    19   21   19 1
    20   22   17 1
    21   23   22 1
    22   24   22 1
    23   25   22 1
    24   26   17 1
    25   27   26 1
    26   28   26 1
    27   29   26 1
    28   30   18 1
    29   31   30 1
    30   32   30 1
    31   33   30 1
    32   34   18 1
    33   35   34 1
    34   36   34 1
    35   37   34 1
    36   38    8 1
    37   39    8 1
    38   40   39 1
    39   41   39 1
    40   42   41 1
    41   43   41 1
    42   44   41 1
    43   45   10 1
    44   46   39 1
    45   47   46 1
    46   48   46 1
    47   49   44 1
    48   50   49 1
    49   51   49 1
    50   52   49 1
    51   53   44 1
    52   54   53 1
    53   55   53 1
    54   56   53 1
    55   57   45 1
    56   58   57 1
    57   59   57 1
    58   60   57 1
    59   61   45 1
    60   62   61 1
    61   63   61 1
    62   64   61 1
    63   65   11 1
    64   66   65 2
    65   67   65 1
    66   68   67 1
    67   69   67 1
    68   70   69 1
    69   71   69 1
    70   72   71 1
    71   73   71 1
    72   74   71 1
    73   75   74 1
    74   76   75 1
    75   77   75 1
    76   78   69 1
    77   79   78 1
    78   80   78 1
    79   81   77 1
    80   82   81 1
    81   83   81 1
    82   84   81 1
    83   85   77 1
    84   86   85 1
    85   87   85 1
    86   88   85 1
    87   89   74 1
    88   90   89 1
    89   91   89 1
    90   92   89 1
    91   93   74 1
    92   94   93 1
    93   95   93 1
    94   96   93 1
    95   97   38 1
    96   98   97 2
    97   99   97 1
    98  100   99 1
    99  101   99 1
   100  102  101 1
   101  103  101 1
   102  104  103 1
   103  105  103 1
   104  106  103 1
   105  107  106 1
   106  108  107 1
   107  109  107 1
   108  110  101 1
   109  111  110 1
   110  112  110 1
   111  113  109 1
   112  114  113 1
   113  115  113 1
   114  116  113 1
   115  117  109 1
   116  118  117 1
   117  119  117 1
   118  120  117 1
   119  121  106 1
   120  122  121 1
   121  123  121 1
   122  124  121 1
   123  125  106 1
   124  126  125 1
   125  127  125 1
   126  128  125 1
   127   18   19 1
   128   45   46 1
   129   77   78 1
   130  109  110 1
@<TRIPOS>SUBSTRUCTURE
     1 RES1 1
     2 RES2 3

@<TRIPOS>CRYSIN
   8.1010   24.3200   11.3330  90.0000 108.2000  90.0000  14 1

