# MOL2 file generated by ConQuest
# Please check atom types

@<TRIPOS>MOLECULE
EQUSUE
    63    67     1
SMALL
NO_CHARGES
****
Generated from CSD

@<TRIPOS>ATOM
      1 O1        13.9562   -1.1259   10.4227 O.3       1 RES1    0.0000
      2 O2        11.3382   -1.6981    9.8610 O.2       1 RES1    0.0000
      3 O3        13.3918    3.0116    8.1368 O.2       1 RES1    0.0000
      4 O4        14.1055    2.6507    6.1459 O.2       1 RES1    0.0000
      5 N1        13.8671    2.2823    7.2760 N.pl3     1 RES1    0.0000
      6 C1        14.1638    0.8566    7.6407 C.3       1 RES1    0.0000
      7 C2        15.2276    0.8148    8.7539 C.3       1 RES1    0.0000
      8 C3        14.6488    1.1065   10.1367 C.3       1 RES1    0.0000
      9 C4        13.4509    0.2120   10.4653 C.3       1 RES1    0.0000
     10 C5        12.3379    0.4077    9.3943 C.3       1 RES1    0.0000
     11 C6        12.8754    0.0885    7.9780 C.3       1 RES1    0.0000
     12 C7        16.4238    1.6682    8.3526 C.ar      1 RES1    0.0000
     13 C8        16.6951    2.9075    8.9154 C.ar      1 RES1    0.0000
     14 C9        17.7428    3.6812    8.4399 C.ar      1 RES1    0.0000
     15 C10       18.5230    3.2373    7.4057 C.ar      1 RES1    0.0000
     16 C11       18.2746    2.0130    6.8470 C.ar      1 RES1    0.0000
     17 C12       17.2468    1.2293    7.3220 C.ar      1 RES1    0.0000
     18 C13       12.8874    0.5492   11.8501 C.ar      1 RES1    0.0000
     19 C14       12.3021    1.7904   12.1005 C.ar      1 RES1    0.0000
     20 C15       11.7772    2.0915   13.3373 C.ar      1 RES1    0.0000
     21 C16       11.8218    1.1658   14.3530 C.ar      1 RES1    0.0000
     22 C17       12.4081   -0.0499   14.1284 C.ar      1 RES1    0.0000
     23 C18       12.9440   -0.3659   12.8925 C.ar      1 RES1    0.0000
     24 C19       11.1452   -0.5050    9.6483 C.2       1 RES1    0.0000
     25 C20        9.7547    0.0106    9.5800 C.ar      1 RES1    0.0000
     26 C21        9.3973    1.3172    9.8867 C.ar      1 RES1    0.0000
     27 C22        8.0582    1.6869    9.8700 C.ar      1 RES1    0.0000
     28 C23        7.0847    0.7768    9.5315 C.ar      1 RES1    0.0000
     29 C24        7.4447   -0.4962    9.1823 C.ar      1 RES1    0.0000
     30 C25        8.7548   -0.8877    9.2179 C.ar      1 RES1    0.0000
     31 C26       11.8152    0.1752    6.8894 C.ar      1 RES1    0.0000
     32 C27       10.9864    1.2711    6.7312 C.ar      1 RES1    0.0000
     33 C28       10.0085    1.2798    5.7428 C.ar      1 RES1    0.0000
     34 C29        9.8509    0.1926    4.9240 C.ar      1 RES1    0.0000
     35 C30       10.6649   -0.8840    5.0634 C.ar      1 RES1    0.0000
     36 C31       11.6503   -0.9039    6.0326 C.ar      1 RES1    0.0000
     37 H1        13.2584   -1.6271   10.3040 H         1 RES1    0.0000
     38 H2        14.5418    0.5237    6.8077 H         1 RES1    0.0000
     39 H3        15.5223   -0.0873    8.7634 H         1 RES1    0.0000
     40 H4        15.3579    0.9039   10.8341 H         1 RES1    0.0000
     41 H5        14.3993    2.0510   10.2161 H         1 RES1    0.0000
     42 H6        12.0620    1.3091    9.4536 H         1 RES1    0.0000
     43 H7        13.1750   -0.8291    7.9942 H         1 RES1    0.0000
     44 H8        16.1829    3.2354    9.6183 H         1 RES1    0.0000
     45 H9        17.8869    4.5072    8.8514 H         1 RES1    0.0000
     46 H10       19.2159    3.7591    7.0581 H         1 RES1    0.0000
     47 H11       18.8204    1.6894    6.1581 H         1 RES1    0.0000
     48 H12       17.0717    0.3927    6.9363 H         1 RES1    0.0000
     49 H13       12.2471    2.4250   11.3890 H         1 RES1    0.0000
     50 H14       11.3779    2.9113   13.4710 H         1 RES1    0.0000
     51 H15       11.4618    1.4027   15.1560 H         1 RES1    0.0000
     52 H16       12.4943   -0.6920   14.8199 H         1 RES1    0.0000
     53 H17       13.3656   -1.2343   12.7560 H         1 RES1    0.0000
     54 H18       10.1002    1.9575   10.1078 H         1 RES1    0.0000
     55 H19        7.7629    2.5559   10.1191 H         1 RES1    0.0000
     56 H20        6.1883    1.0535    9.5439 H         1 RES1    0.0000
     57 H21        6.7873   -1.1221    8.9190 H         1 RES1    0.0000
     58 H22        9.0051   -1.7705    9.0205 H         1 RES1    0.0000
     59 H23       11.0635    1.9886    7.2837 H         1 RES1    0.0000
     60 H24        9.4664    2.0323    5.7092 H         1 RES1    0.0000
     61 H25        9.1575    0.2182    4.2723 H         1 RES1    0.0000
     62 H26       10.6436   -1.6146    4.5024 H         1 RES1    0.0000
     63 H27       12.2423   -1.6832    6.1445 H         1 RES1    0.0000
@<TRIPOS>BOND
     1    1    9 1
     2    2   24 2
     3    3    5 2
     4    4    5 2
     5    5    6 1
     6    6    7 1
     7    7    8 1
     8    8    9 1
     9    9   10 1
    10   10   11 1
    11   11    6 1
    12   12    7 1
    13   13   12 ar
    14   14   13 ar
    15   15   14 ar
    16   16   15 ar
    17   17   12 ar
    18   18    9 1
    19   19   18 ar
    20   20   19 ar
    21   21   20 ar
    22   22   21 ar
    23   23   18 ar
    24   24   10 1
    25   25   24 1
    26   26   25 ar
    27   27   26 ar
    28   28   27 ar
    29   29   28 ar
    30   30   25 ar
    31   31   11 1
    32   32   31 ar
    33   33   32 ar
    34   34   33 ar
    35   35   34 ar
    36   36   31 ar
    37   37    1 1
    38   38    6 1
    39   39    7 1
    40   40    8 1
    41   41    8 1
    42   42   10 1
    43   43   11 1
    44   44   13 1
    45   45   14 1
    46   46   15 1
    47   47   16 1
    48   48   17 1
    49   49   19 1
    50   50   20 1
    51   51   21 1
    52   52   22 1
    53   53   23 1
    54   54   26 1
    55   55   27 1
    56   56   28 1
    57   57   29 1
    58   58   30 1
    59   59   32 1
    60   60   33 1
    61   61   34 1
    62   62   35 1
    63   63   36 1
    64   16   17 ar
    65   22   23 ar
    66   29   30 ar
    67   35   36 ar
@<TRIPOS>SUBSTRUCTURE
     1 RES1 1

@<TRIPOS>CRYSIN
  17.5540    6.2340   22.6280  90.0000  94.5400  90.0000  14 1

