# MOL2 file generated by ConQuest
# Please check atom types

@<TRIPOS>MOLECULE
EQUTAL
    98   102     2
SMALL
NO_CHARGES
****
Generated from CSD

@<TRIPOS>ATOM
      1 O1         3.7266    2.6291   15.5034 O.2       1 RES1    0.0000
      2 O2         2.6127    0.8393   15.7561 O.2       1 RES1    0.0000
      3 O3         0.3222    6.2950   17.8292 O.2       1 RES1    0.0000
      4 O4         0.8699    6.1924   14.9690 O.3       1 RES1    0.0000
      5 H1         0.8347    6.6072   15.7487 H         1 RES1    0.0000
      6 O5         2.4233   10.7878   16.0088 O.2       2 RES2    0.0000
      7 O6         1.3243    8.9659   16.0494 O.2       2 RES2    0.0000
      8 O7         4.7807    5.4009   13.6316 O.2       2 RES2    0.0000
      9 O8         4.1772    5.4106   16.4668 O.3       2 RES2    0.0000
     10 H2         4.2650    5.0057   15.8016 H         2 RES2    0.0000
     11 N1         2.6790    2.0244   15.5684 N.pl3     1 RES1    0.0000
     12 N2         2.3695    9.5870   16.0691 N.pl3     2 RES2    0.0000
     13 C1        -0.1877    5.2325   15.0416 C.3       1 RES1    0.0000
     14 C2        -0.1473    4.4605   16.3879 C.3       1 RES1    0.0000
     15 H3        -0.8471    3.7742   16.3667 H         1 RES1    0.0000
     16 C3         1.2152    3.7542   16.5828 C.3       1 RES1    0.0000
     17 H4         1.9226    4.4297   16.5254 H         1 RES1    0.0000
     18 C4         1.3832    2.7821   15.4062 C.3       1 RES1    0.0000
     19 H5         0.6404    2.1431   15.4164 H         1 RES1    0.0000
     20 C5         1.3931    3.5029   14.0542 C.3       1 RES1    0.0000
     21 H6         2.1187    4.1613   14.0661 H         1 RES1    0.0000
     22 C6         0.0709    4.2563   13.9063 C.3       1 RES1    0.0000
     23 H7         0.0774    4.7435   13.0671 H         1 RES1    0.0000
     24 H8        -0.6552    3.6150   13.8714 H         1 RES1    0.0000
     25 C7         1.6396    2.5558   12.8995 C.ar      1 RES1    0.0000
     26 C8         2.7630    2.7186   12.1179 C.ar      1 RES1    0.0000
     27 H9         3.3692    3.3933   12.3200 H         1 RES1    0.0000
     28 C9         2.9976    1.8896   11.0381 C.ar      1 RES1    0.0000
     29 H10        3.7624    2.0057   10.5231 H         1 RES1    0.0000
     30 C10        2.1073    0.8967   10.7242 C.ar      1 RES1    0.0000
     31 H11        2.2601    0.3481    9.9898 H         1 RES1    0.0000
     32 C11        0.9851    0.7149   11.4997 C.ar      1 RES1    0.0000
     33 H12        0.3820    0.0375   11.2935 H         1 RES1    0.0000
     34 C12        0.7507    1.5381   12.5856 C.ar      1 RES1    0.0000
     35 H13       -0.0070    1.4079   13.1094 H         1 RES1    0.0000
     36 C13        1.3422    3.0485   17.9158 C.ar      1 RES1    0.0000
     37 C14        2.3874    3.3613   18.7632 C.ar      1 RES1    0.0000
     38 H14        3.0041    4.0099   18.5107 H         1 RES1    0.0000
     39 C15        2.5301    2.7175   19.9888 C.ar      1 RES1    0.0000
     40 H15        3.2354    2.9438   20.5510 H         1 RES1    0.0000
     41 C16        1.6395    1.7577   20.3694 C.ar      1 RES1    0.0000
     42 H16        1.7408    1.3252   21.1859 H         1 RES1    0.0000
     43 C17        0.5990    1.4344   19.5437 C.ar      1 RES1    0.0000
     44 H17       -0.0120    0.7836   19.8039 H         1 RES1    0.0000
     45 C18        0.4496    2.0674   18.3234 C.ar      1 RES1    0.0000
     46 H18       -0.2581    1.8325   17.7678 H         1 RES1    0.0000
     47 C19       -1.5288    5.9291   14.8428 C.3       1 RES1    0.0000
     48 H19       -1.6796    6.5447   15.5646 H         1 RES1    0.0000
     49 H20       -2.2306    5.2742   14.8301 H         1 RES1    0.0000
     50 H21       -1.5217    6.4074   14.0111 H         1 RES1    0.0000
     51 C20       -0.4326    5.3925   17.5521 C.2       1 RES1    0.0000
     52 C21       -1.6962    5.1651   18.3151 C.3       1 RES1    0.0000
     53 H22       -1.7644    5.8111   19.0229 H         1 RES1    0.0000
     54 H23       -1.6895    4.2815   18.6885 H         1 RES1    0.0000
     55 H24       -2.4481    5.2570   17.7255 H         1 RES1    0.0000
     56 C22        5.2354    6.3708   16.4361 C.3       2 RES2    0.0000
     57 C23        5.1971    7.2072   15.1351 C.3       2 RES2    0.0000
     58 H25        5.8935    7.8949   15.1942 H         2 RES2    0.0000
     59 C24        3.8381    7.9155   14.9726 C.3       2 RES2    0.0000
     60 H26        3.1328    7.2346   14.9973 H         2 RES2    0.0000
     61 C25        3.6658    8.8319   16.1959 C.3       2 RES2    0.0000
     62 H27        4.4043    9.4760   16.2143 H         2 RES2    0.0000
     63 C26        3.6575    8.0542   17.5155 C.3       2 RES2    0.0000
     64 H28        2.9280    7.4001   17.4821 H         2 RES2    0.0000
     65 C27        4.9777    7.2949   17.6239 C.3       2 RES2    0.0000
     66 H29        4.9722    6.7679   18.4387 H         2 RES2    0.0000
     67 H30        5.7051    7.9339   17.6895 H         2 RES2    0.0000
     68 C28        3.7157    8.6767   13.6680 C.ar      2 RES2    0.0000
     69 C29        2.7438    8.3119   12.7687 C.ar      2 RES2    0.0000
     70 H31        2.1655    7.6124   12.9719 H         2 RES2    0.0000
     71 C30        2.6188    8.9797   11.5596 C.ar      2 RES2    0.0000
     72 H32        1.9659    8.7159   10.9528 H         2 RES2    0.0000
     73 C31        3.4351   10.0083   11.2571 C.ar      2 RES2    0.0000
     74 H33        3.3416   10.4485   10.4427 H         2 RES2    0.0000
     75 C32        4.4008   10.4090   12.1414 C.ar      2 RES2    0.0000
     76 H34        4.9569   11.1243   11.9327 H         2 RES2    0.0000
     77 C33        4.5442    9.7403   13.3509 C.ar      2 RES2    0.0000
     78 H35        5.2007   10.0099   13.9518 H         2 RES2    0.0000
     79 C34        3.4154    8.9766   18.6929 C.ar      2 RES2    0.0000
     80 C35        2.2689    8.8370   19.4557 C.ar      2 RES2    0.0000
     81 H36        1.6591    8.1665   19.2493 H         2 RES2    0.0000
     82 C36        2.0188    9.6846   20.5216 C.ar      2 RES2    0.0000
     83 H37        1.2447    9.5759   21.0251 H         2 RES2    0.0000
     84 C37        2.9013   10.6815   20.8392 C.ar      2 RES2    0.0000
     85 H38        2.7247   11.2570   21.5478 H         2 RES2    0.0000
     86 C38        4.0545   10.8260   20.0997 C.ar      2 RES2    0.0000
     87 H39        4.6663   11.4911   20.3203 H         2 RES2    0.0000
     88 C39        4.3056    9.9857   19.0330 C.ar      2 RES2    0.0000
     89 H40        5.0828   10.0973   18.5340 H         2 RES2    0.0000
     90 C40        6.5710    5.6695   16.6004 C.3       2 RES2    0.0000
     91 H41        6.7236    5.0916   15.8503 H         2 RES2    0.0000
     92 H42        6.5624    5.1493   17.4080 H         2 RES2    0.0000
     93 H43        7.2719    6.3231   16.6482 H         2 RES2    0.0000
     94 C41        5.4866    6.3423   13.9093 C.2       2 RES2    0.0000
     95 C42        6.6747    6.7071   13.0843 C.3       2 RES2    0.0000
     96 H44        6.7524    6.0952   12.3475 H         2 RES2    0.0000
     97 H45        7.4656    6.6602   13.6259 H         2 RES2    0.0000
     98 H46        6.5686    7.5999   12.7475 H         2 RES2    0.0000
@<TRIPOS>BOND
     1    1   11 2
     2    2   11 2
     3    3   51 2
     4    4    5 1
     5    6   12 2
     6    7   12 2
     7    8   94 2
     8    9   10 1
     9   11   18 1
    10   12   61 1
    11   13    4 1
    12   14   13 1
    13   15   14 1
    14   16   14 1
    15   17   16 1
    16   18   16 1
    17   19   18 1
    18   20   18 1
    19   21   20 1
    20   22   13 1
    21   23   22 1
    22   24   22 1
    23   25   20 1
    24   26   25 ar
    25   27   26 1
    26   28   26 ar
    27   29   28 1
    28   30   28 ar
    29   31   30 1
    30   32   30 ar
    31   33   32 1
    32   34   25 ar
    33   35   34 1
    34   36   16 1
    35   37   36 ar
    36   38   37 1
    37   39   37 ar
    38   40   39 1
    39   41   39 ar
    40   42   41 1
    41   43   41 ar
    42   44   43 1
    43   45   36 ar
    44   46   45 1
    45   47   13 1
    46   48   47 1
    47   49   47 1
    48   50   47 1
    49   51   14 1
    50   52   51 1
    51   53   52 1
    52   54   52 1
    53   55   52 1
    54   56    9 1
    55   57   56 1
    56   58   57 1
    57   59   57 1
    58   60   59 1
    59   61   59 1
    60   62   61 1
    61   63   61 1
    62   64   63 1
    63   65   56 1
    64   66   65 1
    65   67   65 1
    66   68   59 1
    67   69   68 ar
    68   70   69 1
    69   71   69 ar
    70   72   71 1
    71   73   71 ar
    72   74   73 1
    73   75   73 ar
    74   76   75 1
    75   77   68 ar
    76   78   77 1
    77   79   63 1
    78   80   79 ar
    79   81   80 1
    80   82   80 ar
    81   83   82 1
    82   84   82 ar
    83   85   84 1
    84   86   84 ar
    85   87   86 1
    86   88   79 ar
    87   89   88 1
    88   90   56 1
    89   91   90 1
    90   92   90 1
    91   93   90 1
    92   94   57 1
    93   95   94 1
    94   96   95 1
    95   97   95 1
    96   98   95 1
    97   20   22 1
    98   32   34 ar
    99   43   45 ar
   100   63   65 1
   101   75   77 ar
   102   86   88 ar
@<TRIPOS>SUBSTRUCTURE
     1 RES1 1
     2 RES2 6

@<TRIPOS>CRYSIN
  11.6335   15.6087   21.6113  90.0000 101.6676  90.0000 231 1

