# MOL2 file generated by ConQuest
# Please check atom types

@<TRIPOS>MOLECULE
EQUZIZ
    84    86     2
SMALL
NO_CHARGES
****
Generated from CSD

@<TRIPOS>ATOM
      1 O1         0.7300   -1.5297    9.5821 O.2       1 RES1    0.0000
      2 O2         1.4427   -0.6603    7.6676 O.3       1 RES1    0.0000
      3 O3         5.2014    2.4626    7.5575 O.3       1 RES1    0.0000
      4 O4         6.2742    2.9326    9.4512 O.2       1 RES1    0.0000
      5 O5         2.0588   -0.0890   21.6227 O.2       2 RES2    0.0000
      6 O6         1.3688   -1.0509   23.4989 O.3       2 RES2    0.0000
      7 O7        -2.2524   -4.3242   23.3448 O.3       2 RES2    0.0000
      8 O8        -3.2851   -4.7865   21.4273 O.2       2 RES2    0.0000
      9 O9        -0.3075   -0.8051   13.1863 O.2       2 RES2    0.0000
     10 O10        2.7870    0.3316   17.9664 O.2       1 RES1    0.0000
     11 N1         3.9136    0.5845   17.4121 N.3       1 RES1    0.0000
     12 N2        -1.0276   -1.7195   13.6907 N.3       2 RES2    0.0000
     13 C1         1.4862   -0.7895    8.9438 C.2       1 RES1    0.0000
     14 C2         2.5429   -0.0048    9.6330 C.ar      1 RES1    0.0000
     15 C3         4.4343    1.4655    9.5618 C.ar      1 RES1    0.0000
     16 C4         5.3605    2.3369    8.8121 C.2       1 RES1    0.0000
     17 C5         3.6608    0.5971   11.6974 C.ar      1 RES1    0.0000
     18 C6         3.7745    0.5423   13.1757 C.ar      1 RES1    0.0000
     19 C7         3.9374    0.5505   15.9944 C.ar      1 RES1    0.0000
     20 C8         5.0573    0.8557   18.3375 C.3       1 RES1    0.0000
     21 C9         1.3318   -0.8933   22.2361 C.2       2 RES2    0.0000
     22 C10        0.3513   -1.7120   21.4773 C.ar      2 RES2    0.0000
     23 C11       -1.4356   -3.2961   21.3970 C.ar      2 RES2    0.0000
     24 C12       -2.3868   -4.2036   22.0938 C.2       2 RES2    0.0000
     25 C13       -0.6084   -2.3351   19.3402 C.ar      2 RES2    0.0000
     26 C14       -0.6773   -2.1982   17.8649 C.ar      2 RES2    0.0000
     27 C15       -0.9148   -1.9276   15.0902 C.ar      2 RES2    0.0000
     28 C16       -1.7998   -2.5143   12.7152 C.3       2 RES2    0.0000
     29 C17       -3.0769   -3.0589   13.3544 C.3       2 RES2    0.0000
     30 C18       -0.9045   -3.6304   12.1988 C.3       2 RES2    0.0000
     31 C19       -2.1527   -1.5976   11.5687 C.3       2 RES2    0.0000
     32 C20        5.8611    2.0582   17.8649 C.3       1 RES1    0.0000
     33 C21        4.5433    1.1970   19.6477 C.3       1 RES1    0.0000
     34 C22        5.9724   -0.2893   18.3436 C.3       1 RES1    0.0000
     35 C23        5.0631    0.7002   15.2144 C.ar      1 RES1    0.0000
     36 C24        4.9730    0.7084   13.8376 C.ar      1 RES1    0.0000
     37 C25        2.6700    0.3413   13.9754 C.ar      1 RES1    0.0000
     38 C26        2.7488    0.3499   15.3461 C.ar      1 RES1    0.0000
     39 C27        4.5406    1.3695   10.9416 C.ar      1 RES1    0.0000
     40 C28        3.4229    0.7685    8.8999 C.ar      1 RES1    0.0000
     41 C29        2.6595   -0.0996   11.0143 C.ar      1 RES1    0.0000
     42 C30       -0.6132   -0.8342   15.8717 C.ar      2 RES2    0.0000
     43 C31       -0.4926   -0.9722   17.2515 C.ar      2 RES2    0.0000
     44 C32       -0.9365   -3.2861   17.0592 C.ar      2 RES2    0.0000
     45 C33       -1.0485   -3.1691   15.6794 C.ar      2 RES2    0.0000
     46 C34        0.3093   -1.5963   20.0960 C.ar      2 RES2    0.0000
     47 C35       -0.5083   -2.5696   22.1362 C.ar      2 RES2    0.0000
     48 C36       -1.4763   -3.1731   20.0203 C.ar      2 RES2    0.0000
     49 H1         0.8358   -1.1227    7.3671 H         1 RES1    0.0000
     50 H2         5.7732    2.9695    7.2581 H         1 RES1    0.0000
     51 H3         1.9395   -0.5582   23.8189 H         2 RES2    0.0000
     52 H4        -2.8196   -4.8427   23.6326 H         2 RES2    0.0000
     53 H5        -3.6118   -2.3289   13.6740 H         2 RES2    0.0000
     54 H6        -2.8468   -3.6333   14.0890 H         2 RES2    0.0000
     55 H7        -3.5736   -3.5582   12.7016 H         2 RES2    0.0000
     56 H8        -0.1213   -3.2509   11.7928 H         2 RES2    0.0000
     57 H9        -1.3822   -4.1484   11.5460 H         2 RES2    0.0000
     58 H10       -0.6446   -4.1966   12.9288 H         2 RES2    0.0000
     59 H11       -2.7137   -0.8864   11.8883 H         2 RES2    0.0000
     60 H12       -2.6202   -2.0945   10.8931 H         2 RES2    0.0000
     61 H13       -1.3490   -1.2267   11.1961 H         2 RES2    0.0000
     62 H14        6.2296    1.8769   16.9986 H         1 RES1    0.0000
     63 H15        6.5738    2.2307   18.4859 H         1 RES1    0.0000
     64 H16        5.2886    2.8272   17.8150 H         1 RES1    0.0000
     65 H17        3.9393    1.9390   19.5704 H         1 RES1    0.0000
     66 H18        5.2717    1.4362   20.2247 H         1 RES1    0.0000
     67 H19        4.0770    0.4422   20.0142 H         1 RES1    0.0000
     68 H20        6.2761   -0.4613   17.4484 H         1 RES1    0.0000
     69 H21        5.5145   -1.0626   18.6798 H         1 RES1    0.0000
     70 H22        6.7262   -0.0952   18.9055 H         1 RES1    0.0000
     71 H23        5.8939    0.7978   15.6218 H         1 RES1    0.0000
     72 H24        5.7480    0.8311   13.3393 H         1 RES1    0.0000
     73 H25        1.8447    0.1949   13.5740 H         1 RES1    0.0000
     74 H26        1.9767    0.2177   15.8475 H         1 RES1    0.0000
     75 H27        5.2201    1.8337   11.3748 H         1 RES1    0.0000
     76 H28        3.3420    0.8242    7.9760 H         1 RES1    0.0000
     77 H29        2.0644   -0.6339   11.4899 H         1 RES1    0.0000
     78 H30       -0.4886   -0.0017   15.4764 H         2 RES2    0.0000
     79 H31       -0.2839   -0.2290   17.7695 H         2 RES2    0.0000
     80 H32       -1.0394   -4.1237   17.4499 H         2 RES2    0.0000
     81 H33       -1.2119   -3.9207   15.1568 H         2 RES2    0.0000
     82 H34        0.8985   -1.0203   19.6658 H         2 RES2    0.0000
     83 H35       -0.4678   -2.6593   23.0616 H         2 RES2    0.0000
     84 H36       -2.1016   -3.6650   19.5401 H         2 RES2    0.0000
@<TRIPOS>BOND
     1    1   13 2
     2    2   13 1
     3    3   16 1
     4    4   16 2
     5    5   21 2
     6    6   21 1
     7    7   24 1
     8    8   24 2
     9    9   12 1
    10   10   11 1
    11   11   19 1
    12   12   27 1
    13   13   14 1
    14   14   40 ar
    15   15   16 1
    16   17   18 1
    17   18   36 ar
    18   19   35 ar
    19   20   11 1
    20   21   22 1
    21   22   46 ar
    22   23   24 1
    23   25   26 1
    24   26   43 ar
    25   27   42 ar
    26   28   12 1
    27   29   28 1
    28   30   28 1
    29   31   28 1
    30   32   20 1
    31   33   20 1
    32   34   20 1
    33   35   36 ar
    34   36   72 1
    35   37   18 ar
    36   38   19 ar
    37   39   15 ar
    38   40   15 ar
    39   41   14 ar
    40   42   43 ar
    41   43   79 1
    42   44   26 ar
    43   45   27 ar
    44   46   25 ar
    45   47   22 ar
    46   48   23 ar
    47   49    2 1
    48   50    3 1
    49   51    6 1
    50   52    7 1
    51   53   29 1
    52   54   29 1
    53   55   29 1
    54   56   30 1
    55   57   30 1
    56   58   30 1
    57   59   31 1
    58   60   31 1
    59   61   31 1
    60   62   32 1
    61   63   32 1
    62   64   32 1
    63   65   33 1
    64   66   33 1
    65   67   33 1
    66   68   34 1
    67   69   34 1
    68   70   34 1
    69   71   35 1
    70   73   37 1
    71   74   38 1
    72   75   39 1
    73   76   40 1
    74   77   41 1
    75   78   42 1
    76   80   44 1
    77   81   45 1
    78   82   46 1
    79   83   47 1
    80   84   48 1
    81   17   39 ar
    82   17   41 ar
    83   23   47 ar
    84   25   48 ar
    85   37   38 ar
    86   44   45 ar
@<TRIPOS>SUBSTRUCTURE
     1 RES1 1
     2 RES2 5

@<TRIPOS>CRYSIN
   9.7834   11.3596   15.4740  80.3011  81.2087  76.3420   2 1

