# MOL2 file generated by ConQuest
# Please check atom types

@<TRIPOS>MOLECULE
ERAWEB
    34    38     1
SMALL
NO_CHARGES
****
Generated from CSD

@<TRIPOS>ATOM
      1 N1        -0.4189   -0.3666    1.6701 N.3       1 RES1    0.0000
      2 O1         2.9780    2.3410    1.5339 O.3       1 RES1    0.0000
      3 C1         0.5758    0.3129    2.2961 C.2       1 RES1    0.0000
      4 H1         1.3707   -0.0787    2.5781 H         1 RES1    0.0000
      5 N2        -1.7912    4.1775    2.1449 N.pl3     1 RES1    0.0000
      6 O2        -0.6539    4.5861    2.2239 O.2       1 RES1    0.0000
      7 C2         0.2777    1.6356    2.4664 C.2       1 RES1    0.0000
      8 C3        -1.0402    1.7941    1.8894 C.ar      1 RES1    0.0000
      9 O3        -2.7448    4.8973    2.3710 O.2       1 RES1    0.0000
     10 C4        -2.0205    2.7980    1.7103 C.ar      1 RES1    0.0000
     11 C5        -3.2245    2.5469    1.1164 C.ar      1 RES1    0.0000
     12 H2        -3.8504    3.2306    1.0380 H         1 RES1    0.0000
     13 C6        -3.5219    1.2853    0.6300 C.ar      1 RES1    0.0000
     14 H3        -4.3391    1.1395    0.2111 H         1 RES1    0.0000
     15 C7        -2.6349    0.2513    0.7540 C.ar      1 RES1    0.0000
     16 H4        -2.8324   -0.5928    0.4196 H         1 RES1    0.0000
     17 C8        -1.4266    0.5084    1.3977 C.ar      1 RES1    0.0000
     18 C9        -0.4215   -1.7998    1.3806 C.3       1 RES1    0.0000
     19 H5        -1.2429   -2.0373    0.9440 H         1 RES1    0.0000
     20 H6        -0.3414   -2.2925    2.2014 H         1 RES1    0.0000
     21 H7         0.3188   -2.0124    0.8071 H         1 RES1    0.0000
     22 C10        1.2240    2.6338    3.0535 C.3       1 RES1    0.0000
     23 H8         0.7435    3.2690    3.6256 H         1 RES1    0.0000
     24 C11        2.4013    2.0308    3.7980 C.3       1 RES1    0.0000
     25 H9         2.2911    1.4062    4.5451 H         1 RES1    0.0000
     26 C12        3.4692    1.8743    2.7681 C.3       1 RES1    0.0000
     27 H10        4.1170    1.1395    2.8130 H         1 RES1    0.0000
     28 C13        3.5269    3.0234    3.7298 C.3       1 RES1    0.0000
     29 H11        4.2109    3.1021    4.4266 H         1 RES1    0.0000
     30 C14        3.0356    4.2003    2.9234 C.3       1 RES1    0.0000
     31 H12        3.7465    4.6349    2.4248 H         1 RES1    0.0000
     32 H13        2.5612    4.8516    3.4628 H         1 RES1    0.0000
     33 C15        2.1064    3.3844    2.0332 C.3       1 RES1    0.0000
     34 H14        1.6221    3.8924    1.3493 H         1 RES1    0.0000
@<TRIPOS>BOND
     1    1    3 1
     2    2   26 1
     3    3    4 1
     4    5    6 2
     5    7    3 2
     6    8    7 1
     7    9    5 2
     8   10    5 1
     9   11   10 ar
    10   12   11 1
    11   13   11 ar
    12   14   13 1
    13   15   13 ar
    14   16   15 1
    15   17    1 1
    16   18    1 1
    17   19   18 1
    18   20   18 1
    19   21   18 1
    20   22    7 1
    21   23   22 1
    22   24   22 1
    23   25   24 1
    24   26   24 1
    25   27   26 1
    26   28   24 1
    27   29   28 1
    28   30   28 1
    29   31   30 1
    30   32   30 1
    31   33    2 1
    32   34   33 1
    33    8   10 ar
    34    8   17 ar
    35   15   17 ar
    36   22   33 1
    37   26   28 1
    38   30   33 1
@<TRIPOS>SUBSTRUCTURE
     1 RES1 1

@<TRIPOS>CRYSIN
   9.7836   19.1840    7.2536  90.0000 110.1130  90.0000  14 1

