# MOL2 file generated by ConQuest
# Please check atom types

@<TRIPOS>MOLECULE
ERETAW
    25    26     1
SMALL
NO_CHARGES
****
Generated from CSD

@<TRIPOS>ATOM
      1 O1         0.1703    4.6478    8.2643 O.2       1 RES1    0.0000
      2 O2         2.9989    6.6722    5.3957 O.3       1 RES1    0.0000
      3 O3         3.9875    8.1120    6.9044 O.2       1 RES1    0.0000
      4 O4         0.0565    0.5391    9.4431 O.2       1 RES1    0.0000
      5 O5         2.3786   -0.1039    6.4676 O.2       1 RES1    0.0000
      6 O6         2.7500   -0.0697    8.5907 O.2       1 RES1    0.0000
      7 O7         3.0613    4.9127    9.5741 O.2       1 RES1    0.0000
      8 N1         2.6232    2.6965    6.8686 N.2       1 RES1    0.0000
      9 N2         1.9607    3.8408    7.0863 N.pl3     1 RES1    0.0000
     10 N3         0.9082    3.6829    7.9539 N.pl3     1 RES1    0.0000
     11 N4         3.4162    7.0569    6.7640 N.pl3     1 RES1    0.0000
     12 N5         2.4026    5.4562    5.4701 N.2       1 RES1    0.0000
     13 N6        -1.0788    2.4853    9.6451 N.am      1 RES1    0.0000
     14 H1        -1.1658    3.3044    9.4610 H         1 RES1    0.0000
     15 H2        -1.7105    2.1006   10.1661 H         1 RES1    0.0000
     16 N7         2.3896    0.4291    7.5464 N.pl3     1 RES1    0.0000
     17 N8         3.8078    7.0487    9.6028 N.am      1 RES1    0.0000
     18 H3         3.9524    7.7921    9.1877 H         1 RES1    0.0000
     19 H4         3.9794    6.9454   10.4000 H         1 RES1    0.0000
     20 C1         0.8907    2.3741    8.2969 C.2       1 RES1    0.0000
     21 C2         1.9590    1.8263    7.5871 C.2       1 RES1    0.0000
     22 C3         3.0399    6.0635    7.5639 C.2       1 RES1    0.0000
     23 C4         2.4418    5.1103    6.7179 C.2       1 RES1    0.0000
     24 C5        -0.1046    1.7295    9.1912 C.2       1 RES1    0.0000
     25 C6         3.3128    5.9850    9.0149 C.2       1 RES1    0.0000
@<TRIPOS>BOND
     1    1   10 1
     2    2   11 1
     3    3   11 1
     4    4   24 2
     5    5   16 2
     6    6   16 2
     7    7   25 2
     8    8    9 1
     9    9   10 1
    10   10   20 2
    11   11   22 2
    12   12    2 1
    13   13   14 1
    14   15   13 1
    15   16   21 1
    16   17   18 1
    17   19   17 1
    18   20   21 1
    19   21    8 2
    20   22   23 1
    21   23    9 1
    22   24   13 1
    23   25   17 1
    24   12   23 2
    25   20   24 1
    26   22   25 1
@<TRIPOS>SUBSTRUCTURE
     1 RES1 1

@<TRIPOS>CRYSIN
   5.7312    9.3394   10.9450  94.9900 101.9600  97.3400   2 1

