# MOL2 file generated by ConQuest
# Please check atom types

@<TRIPOS>MOLECULE
ERGDPH
    42    46     1
SMALL
NO_CHARGES
****
Generated from CSD

@<TRIPOS>ATOM
      1 C1        13.5695    7.0084   -1.2365 C.3       1 RES1    0.0000
      2 C2        12.8528    6.9869   -2.5931 C.3       1 RES1    0.0000
      3 C3        12.7828    5.6145   -3.1993 C.2       1 RES1    0.0000
      4 C4        12.6142    4.4476   -2.2673 C.3       1 RES1    0.0000
      5 C5        13.2553    4.5841   -0.8866 C.3       1 RES1    0.0000
      6 C6        12.7503    3.4755    0.0320 C.3       1 RES1    0.0000
      7 C7        13.2273    3.6587    1.4461 C.2       1 RES1    0.0000
      8 C8        13.7435    4.7880    1.9054 C.2       1 RES1    0.0000
      9 C9        13.8751    6.0362    1.0549 C.3       1 RES1    0.0000
     10 C10       13.0341    5.9619   -0.2510 C.3       1 RES1    0.0000
     11 C11       13.6115    7.3205    1.8614 C.3       1 RES1    0.0000
     12 C12       14.2769    7.3672    3.2394 C.3       1 RES1    0.0000
     13 C13       13.9155    6.1428    4.0686 C.3       1 RES1    0.0000
     14 C14       14.3635    4.9138    3.2821 C.3       1 RES1    0.0000
     15 C15       14.2793    3.7568    4.2582 C.3       1 RES1    0.0000
     16 C16       14.5948    4.4078    5.6322 C.3       1 RES1    0.0000
     17 C17       14.7206    5.9258    5.3825 C.3       1 RES1    0.0000
     18 C18       12.4032    6.0922    4.3477 C.3       1 RES1    0.0000
     19 C19       11.5443    6.2179    0.0361 C.3       1 RES1    0.0000
     20 C20       14.3664    6.7615    6.6216 C.3       1 RES1    0.0000
     21 C21       14.5342    8.2581    6.4213 C.3       1 RES1    0.0000
     22 C22       15.2263    6.3153    7.7847 C.2       1 RES1    0.0000
     23 C23       14.8217    5.8062    8.9250 C.2       1 RES1    0.0000
     24 C24       15.7215    5.3408   10.0373 C.3       1 RES1    0.0000
     25 C25       15.5375    6.1321   11.3378 C.3       1 RES1    0.0000
     26 C26       16.6028    5.7633   12.3700 C.3       1 RES1    0.0000
     27 C27       15.5354    7.6225   11.1229 C.3       1 RES1    0.0000
     28 C28       15.5492    3.8481   10.2576 C.3       1 RES1    0.0000
     29 C29       12.4675    6.3023   -6.6016 C.ar      1 RES1    0.0000
     30 C30       12.2246    7.3994   -7.4562 C.ar      1 RES1    0.0000
     31 C31       11.9887    7.2277   -8.8195 C.ar      1 RES1    0.0000
     32 C32       11.9871    5.9657   -9.3229 C.ar      1 RES1    0.0000
     33 C33       12.2225    4.8555   -8.5297 C.ar      1 RES1    0.0000
     34 C34       12.4507    5.0173   -7.1865 C.ar      1 RES1    0.0000
     35 N1        12.1686    8.7457   -6.9782 N.pl3     1 RES1    0.0000
     36 N2        11.7486    5.7894  -10.7583 N.pl3     1 RES1    0.0000
     37 N3        12.6958    6.4571   -5.2824 N.pl3     1 RES1    0.0000
     38 N4        12.7269    5.3531   -4.4451 N.2       1 RES1    0.0000
     39 O1        12.4290    8.9850   -5.8004 O.2       1 RES1    0.0000
     40 O2        11.8597    9.6321   -7.7686 O.2       1 RES1    0.0000
     41 O3        11.7261    6.7845  -11.4727 O.2       1 RES1    0.0000
     42 O4        11.5939    4.6539  -11.1749 O.2       1 RES1    0.0000
@<TRIPOS>BOND
     1    1    2 1
     2    2    3 1
     3    3    4 1
     4    4    5 1
     5    5    6 1
     6    6    7 1
     7    7    8 2
     8    8    9 1
     9    9   10 1
    10   10    1 1
    11   11    9 1
    12   12   11 1
    13   13   12 1
    14   14    8 1
    15   15   14 1
    16   16   15 1
    17   17   13 1
    18   18   13 1
    19   19   10 1
    20   20   17 1
    21   21   20 1
    22   22   20 1
    23   23   22 2
    24   24   23 1
    25   25   24 1
    26   26   25 1
    27   27   25 1
    28   28   24 1
    29   29   30 ar
    30   30   31 ar
    31   31   32 ar
    32   32   33 ar
    33   33   34 ar
    34   34   29 ar
    35   35   30 1
    36   36   32 1
    37   37   29 1
    38   38    3 2
    39   39   35 2
    40   40   35 2
    41   41   36 2
    42   42   36 2
    43    5   10 1
    44   13   14 1
    45   16   17 1
    46   37   38 1
@<TRIPOS>SUBSTRUCTURE
     1 RES1 1

@<TRIPOS>CRYSIN
  15.3590    7.6670   14.6670  90.0000 114.4400  90.0000   4 1

