# MOL2 file generated by ConQuest
# Please check atom types

@<TRIPOS>MOLECULE
ERIQIF
    79    83     1
SMALL
USER_CHARGES
****
Generated from CSD

@<TRIPOS>ATOM
      1 O1         1.3040    0.1083    5.1110 O.2       1 RES1    0.0000
      2 O2         3.9948    3.6622    3.9475 O.2       1 RES1   -1.0000
      3 N1        -3.9263    9.1857    9.2927 N.ar      1 RES1    0.0000
      4 N2         2.2909    0.8026    4.6773 N.3       1 RES1    0.0000
      5 N3         3.5449    2.4759    4.0999 N.pl3     1 RES1    1.0000
      6 C1        -3.0917    7.0902    8.4340 C.ar      1 RES1    0.0000
      7 C2        -2.1735    6.3858    7.5865 C.1       1 RES1    0.0000
      8 C3        -1.4078    5.7217    6.9509 C.1       1 RES1    0.0000
      9 C4        -0.4890    4.8326    6.3017 C.ar      1 RES1    0.0000
     10 C5         1.3664    3.0644    5.1754 C.ar      1 RES1    0.0000
     11 C6         2.3629    2.1409    4.6451 C.2       1 RES1    0.0000
     12 C7         3.4953    0.1083    4.1210 C.3       1 RES1    0.0000
     13 C8         4.3742    1.3072    3.6687 C.3       1 RES1    0.0000
     14 C9        -3.1568    8.4788    8.4563 C.ar      1 RES1    0.0000
     15 C10       -3.9263    6.3916    9.2927 C.ar      1 RES1    0.0000
     16 C11       -0.4460    3.5044    6.6870 C.ar      1 RES1    0.0000
     17 C12        0.4563    2.6287    6.1394 C.ar      1 RES1    0.0000
     18 C13        1.3051    4.3842    4.7727 C.ar      1 RES1    0.0000
     19 C14        0.3846    5.2591    5.3117 C.ar      1 RES1    0.0000
     20 H1        -2.6324    8.9616    7.8294 H         1 RES1    0.0000
     21 H2        -3.9263    5.4421    9.2927 H         1 RES1    0.0000
     22 H3        -1.0535    3.1971    7.3486 H         1 RES1    0.0000
     23 H4         0.4644    1.7194    6.4119 H         1 RES1    0.0000
     24 H5         1.8808    4.6831    4.0789 H         1 RES1    0.0000
     25 H6         0.3463    6.1641    5.0255 H         1 RES1    0.0000
     26 C15        4.0525   -0.7413    5.2126 C.3       1 RES1    0.0000
     27 H7         4.8161   -1.2081    4.8941 H         1 RES1    0.0000
     28 H8         4.3016   -0.1889    5.9436 H         1 RES1    0.0000
     29 H9         3.3955   -1.3668    5.4963 H         1 RES1    0.0000
     30 C16        2.9997   -0.7808    2.9947 C.3       1 RES1    0.0000
     31 H10        3.7337   -1.2426    2.6069 H         1 RES1    0.0000
     32 H11        2.3722   -1.4096    3.3305 H         1 RES1    0.0000
     33 H12        2.5828   -0.2384    2.3356 H         1 RES1    0.0000
     34 C17        5.7025    1.4122    4.3576 C.3       1 RES1    0.0000
     35 H13        6.2590    0.6851    4.1049 H         1 RES1    0.0000
     36 H14        5.5628    1.3920    5.2968 H         1 RES1    0.0000
     37 H15        6.1211    2.2299    4.1173 H         1 RES1    0.0000
     38 C18        4.5495    1.4180    2.1732 C.3       1 RES1    0.0000
     39 H16        5.0742    0.6910    1.8598 H         1 RES1    0.0000
     40 H17        4.9887    2.2358    1.9713 H         1 RES1    0.0000
     41 H18        3.6998    1.4012    1.7483 H         1 RES1    0.0000
     42 C9A       -4.6958    8.4788   10.1290 C.ar      1 RES1    0.0000
     43 C1A       -4.7610    7.0902   10.1513 C.ar      1 RES1    0.0000
     44 C2A       -5.6791    6.3858   10.9988 C.1       1 RES1    0.0000
     45 C3A       -6.4449    5.7217   11.6344 C.1       1 RES1    0.0000
     46 C4A       -7.3636    4.8326   12.2837 C.ar      1 RES1    0.0000
     47 C11A      -7.4067    3.5044   11.8983 C.ar      1 RES1    0.0000
     48 C12A      -8.3090    2.6287   12.4460 C.ar      1 RES1    0.0000
     49 C5A       -9.2191    3.0644   13.4099 C.ar      1 RES1    0.0000
     50 C6A      -10.2156    2.1409   13.9402 C.2       1 RES1    0.0000
     51 N2A      -10.1436    0.8026   13.9080 N.3       1 RES1    0.0000
     52 O1A       -9.1567    0.1083   13.4744 O.2       1 RES1    0.0000
     53 C7A      -11.3480    0.1083   14.4643 C.3       1 RES1    0.0000
     54 C8A      -12.2268    1.3072   14.9166 C.3       1 RES1    0.0000
     55 N3A      -11.3976    2.4759   14.4854 N.pl3     1 RES1    1.0000
     56 O2A      -11.8474    3.6622   14.6378 O.2       1 RES1   -1.0000
     57 C17A     -13.5551    1.4122   14.2277 C.3       1 RES1    0.0000
     58 H13A     -14.1117    0.6851   14.4805 H         1 RES1    0.0000
     59 H14A     -13.4155    1.3920   13.2885 H         1 RES1    0.0000
     60 H15A     -13.9737    2.2299   14.4681 H         1 RES1    0.0000
     61 C18A     -12.4022    1.4180   16.4121 C.3       1 RES1    0.0000
     62 H16A     -12.9269    0.6910   16.7256 H         1 RES1    0.0000
     63 H17A     -12.8414    2.2358   16.6141 H         1 RES1    0.0000
     64 H18A     -11.5525    1.4012   16.8371 H         1 RES1    0.0000
     65 C15A     -11.9051   -0.7413   13.3728 C.3       1 RES1    0.0000
     66 H7A      -12.6687   -1.2081   13.6912 H         1 RES1    0.0000
     67 H8A      -12.1542   -0.1889   12.6417 H         1 RES1    0.0000
     68 H9A      -11.2482   -1.3668   13.0890 H         1 RES1    0.0000
     69 C16A     -10.8524   -0.7808   15.5906 C.3       1 RES1    0.0000
     70 H10A     -11.5863   -1.2426   15.9784 H         1 RES1    0.0000
     71 H11A     -10.2248   -1.4096   15.2548 H         1 RES1    0.0000
     72 H12A     -10.4355   -0.2384   16.2498 H         1 RES1    0.0000
     73 C13A      -9.1577    4.3842   13.8126 C.ar      1 RES1    0.0000
     74 C14A      -8.2373    5.2591   13.2736 C.ar      1 RES1    0.0000
     75 H6A       -8.1989    6.1641   13.5599 H         1 RES1    0.0000
     76 H5A       -9.7334    4.6831   14.5065 H         1 RES1    0.0000
     77 H4A       -8.3171    1.7194   12.1734 H         1 RES1    0.0000
     78 H3A       -6.7992    3.1971   11.2367 H         1 RES1    0.0000
     79 H1A       -5.2203    8.9616   10.7560 H         1 RES1    0.0000
@<TRIPOS>BOND
     1    1    4 1
     2    2    5 1
     3    3   14 ar
     4    4   11 1
     5    5   11 2
     6    6    7 1
     7    7    8 3
     8    8    9 1
     9    9   16 ar
    10   10   11 1
    11   12    4 1
    12   13    5 1
    13   14    6 ar
    14   15    6 ar
    15   16   17 ar
    16   17   10 ar
    17   18   10 ar
    18   19    9 ar
    19   20   14 1
    20   21   15 1
    21   22   16 1
    22   23   17 1
    23   24   18 1
    24   25   19 1
    25   26   12 1
    26   27   26 1
    27   28   26 1
    28   29   26 1
    29   30   12 1
    30   31   30 1
    31   32   30 1
    32   33   30 1
    33   34   13 1
    34   35   34 1
    35   36   34 1
    36   37   34 1
    37   38   13 1
    38   39   38 1
    39   40   38 1
    40   41   38 1
    41   42    3 ar
    42   43   15 ar
    43   44   43 1
    44   45   44 3
    45   46   45 1
    46   47   46 ar
    47   48   47 ar
    48   49   48 ar
    49   50   49 1
    50   51   50 1
    51   52   51 1
    52   53   51 1
    53   54   53 1
    54   55   50 2
    55   56   55 1
    56   57   54 1
    57   58   57 1
    58   59   57 1
    59   60   57 1
    60   61   54 1
    61   62   61 1
    62   63   61 1
    63   64   61 1
    64   65   53 1
    65   66   65 1
    66   67   65 1
    67   68   65 1
    68   69   53 1
    69   70   69 1
    70   71   69 1
    71   72   69 1
    72   73   49 ar
    73   74   46 ar
    74   75   74 1
    75   76   73 1
    76   77   48 1
    77   78   47 1
    78   79   42 1
    79   12   13 1
    80   18   19 ar
    81   42   43 ar
    82   54   55 1
    83   73   74 ar
@<TRIPOS>SUBSTRUCTURE
     1 RES1 1

@<TRIPOS>CRYSIN
  29.4916    8.3957   13.4508  90.0000 112.9050  90.0000  15 1

