# MOL2 file generated by ConQuest
# Please check atom types

@<TRIPOS>MOLECULE
ERISED
    46    47     1
SMALL
NO_CHARGES
****
Generated from CSD

@<TRIPOS>ATOM
      1 O1         5.8837    3.5906    1.7464 O.3       1 RES1    0.0000
      2 C1         3.8450    0.7039    1.6209 C.3       1 RES1    0.0000
      3 O2         2.3900   -0.7981    2.8465 O.2       1 RES1    0.0000
      4 C2         3.3323    2.1336    1.8264 C.3       1 RES1    0.0000
      5 O3         4.2222    0.0136    3.8360 O.3       1 RES1    0.0000
      6 C3         3.8032    3.0804    0.7281 C.3       1 RES1    0.0000
      7 O4         3.1220    0.2333    0.4482 O.3       1 RES1    0.0000
      8 C4         5.3073    3.0626    0.5468 C.3       1 RES1    0.0000
      9 O5         4.0025   -1.8417    0.5654 O.2       1 RES1    0.0000
     10 C5         5.7813    1.6398    0.2883 C.3       1 RES1    0.0000
     11 C6         5.3594    0.7067    1.4107 C.3       1 RES1    0.0000
     12 N1        -0.3331   -2.5524   -4.1047 N.pl3     1 RES1    0.0000
     13 O6        -0.4372   -3.7379   -4.3511 O.2       1 RES1    0.0000
     14 O7        -0.9491   -1.6834   -4.6887 O.2       1 RES1    0.0000
     15 C7         7.2471    3.9221    1.6348 C.3       1 RES1    0.0000
     16 C8         3.3898   -0.1391    2.8112 C.2       1 RES1    0.0000
     17 C9         3.8485   -0.6453    5.0718 C.3       1 RES1    0.0000
     18 C10        4.8992   -0.3370    6.0594 C.3       1 RES1    0.0000
     19 C11        3.2355   -1.0532    0.0800 C.2       1 RES1    0.0000
     20 C12        2.2866   -1.3928   -1.0220 C.ar      1 RES1    0.0000
     21 C13        1.3699   -0.4802   -1.5232 C.ar      1 RES1    0.0000
     22 C14        0.5140   -0.8499   -2.5452 C.ar      1 RES1    0.0000
     23 C15        0.5847   -2.1404   -3.0241 C.ar      1 RES1    0.0000
     24 C16        1.4659   -3.0722   -2.5350 C.ar      1 RES1    0.0000
     25 C17        2.3318   -2.6834   -1.5307 C.ar      1 RES1    0.0000
     26 H1         2.3619    2.1241    1.8441 H         1 RES1    0.0000
     27 H2         3.6432    2.4624    2.6838 H         1 RES1    0.0000
     28 H3         3.3804    2.8294   -0.1088 H         1 RES1    0.0000
     29 H4         3.5201    3.9821    0.9439 H         1 RES1    0.0000
     30 H5         5.5526    3.6329   -0.2130 H         1 RES1    0.0000
     31 H6         5.4094    1.3233   -0.5496 H         1 RES1    0.0000
     32 H7         6.7477    1.6316    0.2092 H         1 RES1    0.0000
     33 H8         5.7949    0.9809    2.2337 H         1 RES1    0.0000
     34 H9         5.6546   -0.1937    1.2043 H         1 RES1    0.0000
     35 H10        7.5627    4.2672    2.4727 H         1 RES1    0.0000
     36 H11        7.3599    4.5864    0.9522 H         1 RES1    0.0000
     37 H12        7.7494    3.1363    1.4033 H         1 RES1    0.0000
     38 H13        3.7829   -1.6043    4.9370 H         1 RES1    0.0000
     39 H14        2.9880   -0.3192    5.3815 H         1 RES1    0.0000
     40 H15        4.6864   -0.7585    6.8954 H         1 RES1    0.0000
     41 H16        4.9526    0.6139    6.1840 H         1 RES1    0.0000
     42 H17        5.7434   -0.6657    5.7414 H         1 RES1    0.0000
     43 H18        1.3312    0.3806   -1.1736 H         1 RES1    0.0000
     44 H19       -0.0938   -0.2428   -2.9005 H         1 RES1    0.0000
     45 H20        1.4808   -3.9398   -2.8698 H         1 RES1    0.0000
     46 H21        2.9483   -3.2918   -1.1931 H         1 RES1    0.0000
@<TRIPOS>BOND
     1    1    8 1
     2    2    4 1
     3    3   16 2
     4    4    6 1
     5    5   16 1
     6    6    8 1
     7    7    2 1
     8    8   10 1
     9    9   19 2
    10   10   11 1
    11   11    2 1
    12   12   13 2
    13   14   12 2
    14   15    1 1
    15   16    2 1
    16   17    5 1
    17   18   17 1
    18   19    7 1
    19   20   19 1
    20   21   20 ar
    21   22   21 ar
    22   23   12 1
    23   24   23 ar
    24   25   20 ar
    25   26    4 1
    26   27    4 1
    27   28    6 1
    28   29    6 1
    29   30    8 1
    30   31   10 1
    31   32   10 1
    32   33   11 1
    33   34   11 1
    34   35   15 1
    35   36   15 1
    36   37   15 1
    37   38   17 1
    38   39   17 1
    39   40   18 1
    40   41   18 1
    41   42   18 1
    42   43   21 1
    43   44   22 1
    44   45   24 1
    45   46   25 1
    46   22   23 ar
    47   24   25 ar
@<TRIPOS>SUBSTRUCTURE
     1 RES1 1

@<TRIPOS>CRYSIN
  13.7586   13.6420    9.3020  90.0000  91.3810  90.0000  14 1

