# MOL2 file generated by ConQuest
# Please check atom types

@<TRIPOS>MOLECULE
ERIVAC
    15    15     1
SMALL
NO_CHARGES
****
Generated from CSD

@<TRIPOS>ATOM
      1 O1         5.6157    5.7997    5.8376 O.2       1 RES1    0.0000
      2 O2         5.6782    4.2713    4.2178 O.3       1 RES1    0.0000
      3 H1         5.6556    3.7308    4.8729 H         1 RES1    0.0000
      4 O3         4.2766    5.5437    0.5662 O.2       1 RES1    0.0000
      5 N1         5.0070    6.2948    2.3871 N.3       1 RES1    0.0000
      6 N2         5.1248    5.3943    1.4779 N.2       1 RES1    0.0000
      7 C1         5.8126    6.5348    3.5911 C.3       1 RES1    0.0000
      8 H2         6.7426    6.6755    3.3998 H         1 RES1    0.0000
      9 C2         5.0030    7.8415    3.7773 C.3       1 RES1    0.0000
     10 H3         5.5565    8.6228    3.7068 H         1 RES1    0.0000
     11 H4         4.4982    7.8606    4.5941 H         1 RES1    0.0000
     12 C3         4.1556    7.4807    2.5384 C.3       1 RES1    0.0000
     13 H5         3.2356    7.3551    2.7803 H         1 RES1    0.0000
     14 H6         4.1868    8.0100    1.7368 H         1 RES1    0.0000
     15 C4         5.6742    5.4992    4.6777 C.2       1 RES1    0.0000
@<TRIPOS>BOND
     1    1   15 2
     2    2    3 1
     3    4    6 2
     4    5    6 1
     5    7    5 1
     6    8    7 1
     7    9    7 1
     8   10    9 1
     9   11    9 1
    10   12    5 1
    11   13   12 1
    12   14   12 1
    13   15    2 1
    14    7   15 1
    15    9   12 1
@<TRIPOS>SUBSTRUCTURE
     1 RES1 1

@<TRIPOS>CRYSIN
   6.6521    7.9480   10.8480  90.0000  90.0000  90.0000  19 1

