# MOL2 file generated by ConQuest
# Please check atom types

@<TRIPOS>MOLECULE
ERIWIL
    20    20     1
SMALL
NO_CHARGES
****
Generated from CSD

@<TRIPOS>ATOM
      1 N1         2.7715    1.4893    7.3860 N.am      1 RES1    0.0000
      2 H1         2.6998    0.8754    6.8155 H         1 RES1    0.0000
      3 C1         3.8364    1.3518    8.2513 C.2       1 RES1    0.0000
      4 O1         4.6730    0.4518    8.0720 O.2       1 RES1    0.0000
      5 C2         3.8592    2.3030    9.3138 C.2       1 RES1    0.0000
      6 H2         4.5597    2.2683    9.9245 H         1 RES1    0.0000
      7 C3         2.9091    3.2530    9.4766 C.2       1 RES1    0.0000
      8 C4         2.9823    4.1789   10.6538 C.3       1 RES1    0.0000
      9 H3         3.6568    3.8699   11.2626 H         1 RES1    0.0000
     10 H4         2.1326    4.1965   11.1007 H         1 RES1    0.0000
     11 H5         3.2037    5.0631   10.3521 H         1 RES1    0.0000
     12 C5         1.8378    3.2841    8.5280 C.2       1 RES1    0.0000
     13 N2         0.8035    4.3017    8.6278 N.pl3     1 RES1    0.0000
     14 O2         1.1399    5.4320    8.9616 O.2       1 RES1    0.0000
     15 O3        -0.3517    4.0044    8.3911 O.2       1 RES1    0.0000
     16 C6         1.7695    2.3770    7.4963 C.2       1 RES1    0.0000
     17 C7         0.7035    2.2766    6.4443 C.3       1 RES1    0.0000
     18 H6         1.0675    1.8612    5.6596 H         1 RES1    0.0000
     19 H7         0.3880    3.1561    6.2234 H         1 RES1    0.0000
     20 H8        -0.0260    1.7484    6.7778 H         1 RES1    0.0000
@<TRIPOS>BOND
     1    1    2 1
     2    3    1 1
     3    4    3 2
     4    5    3 1
     5    6    5 1
     6    7    5 2
     7    8    7 1
     8    9    8 1
     9   10    8 1
    10   11    8 1
    11   12    7 1
    12   13   12 1
    13   14   13 2
    14   15   13 2
    15   16    1 1
    16   17   16 1
    17   18   17 1
    18   19   17 1
    19   20   17 1
    20   12   16 2
@<TRIPOS>SUBSTRUCTURE
     1 RES1 1

@<TRIPOS>CRYSIN
   9.7677    5.8750   13.7295  90.0000 100.7600  90.0000 231 1

