# MOL2 file generated by ConQuest
# Please check atom types

@<TRIPOS>MOLECULE
ERIXAF
    53    56     1
SMALL
NO_CHARGES
****
Generated from CSD

@<TRIPOS>ATOM
      1 N1         6.6794    3.4306    7.5490 N.pl3     1 RES1    0.0000
      2 N2         1.2416    4.3655   -5.1422 N.pl3     1 RES1    0.0000
      3 O1         7.1866    2.4694    8.1171 O.2       1 RES1    0.0000
      4 O2         5.9904    4.2742    8.1294 O.2       1 RES1    0.0000
      5 O3         1.6480    5.1710   -5.9602 O.2       1 RES1    0.0000
      6 O4         0.0380    4.1493   -4.9332 O.2       1 RES1    0.0000
      7 O5         8.0281    2.9712    1.2711 O.3       1 RES1    0.0000
      8 O6         6.8124    4.9740    1.3203 O.3       1 RES1    0.0000
      9 O7         6.3335    2.2005   -1.9280 O.3       1 RES1    0.0000
     10 O8         4.6338    1.1433   -0.7258 O.3       1 RES1    0.0000
     11 C1         6.9190    3.5888    6.1153 C.ar      1 RES1    0.0000
     12 C2         7.6593    2.6372    5.4456 C.ar      1 RES1    0.0000
     13 H1         7.9835    1.8895    5.8934 H         1 RES1    0.0000
     14 C3         7.9095    2.8122    4.1046 C.ar      1 RES1    0.0000
     15 H2         8.4111    2.1797    3.6426 H         1 RES1    0.0000
     16 C4         7.4159    3.9350    3.4295 C.ar      1 RES1    0.0000
     17 C5         6.6546    4.8635    4.1372 C.ar      1 RES1    0.0000
     18 H3         6.3085    5.6036    3.6929 H         1 RES1    0.0000
     19 C6         6.4057    4.7040    5.4861 C.ar      1 RES1    0.0000
     20 H4         5.9063    5.3320    5.9568 H         1 RES1    0.0000
     21 C7         7.7988    4.1773    1.9738 C.3       1 RES1    0.0000
     22 C8         9.0847    4.9569    1.9006 C.3       1 RES1    0.0000
     23 H5         9.7807    4.4695    2.3454 H         1 RES1    0.0000
     24 H6         8.9675    5.8091    2.3286 H         1 RES1    0.0000
     25 H7         9.3255    5.0921    0.9810 H         1 RES1    0.0000
     26 C9         6.8371    2.1971    1.0321 C.3       1 RES1    0.0000
     27 H8         6.4713    1.8952    1.8782 H         1 RES1    0.0000
     28 H9         7.0598    1.4136    0.5043 H         1 RES1    0.0000
     29 C10        5.5730    4.2930    1.1100 C.3       1 RES1    0.0000
     30 H10        4.9566    4.8768    0.6396 H         1 RES1    0.0000
     31 H11        5.1780    4.0648    1.9657 H         1 RES1    0.0000
     32 C11        5.7984    3.0262    0.2969 C.3       1 RES1    0.0000
     33 C12        6.2557    3.3739   -1.1167 C.3       1 RES1    0.0000
     34 H12        5.6314    4.0008   -1.5141 H         1 RES1    0.0000
     35 H13        7.1265    3.7993   -1.0793 H         1 RES1    0.0000
     36 C13        4.4838    2.2596    0.1570 C.3       1 RES1    0.0000
     37 H14        4.1986    1.9456    1.0289 H         1 RES1    0.0000
     38 H15        3.7983    2.8532   -0.1869 H         1 RES1    0.0000
     39 C14        5.1132    1.4883   -2.0091 C.3       1 RES1    0.0000
     40 C15        5.4358    0.1838   -2.6980 C.3       1 RES1    0.0000
     41 H16        6.1066   -0.2853   -2.1968 H         1 RES1    0.0000
     42 H17        5.7630    0.3612   -3.5827 H         1 RES1    0.0000
     43 H18        4.6422   -0.3541   -2.7526 H         1 RES1    0.0000
     44 C16        4.0680    2.2723   -2.8136 C.ar      1 RES1    0.0000
     45 C17        4.4804    3.1245   -3.8327 C.ar      1 RES1    0.0000
     46 H19        5.3888    3.2366   -3.9984 H         1 RES1    0.0000
     47 C18        3.5632    3.8059   -4.5995 C.ar      1 RES1    0.0000
     48 H20        3.8431    4.3880   -5.2681 H         1 RES1    0.0000
     49 C19        2.2187    3.6078   -4.3546 C.ar      1 RES1    0.0000
     50 C20        1.7639    2.7388   -3.3723 C.ar      1 RES1    0.0000
     51 H21        0.8537    2.6079   -3.2330 H         1 RES1    0.0000
     52 C21        2.7044    2.0747   -2.6054 C.ar      1 RES1    0.0000
     53 H22        2.4224    1.4869   -1.9417 H         1 RES1    0.0000
@<TRIPOS>BOND
     1    1    3 2
     2    2    5 2
     3    4    1 2
     4    6    2 2
     5    7   21 1
     6    8   21 1
     7    9   33 1
     8   10   36 1
     9   11    1 1
    10   12   11 ar
    11   13   12 1
    12   14   12 ar
    13   15   14 1
    14   16   14 ar
    15   17   16 ar
    16   18   17 1
    17   19   11 ar
    18   20   19 1
    19   21   16 1
    20   22   21 1
    21   23   22 1
    22   24   22 1
    23   25   22 1
    24   26    7 1
    25   27   26 1
    26   28   26 1
    27   29    8 1
    28   30   29 1
    29   31   29 1
    30   32   26 1
    31   33   32 1
    32   34   33 1
    33   35   33 1
    34   36   32 1
    35   37   36 1
    36   38   36 1
    37   39    9 1
    38   40   39 1
    39   41   40 1
    40   42   40 1
    41   43   40 1
    42   44   39 1
    43   45   44 ar
    44   46   45 1
    45   47   45 ar
    46   48   47 1
    47   49    2 1
    48   50   49 ar
    49   51   50 1
    50   52   44 ar
    51   53   52 1
    52   10   39 1
    53   17   19 ar
    54   29   32 1
    55   47   49 ar
    56   50   52 ar
@<TRIPOS>SUBSTRUCTURE
     1 RES1 1

@<TRIPOS>CRYSIN
   7.4215   11.8790   13.5220 115.2800  94.4260 103.4440   2 1

