# MOL2 file generated by ConQuest
# Please check atom types

@<TRIPOS>MOLECULE
EROFUN
    58    63     1
SMALL
NO_CHARGES
****
Generated from CSD

@<TRIPOS>ATOM
      1 C1         5.5012   18.7069    1.9696 C.2       1 RES1    0.0000
      2 C2         6.9833   19.1200    3.6184 C.ar      1 RES1    0.0000
      3 C3         6.9201   20.2834    2.8225 C.ar      1 RES1    0.0000
      4 C4         7.7219   21.3882    3.1495 C.ar      1 RES1    0.0000
      5 C5         8.6361   21.2101    4.2219 C.ar      1 RES1    0.0000
      6 C6         8.6686   20.0408    4.9667 C.ar      1 RES1    0.0000
      7 H1         9.2721   19.9706    5.6704 H         1 RES1    0.0000
      8 C7         7.8337   18.9810    4.6958 C.ar      1 RES1    0.0000
      9 H2         7.8421   18.2084    5.2135 H         1 RES1    0.0000
     10 C8         9.6318   22.2545    4.5628 C.2       1 RES1    0.0000
     11 C9         9.6638   23.4817    3.7504 C.ar      1 RES1    0.0000
     12 C10        8.7115   23.6954    2.7561 C.ar      1 RES1    0.0000
     13 C11        7.6096   22.7248    2.5316 C.2       1 RES1    0.0000
     14 C12       10.6433   24.4414    3.9790 C.ar      1 RES1    0.0000
     15 H3        11.2770   24.3059    4.6462 H         1 RES1    0.0000
     16 C13       10.6827   25.5862    3.2250 C.ar      1 RES1    0.0000
     17 H4        11.3312   26.2294    3.3952 H         1 RES1    0.0000
     18 C14        9.7673   25.7874    2.2184 C.ar      1 RES1    0.0000
     19 H5         9.8170   26.5518    1.6925 H         1 RES1    0.0000
     20 C15        8.7724   24.8532    1.9859 C.ar      1 RES1    0.0000
     21 H6         8.1453   24.9985    1.3150 H         1 RES1    0.0000
     22 C16        5.7208   20.6774    0.5413 C.3       1 RES1    0.0000
     23 H7         5.7242   21.6352    0.6900 H         1 RES1    0.0000
     24 H8         4.8354   20.4271    0.2331 H         1 RES1    0.0000
     25 C17        6.7337   20.3383   -0.5314 C.3       1 RES1    0.0000
     26 H9         6.6342   19.4075   -0.8220 H         1 RES1    0.0000
     27 C18        6.6172   21.2873   -1.7102 C.3       1 RES1    0.0000
     28 H10        6.7978   20.8404   -2.5516 H         1 RES1    0.0000
     29 H11        5.7448   21.7102   -1.7481 H         1 RES1    0.0000
     30 C19        7.6982   22.2688   -1.3565 C.2       1 RES1    0.0000
     31 C20        7.9125   23.5889   -1.9505 C.ar      1 RES1    0.0000
     32 C21        7.0430   24.0783   -2.9177 C.ar      1 RES1    0.0000
     33 H12        6.3399   23.5496   -3.2178 H         1 RES1    0.0000
     34 C22        7.2152   25.3448   -3.4360 C.ar      1 RES1    0.0000
     35 H13        6.6292   25.6730   -4.0790 H         1 RES1    0.0000
     36 C23        8.2612   26.1176   -2.9951 C.ar      1 RES1    0.0000
     37 C24        9.1539   25.6530   -2.0534 C.ar      1 RES1    0.0000
     38 H14        9.8631   26.1839   -1.7719 H         1 RES1    0.0000
     39 C25        8.9764   24.3922   -1.5370 C.ar      1 RES1    0.0000
     40 H15        9.5752   24.0697   -0.9024 H         1 RES1    0.0000
     41 C26        5.9333   16.8163    3.5210 C.3       1 RES1    0.0000
     42 H16        5.0469   16.5097    3.2756 H         1 RES1    0.0000
     43 H17        6.0048   16.7709    4.4874 H         1 RES1    0.0000
     44 C27        6.9453   15.9034    2.9177 C.2       1 RES1    0.0000
     45 H18        6.8927   15.0064    3.1580 H         1 RES1    0.0000
     46 C28        7.8869   16.2311    2.0947 C.2       1 RES1    0.0000
     47 H19        7.9814   17.1161    1.8234 H         1 RES1    0.0000
     48 H20        8.4709   15.5832    1.7739 H         1 RES1    0.0000
     49 N1         5.9963   19.9977    1.8035 N.am      1 RES1    0.0000
     50 N2         6.0857   18.2011    3.1023 N.am      1 RES1    0.0000
     51 N3         8.4829   21.8512   -0.4273 N.2       1 RES1    0.0000
     52 N4         8.4186   27.4725   -3.5458 N.pl3     1 RES1    0.0000
     53 O1         4.7051   18.1385    1.2398 O.2       1 RES1    0.0000
     54 O2         6.6165   23.0771    1.9042 O.2       1 RES1    0.0000
     55 O3        10.4313   22.0876    5.4749 O.2       1 RES1    0.0000
     56 O4         8.0681   20.5754    0.0001 O.3       1 RES1    0.0000
     57 O5         7.6215   27.8472   -4.3956 O.2       1 RES1    0.0000
     58 O6         9.3024   28.1735   -3.1209 O.2       1 RES1    0.0000
@<TRIPOS>BOND
     1    1   49 1
     2    2    3 ar
     3    3    4 ar
     4    4    5 ar
     5    5    6 ar
     6    6    7 1
     7    8    2 ar
     8    9    8 1
     9   10    5 1
    10   11   10 1
    11   12   11 ar
    12   13    4 1
    13   14   11 ar
    14   15   14 1
    15   16   14 ar
    16   17   16 1
    17   18   16 ar
    18   19   18 1
    19   20   12 ar
    20   21   20 1
    21   22   23 1
    22   24   22 1
    23   25   22 1
    24   26   25 1
    25   27   25 1
    26   28   27 1
    27   29   27 1
    28   30   27 1
    29   31   30 1
    30   32   31 ar
    31   33   32 1
    32   34   32 ar
    33   35   34 1
    34   36   34 ar
    35   37   36 ar
    36   38   37 1
    37   39   31 ar
    38   40   39 1
    39   41   42 1
    40   43   41 1
    41   44   41 1
    42   45   44 1
    43   46   44 2
    44   47   46 1
    45   48   46 1
    46   49    3 1
    47   50    1 1
    48   51   30 2
    49   52   36 1
    50   53    1 2
    51   54   13 2
    52   55   10 2
    53   56   25 1
    54   57   52 2
    55   58   52 2
    56    2   50 1
    57    6    8 ar
    58   12   13 1
    59   18   20 ar
    60   22   49 1
    61   37   39 ar
    62   41   50 1
    63   51   56 1
@<TRIPOS>SUBSTRUCTURE
     1 RES1 1

@<TRIPOS>CRYSIN
  10.0780   22.7094   11.2729  90.0000 113.8090  90.0000 231 1

