# MOL2 file generated by ConQuest
# Please check atom types

@<TRIPOS>MOLECULE
EROKAY
   140   134     3
SMALL
NO_CHARGES
****
Generated from CSD

@<TRIPOS>ATOM
      1 C1         3.2743    5.4224   12.9726 C.ar      1 RES1    0.0000
      2 C2         3.2703    4.0226   13.0288 C.ar      1 RES1    0.0000
      3 H1         3.0761    3.5281   12.2419 H         1 RES1    0.0000
      4 C3         3.5417    3.3389   14.2080 C.ar      1 RES1    0.0000
      5 H2         3.5464    2.3892   14.2268 H         1 RES1    0.0000
      6 C4         3.8065    4.0664   15.3547 C.ar      1 RES1    0.0000
      7 C5         3.7951    5.4608   15.3545 C.ar      1 RES1    0.0000
      8 H3         3.9592    5.9444   16.1555 H         1 RES1    0.0000
      9 C6         3.5390    6.1299   14.1636 C.ar      1 RES1    0.0000
     10 H4         3.5420    7.0799   14.1519 H         1 RES1    0.0000
     11 C7         3.0102    6.0705   11.6845 C.2       1 RES1    0.0000
     12 H5         2.8891    5.4952   10.9381 H         1 RES1    0.0000
     13 C8         2.9218    7.3882   11.4465 C.2       1 RES1    0.0000
     14 H6         3.0701    7.9653   12.1857 H         1 RES1    0.0000
     15 C9         2.6222    8.0258   10.1682 C.ar      1 RES1    0.0000
     16 C10        2.3251    7.3046    8.9892 C.ar      1 RES1    0.0000
     17 H7         2.3781    6.3565    9.0023 H         1 RES1    0.0000
     18 C11        1.9583    7.9411    7.8191 C.ar      1 RES1    0.0000
     19 H8         1.7565    7.4194    7.0525 H         1 RES1    0.0000
     20 C12        1.8737    9.3531    7.7355 C.ar      1 RES1    0.0000
     21 C13        2.2257   10.0803    8.8965 C.ar      1 RES1    0.0000
     22 H9         2.2173   11.0302    8.8759 H         1 RES1    0.0000
     23 C14        2.5807    9.4241   10.0643 C.ar      1 RES1    0.0000
     24 H10        2.8049    9.9440   10.8281 H         1 RES1    0.0000
     25 N1         1.4458    9.9680    6.5703 N.3       1 RES1    0.0000
     26 C15        0.5561    9.2229    5.6664 C.3       1 RES1    0.0000
     27 H11       -0.1553    9.8361    5.3532 H         1 RES1    0.0000
     28 H12        0.1188    8.5013    6.1818 H         1 RES1    0.0000
     29 C16        1.2354    8.5990    4.4396 C.3       1 RES1    0.0000
     30 H13        1.5320    9.3223    3.8317 H         1 RES1    0.0000
     31 H14        2.0390    8.1015    4.7329 H         1 RES1    0.0000
     32 C17        0.3173    7.6584    3.6817 C.3       1 RES1    0.0000
     33 H15       -0.4959    8.1537    3.4104 H         1 RES1    0.0000
     34 H16        0.0364    6.9279    4.2882 H         1 RES1    0.0000
     35 C18        0.9607    7.0466    2.4390 C.3       1 RES1    0.0000
     36 H17        1.2086    7.7756    1.8164 H         1 RES1    0.0000
     37 H18        1.7934    6.5823    2.7058 H         1 RES1    0.0000
     38 C19        0.0623    6.0622    1.7089 C.3       1 RES1    0.0000
     39 H19       -0.7748    6.5219    1.4466 H         1 RES1    0.0000
     40 H20       -0.1782    5.3263    2.3267 H         1 RES1    0.0000
     41 C20        0.7149    5.4747    0.4658 C.3       1 RES1    0.0000
     42 H21        0.8733    6.1866   -0.1873 H         1 RES1    0.0000
     43 H22        0.1244    4.7970    0.0749 H         1 RES1    0.0000
     44 H23        1.5692    5.0598    0.7116 H         1 RES1    0.0000
     45 C21        1.4325   11.4370    6.4753 C.3       1 RES1    0.0000
     46 H24        2.1319   11.7981    7.0759 H         1 RES1    0.0000
     47 H25        0.5581   11.7674    6.7997 H         1 RES1    0.0000
     48 C22        1.6675   11.9815    5.0728 C.3       1 RES1    0.0000
     49 H26        0.9860   11.5958    4.4661 H         1 RES1    0.0000
     50 H27        1.5328   12.9615    5.0887 H         1 RES1    0.0000
     51 C23        3.0440   11.6929    4.4960 C.3       1 RES1    0.0000
     52 H28        3.2713   10.7424    4.6510 H         1 RES1    0.0000
     53 H29        3.7175   12.2481    4.9646 H         1 RES1    0.0000
     54 C24        3.1026   11.9912    2.9734 C.3       1 RES1    0.0000
     55 H30        3.9900   11.7108    2.6333 H         1 RES1    0.0000
     56 H31        2.4199   11.4378    2.5186 H         1 RES1    0.0000
     57 C25        2.8819   13.4136    2.6029 C.3       1 RES1    0.0000
     58 H32        3.5599   13.9768    3.0546 H         1 RES1    0.0000
     59 H33        1.9895   13.6980    2.9235 H         1 RES1    0.0000
     60 C26        2.9679   13.6389    1.1053 C.3       1 RES1    0.0000
     61 H34        3.8636   13.3983    0.7888 H         1 RES1    0.0000
     62 H35        2.7932   14.5831    0.9059 H         1 RES1    0.0000
     63 H36        2.3012   13.0810    0.6531 H         1 RES1    0.0000
     64 N2         4.1288    3.3496   16.5923 N.pl3     1 RES1    0.0000
     65 O1         4.2985    4.0022   17.6238 O.2       1 RES1    0.0000
     66 O2         4.2294    2.1261   16.5370 O.2       1 RES1    0.0000
     67 C27        5.2688    0.3631   12.9626 C.ar      2 RES2    0.0000
     68 C28        6.5821    0.4736   13.4775 C.ar      2 RES2    0.0000
     69 H37        7.1903    1.0810   13.0728 H         2 RES2    0.0000
     70 C29        7.0010   -0.2837   14.5587 C.ar      2 RES2    0.0000
     71 H38        7.8886   -0.2035   14.8892 H         2 RES2    0.0000
     72 C30        6.1017   -1.1668   15.1537 C.ar      2 RES2    0.0000
     73 C31        4.8062   -1.3060   14.6841 C.ar      2 RES2    0.0000
     74 H39        4.2035   -1.9114   15.0998 H         2 RES2    0.0000
     75 C32        4.4032   -0.5482   13.5976 C.ar      2 RES2    0.0000
     76 H40        3.5171   -0.6465   13.2694 H         2 RES2    0.0000
     77 C33        4.7798    1.1238   11.8137 C.2       2 RES2    0.0000
     78 H41        3.9036    0.9177   11.5116 H         2 RES2    0.0000
     79 C34        5.4377    2.0865   11.1387 C.2       2 RES2    0.0000
     80 H42        6.3097    2.3003   11.4484 H         2 RES2    0.0000
     81 C35        4.9517    2.8354    9.9819 C.ar      2 RES2    0.0000
     82 C36        5.7523    3.8331    9.3998 C.ar      2 RES2    0.0000
     83 H43        6.5981    4.0233    9.7888 H         2 RES2    0.0000
     84 C37        5.3586    4.5473    8.2847 C.ar      2 RES2    0.0000
     85 H44        5.9338    5.2187    7.9373 H         2 RES2    0.0000
     86 C38        4.1175    4.3002    7.6499 C.ar      2 RES2    0.0000
     87 C39        3.3018    3.2996    8.2390 C.ar      2 RES2    0.0000
     88 H45        2.4596    3.0990    7.8484 H         2 RES2    0.0000
     89 C40        3.7041    2.6114    9.3679 C.ar      2 RES2    0.0000
     90 H46        3.1185    1.9638    9.7420 H         2 RES2    0.0000
     91 N3         3.7058    5.0016    6.5369 N.3       2 RES2    0.0000
     92 C41        4.4734    6.1408    6.0149 C.3       2 RES2    0.0000
     93 H47        4.9028    6.6129    6.7716 H         2 RES2    0.0000
     94 H48        3.8526    6.7738    5.5755 H         2 RES2    0.0000
     95 C42        5.5355    5.7305    5.0262 C.3       2 RES2    0.0000
     96 H49        5.1146    5.2857    4.2484 H         2 RES2    0.0000
     97 H50        6.1570    5.0883    5.4515 H         2 RES2    0.0000
     98 C43        6.3343    7.0029    4.5426 C.3       2 RES2    0.0000
     99 H51        6.6767    7.4683    5.3462 H         2 RES2    0.0000
    100 H52        7.1205    6.6891    4.0283 H         2 RES2    0.0000
    101 C44        5.6184    7.9997    3.7123 C.3       2 RES2    0.0000
    102 H53        4.8291    8.3220    4.2156 H         2 RES2    0.0000
    103 H54        6.2155    8.7757    3.5649 H         2 RES2    0.0000
    104 C45        5.1935    7.5234    2.4741 C.3       2 RES2    0.0000
    105 H55        4.4703    6.8619    2.6146 H         2 RES2    0.0000
    106 H56        5.9475    7.0593    2.0317 H         2 RES2    0.0000
    107 C46        4.6402    8.7260    1.4793 C.3       2 RES2    0.0000
    108 H57        3.8160    9.1044    1.8515 H         2 RES2    0.0000
    109 H58        4.4577    8.3563    0.5922 H         2 RES2    0.0000
    110 H59        5.3189    9.4291    1.4091 H         2 RES2    0.0000
    111 C47        2.5666    4.5572    5.7333 C.3       2 RES2    0.0000
    112 H60        2.2769    5.3013    5.1495 H         2 RES2    0.0000
    113 H61        1.8139    4.3386    6.3386 H         2 RES2    0.0000
    114 C48        2.8763    3.3260    4.8565 C.3       2 RES2    0.0000
    115 H62        3.6267    3.5478    4.2507 H         2 RES2    0.0000
    116 H63        3.1732    2.5849    5.4421 H         2 RES2    0.0000
    117 C49        1.7051    2.8526    4.0276 C.3       2 RES2    0.0000
    118 H64        1.4100    3.5871    3.4338 H         2 RES2    0.0000
    119 H65        0.9524    2.6280    4.6299 H         2 RES2    0.0000
    120 C50        2.0535    1.6047    3.1599 C.3       2 RES2    0.0000
    121 H66        2.4317    0.9091    3.7545 H         2 RES2    0.0000
    122 H67        1.2115    1.2448    2.7831 H         2 RES2    0.0000
    123 C51        3.0067    1.8243    2.0411 C.3       2 RES2    0.0000
    124 H68        3.8681    2.1522    2.4016 H         2 RES2    0.0000
    125 H69        2.6464    2.5201    1.4348 H         2 RES2    0.0000
    126 C52        3.2467    0.5346    1.2453 C.3       2 RES2    0.0000
    127 H70        3.6000   -0.1562    1.8445 H         2 RES2    0.0000
    128 H71        3.8925    0.7073    0.5290 H         2 RES2    0.0000
    129 H72        2.4010    0.2285    0.8567 H         2 RES2    0.0000
    130 N4         6.5402   -1.9712   16.2966 N.pl3     2 RES2    0.0000
    131 O3         7.7004   -1.8620   16.6742 O.2       2 RES2    0.0000
    132 O4         5.7360   -2.7470   16.8072 O.2       2 RES2    0.0000
    133 C53        5.8400    8.4569    2.3313 Du        3 SUP3    0.0000
    134 H73        4.6760    7.6987    3.7217 Du        3 SUP3    0.0000
    135 H74        5.6389    8.8291    4.2530 Du        3 SUP3    0.0000
    136 H75        6.3907    7.7756    1.8702 Du        3 SUP3    0.0000
    137 H76        6.3770    9.2883    2.3688 Du        3 SUP3    0.0000
    138 H77        3.9218    9.0935    2.0364 Du        3 SUP3    0.0000
    139 H78        4.3386    7.8904    1.0674 Du        3 SUP3    0.0000
    140 H79        4.8741    9.3710    0.7795 Du        3 SUP3    0.0000
@<TRIPOS>BOND
     1    1    2 ar
     2    2    3 1
     3    4    2 ar
     4    5    4 1
     5    6    4 ar
     6    7    6 ar
     7    8    7 1
     8    9    1 ar
     9   10    9 1
    10   11    1 1
    11   12   11 1
    12   13   11 2
    13   14   13 1
    14   15   13 1
    15   16   15 ar
    16   17   16 1
    17   18   16 ar
    18   19   18 1
    19   20   18 ar
    20   21   20 ar
    21   22   21 1
    22   23   15 ar
    23   24   23 1
    24   25   20 1
    25   26   25 1
    26   27   26 1
    27   28   26 1
    28   29   26 1
    29   30   29 1
    30   31   29 1
    31   32   29 1
    32   33   32 1
    33   34   32 1
    34   35   32 1
    35   36   35 1
    36   37   35 1
    37   38   35 1
    38   39   38 1
    39   40   38 1
    40   41   38 1
    41   42   41 1
    42   43   41 1
    43   44   41 1
    44   45   25 1
    45   46   45 1
    46   47   45 1
    47   48   45 1
    48   49   48 1
    49   50   48 1
    50   51   48 1
    51   52   51 1
    52   53   51 1
    53   54   51 1
    54   55   54 1
    55   56   54 1
    56   57   54 1
    57   58   57 1
    58   59   57 1
    59   60   57 1
    60   61   60 1
    61   62   60 1
    62   63   60 1
    63   64    6 1
    64   65   64 2
    65   66   64 2
    66   67   68 ar
    67   68   69 1
    68   70   68 ar
    69   71   70 1
    70   72   70 ar
    71   73   72 ar
    72   74   73 1
    73   75   67 ar
    74   76   75 1
    75   77   67 1
    76   78   77 1
    77   79   77 2
    78   80   79 1
    79   81   79 1
    80   82   81 ar
    81   83   82 1
    82   84   82 ar
    83   85   84 1
    84   86   84 ar
    85   87   86 ar
    86   88   87 1
    87   89   81 ar
    88   90   89 1
    89   91   86 1
    90   92   91 1
    91   93   92 1
    92   94   92 1
    93   95   92 1
    94   96   95 1
    95   97   95 1
    96   98   95 1
    97   99   98 1
    98  100   98 1
    99  101   98 1
   100  102  101 1
   101  103  101 1
   102  104  101 1
   103  105  104 1
   104  106  104 1
   105  107  104 1
   106  108  107 1
   107  109  107 1
   108  110  107 1
   109  111   91 1
   110  112  111 1
   111  113  111 1
   112  114  111 1
   113  115  114 1
   114  116  114 1
   115  117  114 1
   116  118  117 1
   117  119  117 1
   118  120  117 1
   119  121  120 1
   120  122  120 1
   121  123  120 1
   122  124  123 1
   123  125  123 1
   124  126  123 1
   125  127  126 1
   126  128  126 1
   127  129  126 1
   128  130   72 1
   129  131  130 2
   130  132  130 2
   131    7    9 ar
   132   21   23 ar
   133   73   75 ar
   134   87   89 ar
@<TRIPOS>SUBSTRUCTURE
     1 RES1 1
     2 RES2 67
     3 SUP3 133

@<TRIPOS>CRYSIN
   9.6574   11.4153   23.6040  93.2970  94.8340 112.6960   2 1

