# MOL2 file generated by ConQuest
# Please check atom types

@<TRIPOS>MOLECULE
EROVOX
    43    46     1
SMALL
NO_CHARGES
****
Generated from CSD

@<TRIPOS>ATOM
      1 N1         5.9190    7.3615    8.3921 N.pl3     1 RES1    0.0000
      2 N2         6.8079    6.4845    7.8024 N.2       1 RES1    0.0000
      3 N3         2.8985   10.5047    6.9557 N.pl3     1 RES1    0.0000
      4 H1         2.4769   10.9626    6.3616 H         1 RES1    0.0000
      5 H2         2.7355   10.6315    7.7908 H         1 RES1    0.0000
      6 N4         3.0121   10.3549    3.3126 N.1       1 RES1    0.0000
      7 N5         9.3282   11.1676    4.9218 N.pl3     1 RES1    0.0000
      8 O1         4.3676    9.0205    7.6941 O.3       1 RES1    0.0000
      9 O2         9.3632   11.0298    6.1362 O.2       1 RES1    0.0000
     10 O3        10.0839   11.9075    4.3262 O.2       1 RES1    0.0000
     11 C1         5.3027    8.0666    7.4201 C.2       1 RES1    0.0000
     12 C2         5.7552    7.6895    6.2087 C.2       1 RES1    0.0000
     13 C3         6.7050    6.6875    6.4959 C.2       1 RES1    0.0000
     14 C4         7.5431    5.9321    5.5307 C.3       1 RES1    0.0000
     15 H3         8.1765    6.5269    5.1225 H         1 RES1    0.0000
     16 H4         6.9822    5.5474    4.8540 H         1 RES1    0.0000
     17 H5         8.0125    5.2329    5.9933 H         1 RES1    0.0000
     18 C5         3.8048    9.5995    6.5820 C.2       1 RES1    0.0000
     19 C6         4.1764    9.2804    5.3193 C.2       1 RES1    0.0000
     20 C7         5.2897    8.3158    4.9394 C.3       1 RES1    0.0000
     21 H6         4.9154    7.6164    4.3647 H         1 RES1    0.0000
     22 C8         6.4074    9.0211    4.1824 C.ar      1 RES1    0.0000
     23 C9         7.3519    9.7580    4.8645 C.ar      1 RES1    0.0000
     24 H7         7.3213    9.8133    5.7926 H         1 RES1    0.0000
     25 C10        8.3355   10.4081    4.1679 C.ar      1 RES1    0.0000
     26 C11        8.4283   10.3535    2.8026 C.ar      1 RES1    0.0000
     27 H8         9.1065   10.7998    2.3492 H         1 RES1    0.0000
     28 C12        7.4932    9.6227    2.1298 C.ar      1 RES1    0.0000
     29 H9         7.5351    9.5657    1.2019 H         1 RES1    0.0000
     30 C13        6.4889    8.9693    2.8073 C.ar      1 RES1    0.0000
     31 H10        5.8548    8.4846    2.3293 H         1 RES1    0.0000
     32 C14        3.5029    9.8954    4.2384 C.1       1 RES1    0.0000
     33 C15        5.7863    7.3588    9.8068 C.ar      1 RES1    0.0000
     34 C16        4.7322    7.9689   10.4353 C.ar      1 RES1    0.0000
     35 H11        4.0953    8.4317    9.9392 H         1 RES1    0.0000
     36 C17        4.6210    7.8919   11.8125 C.ar      1 RES1    0.0000
     37 H12        3.9063    8.3023   12.2419 H         1 RES1    0.0000
     38 C18        5.5552    7.2129   12.5450 C.ar      1 RES1    0.0000
     39 H13        5.4662    7.1475   13.4690 H         1 RES1    0.0000
     40 C19        6.6138    6.6341   11.9189 C.ar      1 RES1    0.0000
     41 H14        7.2576    6.1902   12.4214 H         1 RES1    0.0000
     42 C20        6.7460    6.6967   10.5495 C.ar      1 RES1    0.0000
     43 H15        7.4730    6.2987   10.1294 H         1 RES1    0.0000
@<TRIPOS>BOND
     1    1    2 1
     2    2   13 2
     3    3    4 1
     4    5    3 1
     5    6   32 3
     6    7    9 2
     7    8   11 1
     8   10    7 2
     9   11    1 1
    10   12   11 2
    11   13   12 1
    12   14   13 1
    13   15   14 1
    14   16   14 1
    15   17   14 1
    16   18    3 1
    17   19   18 2
    18   20   12 1
    19   21   20 1
    20   22   20 1
    21   23   22 ar
    22   24   23 1
    23   25    7 1
    24   26   25 ar
    25   27   26 1
    26   28   26 ar
    27   29   28 1
    28   30   22 ar
    29   31   30 1
    30   32   19 1
    31   33    1 1
    32   34   33 ar
    33   35   34 1
    34   36   34 ar
    35   37   36 1
    36   38   36 ar
    37   39   38 1
    38   40   38 ar
    39   41   40 1
    40   42   33 ar
    41   43   42 1
    42    8   18 1
    43   19   20 1
    44   23   25 ar
    45   28   30 ar
    46   40   42 ar
@<TRIPOS>SUBSTRUCTURE
     1 RES1 1

@<TRIPOS>CRYSIN
   9.5089   13.9137   13.3747  90.0000  96.2630  90.0000  14 1

