# MOL2 file generated by ConQuest
# Please check atom types

@<TRIPOS>MOLECULE
ERUCAW
   108   112     4
SMALL
USER_CHARGES
****
Generated from CSD

@<TRIPOS>ATOM
      1 O1        11.1012    1.8926    5.6904 O.3       1 RES1    0.0000
      2 O2        10.2891    0.0077    4.7072 O.2       1 RES1    0.0000
      3 O3         7.7360    0.3280    8.2958 O.2       1 RES1   -1.0000
      4 O4         8.9478    3.7326   12.6615 O.3       1 RES1    0.0000
      5 N1        10.0200    1.9446    7.5119 N.pl3     1 RES1    1.0000
      6 N2        10.9335    2.5901    6.8566 N.2       1 RES1    0.0000
      7 C1        10.2560    0.7491    5.6580 C.2       1 RES1    0.0000
      8 C2         9.5461    0.8250    6.8901 C.2       1 RES1    0.0000
      9 C3         9.7205    2.4436    8.8311 C.ar      1 RES1    0.0000
     10 C4         9.3318    3.7638    8.9855 C.ar      1 RES1    0.0000
     11 H1         9.2362    4.3207    8.2470 H         1 RES1    0.0000
     12 C5         9.0865    4.2405   10.2743 C.ar      1 RES1    0.0000
     13 H2         8.8439    5.1284   10.4035 H         1 RES1    0.0000
     14 C6         9.2045    3.3838   11.3705 C.ar      1 RES1    0.0000
     15 C7         9.6108    2.0567   11.1813 C.ar      1 RES1    0.0000
     16 H3         9.7023    1.4914   11.9141 H         1 RES1    0.0000
     17 C8         9.8760    1.5849    9.9091 C.ar      1 RES1    0.0000
     18 H4        10.1532    0.7070    9.7795 H         1 RES1    0.0000
     19 C9         8.4306   -0.0039    7.3481 C.2       1 RES1    0.0000
     20 C10        8.1762   -1.2715    6.5862 C.3       1 RES1    0.0000
     21 H5         7.3801   -1.6913    6.9203 H         1 RES1    0.0000
     22 H6         8.9220   -1.8665    6.6970 H         1 RES1    0.0000
     23 H7         8.0640   -1.0683    5.6549 H         1 RES1    0.0000
     24 C11        8.5078    5.0626   12.9187 C.3       1 RES1    0.0000
     25 H8         8.3587    5.1741   13.8603 H         1 RES1    0.0000
     26 H9         7.6897    5.2271   12.4439 H         1 RES1    0.0000
     27 H10        9.1780    5.6840   12.6256 H         1 RES1    0.0000
     28 O5         6.5738    2.0930    5.8546 O.3       2 RES2    0.0000
     29 O6         5.7489    0.3219    4.6873 O.2       2 RES2    0.0000
     30 O7         3.0265    0.3908    8.1610 O.2       2 RES2   -1.0000
     31 O8         4.1838    3.8276   12.7239 O.3       2 RES2    0.0000
     32 N3         5.3411    2.1032    7.5795 N.pl3     2 RES2    1.0000
     33 N4         6.3484    2.7274    7.0495 N.2       2 RES2    0.0000
     34 C12        5.6556    1.0127    5.6729 C.2       2 RES2    0.0000
     35 C13        4.8429    1.0616    6.8338 C.2       2 RES2    0.0000
     36 C14        4.9806    2.5436    8.9119 C.ar      2 RES2    0.0000
     37 C15        5.9568    2.4734    9.9006 C.ar      2 RES2    0.0000
     38 H11        6.8010    2.1318    9.7095 H         2 RES2    0.0000
     39 C16        5.6507    2.9189   11.1708 C.ar      2 RES2    0.0000
     40 H12        6.2913    2.8830   11.8440 H         2 RES2    0.0000
     41 C17        4.3811    3.4228   11.4399 C.ar      2 RES2    0.0000
     42 C18        3.4109    3.4910   10.4339 C.ar      2 RES2    0.0000
     43 H13        2.5642    3.8275   10.6224 H         2 RES2    0.0000
     44 C19        3.7218    3.0539    9.1499 C.ar      2 RES2    0.0000
     45 H14        3.0925    3.1033    8.4660 H         2 RES2    0.0000
     46 C20        3.7380    0.1910    7.1920 C.2       2 RES2    0.0000
     47 C21        3.5177   -0.9870    6.2813 C.3       2 RES2    0.0000
     48 H15        2.7232   -1.4547    6.5503 H         2 RES2    0.0000
     49 H16        4.2709   -1.5791    6.3358 H         2 RES2    0.0000
     50 H17        3.4173   -0.6787    5.3769 H         2 RES2    0.0000
     51 C22        2.8903    4.3533   13.0571 C.3       2 RES2    0.0000
     52 H18        2.8774    4.6108   13.9808 H         2 RES2    0.0000
     53 H19        2.2226    3.6815   12.9036 H         2 RES2    0.0000
     54 H20        2.7054    5.1189   12.5096 H         2 RES2    0.0000
     55 O9         8.9546    3.7072    5.0318 O.3       3 RES3    0.0000
     56 O10        8.0587    5.4655    6.1622 O.2       3 RES3    0.0000
     57 O11        5.3535    5.2516    2.6584 O.2       3 RES3   -1.0000
     58 O12        6.5699    1.7032   -1.7948 O.3       3 RES3    0.0000
     59 N5         7.7208    3.6086    3.3019 N.pl3     3 RES3    1.0000
     60 N6         8.7472    3.0305    3.8590 N.2       3 RES3    0.0000
     61 C23        7.9945    4.7527    5.1882 C.2       3 RES3    0.0000
     62 C24        7.1916    4.6500    4.0186 C.2       3 RES3    0.0000
     63 C25        7.3733    3.1168    1.9800 C.ar      3 RES3    0.0000
     64 C26        8.3570    3.1425    1.0071 C.ar      3 RES3    0.0000
     65 H21        9.2034    3.4798    1.1932 H         3 RES3    0.0000
     66 C27        8.0484    2.6519   -0.2586 C.ar      3 RES3    0.0000
     67 H22        8.6936    2.6559   -0.9283 H         3 RES3    0.0000
     68 C28        6.7776    2.1563   -0.5230 C.ar      3 RES3    0.0000
     69 C29        5.8034    2.1379    0.4720 C.ar      3 RES3    0.0000
     70 H23        4.9529    1.8088    0.2890 H         3 RES3    0.0000
     71 C30        6.1114    2.6144    1.7396 C.ar      3 RES3    0.0000
     72 H24        5.4746    2.5958    2.4170 H         3 RES3    0.0000
     73 C31        6.0528    5.4831    3.6379 C.2       3 RES3    0.0000
     74 C32        5.7785    6.6583    4.5336 C.3       3 RES3    0.0000
     75 H25        4.9409    7.0587    4.2866 H         3 RES3    0.0000
     76 H26        6.4824    7.3036    4.4399 H         3 RES3    0.0000
     77 H27        5.7350    6.3614    5.4447 H         3 RES3    0.0000
     78 C33        5.2891    1.1329   -2.0921 C.3       3 RES3    0.0000
     79 H28        5.2836    0.8129   -2.9971 H         3 RES3    0.0000
     80 H29        4.6082    1.8012   -1.9835 H         3 RES3    0.0000
     81 H30        5.1179    0.4022   -1.4931 H         3 RES3    0.0000
     82 O13       10.4337    7.5784   16.6480 O.3       4 RES4    0.0000
     83 O14       11.2223    5.6691   15.6901 O.2       4 RES4    0.0000
     84 O15       13.7482    5.9530   19.3206 O.2       4 RES4   -1.0000
     85 O16       12.5119    9.4081   23.6532 O.3       4 RES4    0.0000
     86 N7        11.5064    7.6143   18.4872 N.pl3     4 RES4    1.0000
     87 N8        10.6036    8.2733   17.8168 N.2       4 RES4    0.0000
     88 C34       11.2596    6.4122   16.6375 C.2       4 RES4    0.0000
     89 C35       11.9608    6.4825   17.8772 C.2       4 RES4    0.0000
     90 C36       11.8025    8.1110   19.8165 C.ar      4 RES4    0.0000
     91 C37       11.6430    7.2455   20.8991 C.ar      4 RES4    0.0000
     92 H31       11.3697    6.3665   20.7675 H         4 RES4    0.0000
     93 C38       11.9004    7.7200   22.1643 C.ar      4 RES4    0.0000
     94 H32       11.8124    7.1536   22.8955 H         4 RES4    0.0000
     95 C39       12.2947    9.0564   22.3585 C.ar      4 RES4    0.0000
     96 C40       12.4232    9.9113   21.2656 C.ar      4 RES4    0.0000
     97 H33       12.6678   10.7992   21.3937 H         4 RES4    0.0000
     98 C41       12.1840    9.4253   19.9728 C.ar      4 RES4    0.0000
     99 H34       12.2797    9.9812   19.2328 H         4 RES4    0.0000
    100 C42       13.0598    5.6369   18.3613 C.2       4 RES4    0.0000
    101 C43       13.3002    4.3646   17.6066 C.3       4 RES4    0.0000
    102 H35       14.0665    3.9153   17.9718 H         4 RES4    0.0000
    103 H36       13.4583    4.5662   16.6823 H         4 RES4    0.0000
    104 H37       12.5291    3.7969   17.6828 H         4 RES4    0.0000
    105 C44       12.8891   10.7647   23.9297 C.3       4 RES4    0.0000
    106 H38       13.0042   10.8785   24.8768 H         4 RES4    0.0000
    107 H39       12.2018   11.3579   23.6180 H         4 RES4    0.0000
    108 H40       13.7132   10.9658   23.4801 H         4 RES4    0.0000
@<TRIPOS>BOND
     1    1    6 1
     2    2    7 2
     3    3   19 1
     4    4   14 1
     5    5    6 2
     6    7    1 1
     7    8    5 1
     8    9    5 1
     9   10    9 ar
    10   11   10 1
    11   12   10 ar
    12   13   12 1
    13   14   12 ar
    14   15   14 ar
    15   16   15 1
    16   17    9 ar
    17   18   17 1
    18   19    8 2
    19   20   19 1
    20   21   20 1
    21   22   20 1
    22   23   20 1
    23   24    4 1
    24   25   24 1
    25   26   24 1
    26   27   24 1
    27   28   33 1
    28   29   34 2
    29   30   46 1
    30   31   41 1
    31   32   33 2
    32   34   28 1
    33   35   32 1
    34   36   32 1
    35   37   36 ar
    36   38   37 1
    37   39   37 ar
    38   40   39 1
    39   41   39 ar
    40   42   41 ar
    41   43   42 1
    42   44   36 ar
    43   45   44 1
    44   46   35 2
    45   47   46 1
    46   48   47 1
    47   49   47 1
    48   50   47 1
    49   51   31 1
    50   52   51 1
    51   53   51 1
    52   54   51 1
    53   55   60 1
    54   56   61 2
    55   57   73 1
    56   58   68 1
    57   59   60 2
    58   61   55 1
    59   62   59 1
    60   63   59 1
    61   64   63 ar
    62   65   64 1
    63   66   64 ar
    64   67   66 1
    65   68   66 ar
    66   69   68 ar
    67   70   69 1
    68   71   63 ar
    69   72   71 1
    70   73   62 2
    71   74   73 1
    72   75   74 1
    73   76   74 1
    74   77   74 1
    75   78   58 1
    76   79   78 1
    77   80   78 1
    78   81   78 1
    79   82   87 1
    80   83   88 2
    81   84  100 1
    82   85   95 1
    83   86   87 2
    84   88   82 1
    85   89   86 1
    86   90   86 1
    87   91   90 ar
    88   92   91 1
    89   93   91 ar
    90   94   93 1
    91   95   93 ar
    92   96   95 ar
    93   97   96 1
    94   98   90 ar
    95   99   98 1
    96  100   89 2
    97  101  100 1
    98  102  101 1
    99  103  101 1
   100  104  101 1
   101  105   85 1
   102  106  105 1
   103  107  105 1
   104  108  105 1
   105    7    8 1
   106   15   17 ar
   107   34   35 1
   108   42   44 ar
   109   61   62 1
   110   69   71 ar
   111   88   89 1
   112   96   98 ar
@<TRIPOS>SUBSTRUCTURE
     1 RES1 1
     2 RES2 28
     3 RES3 55
     4 RES4 82

@<TRIPOS>CRYSIN
   9.6338   10.0679   22.4108  86.9380  78.0490  89.8910   2 1

