# MOL2 file generated by ConQuest
# Please check atom types

@<TRIPOS>MOLECULE
ERUDAX
    22    22     1
SMALL
NO_CHARGES
****
Generated from CSD

@<TRIPOS>ATOM
      1 C1         1.1711   -0.1829    3.3059 C.3       1 RES1    0.0000
      2 H1         1.5892    0.4331    3.9122 H         1 RES1    0.0000
      3 H2         1.6394   -1.0207    3.3277 H         1 RES1    0.0000
      4 H3         0.2575   -0.3194    3.5675 H         1 RES1    0.0000
      5 C2         0.6068    1.5413    1.7995 C.2       1 RES1    0.0000
      6 C3         0.2817    3.0942   -0.0936 C.ar      1 RES1    0.0000
      7 C4        -0.2848    4.1525    0.6055 C.ar      1 RES1    0.0000
      8 H4        -0.3997    4.0978    1.5266 H         1 RES1    0.0000
      9 C5        -0.6725    5.2785   -0.0735 C.ar      1 RES1    0.0000
     10 H5        -1.0494    5.9924    0.3883 H         1 RES1    0.0000
     11 C6        -0.5035    5.3523   -1.4386 C.ar      1 RES1    0.0000
     12 C7         0.0709    4.3209   -2.1523 C.ar      1 RES1    0.0000
     13 H6         0.1945    4.3880   -3.0710 H         1 RES1    0.0000
     14 C8         0.4525    3.2003   -1.4741 C.ar      1 RES1    0.0000
     15 H7         0.8339    2.4925   -1.9416 H         1 RES1    0.0000
     16 N1        -0.9349    6.5436   -2.1555 N.pl3     1 RES1    0.0000
     17 N2         0.7118    1.9032    0.5038 N.am      1 RES1    0.0000
     18 O1         1.2117    0.3567    1.9674 O.3       1 RES1    0.0000
     19 O2         0.0646    2.1611    2.6722 O.2       1 RES1    0.0000
     20 O3        -1.5305    7.4189   -1.5428 O.2       1 RES1    0.0000
     21 O4        -0.7025    6.6288   -3.3415 O.2       1 RES1    0.0000
     22 H8         1.0645    1.3512    0.0081 H         1 RES1    0.0000
@<TRIPOS>BOND
     1    1    2 1
     2    3    1 1
     3    4    1 1
     4    5   17 1
     5    6    7 ar
     6    7    8 1
     7    9    7 ar
     8   10    9 1
     9   11    9 ar
    10   12   11 ar
    11   13   12 1
    12   14    6 ar
    13   15   14 1
    14   16   11 1
    15   17    6 1
    16   18    1 1
    17   19    5 2
    18   20   16 2
    19   21   16 2
    20   22   17 1
    21    5   18 1
    22   12   14 ar
@<TRIPOS>SUBSTRUCTURE
     1 RES1 1

@<TRIPOS>CRYSIN
   7.4269    8.1003    8.5376 101.6340  97.9140 116.6600   2 1

