# MOL2 file generated by ConQuest
# Please check atom types

@<TRIPOS>MOLECULE
ERUGEE
    40    43     1
SMALL
NO_CHARGES
****
Generated from CSD

@<TRIPOS>ATOM
      1 N1        -0.2869    0.2272   12.2469 N.pl3     1 RES1    0.0000
      2 H1        -1.0551   -0.1059   12.5542 H         1 RES1    0.0000
      3 C1        -0.3937    1.5328   11.8848 C.2       1 RES1    0.0000
      4 N2         0.5082    2.3800   11.5356 N.2       1 RES1    0.0000
      5 C2        -1.8226    2.0652   11.9784 C.2       1 RES1    0.0000
      6 O1        -2.7452    1.3501   12.3365 O.2       1 RES1    0.0000
      7 N3        -1.9104    3.3786   11.6462 N.am      1 RES1    0.0000
      8 H2        -1.1263    3.7146   11.4337 H         1 RES1    0.0000
      9 C3         1.9038    2.1478   11.6409 C.ar      1 RES1    0.0000
     10 C4         2.6400    3.3281   11.7857 C.ar      1 RES1    0.0000
     11 H3         2.1877    4.1631   11.7488 H         1 RES1    0.0000
     12 C5         4.0125    3.3127   11.9808 C.ar      1 RES1    0.0000
     13 H4         4.4944    4.1253   12.0757 H         1 RES1    0.0000
     14 C6         4.6719    2.0922   12.0355 C.ar      1 RES1    0.0000
     15 H5         5.6059    2.0622   12.2062 H         1 RES1    0.0000
     16 C7         3.9630    0.9168   11.8401 C.ar      1 RES1    0.0000
     17 H6         4.4319    0.0903   11.8569 H         1 RES1    0.0000
     18 C8         2.5758    0.9058   11.6177 C.ar      1 RES1    0.0000
     19 C9         0.5853   -0.6954   11.6079 C.ar      1 RES1    0.0000
     20 C10        0.0446   -1.9400   11.2918 C.ar      1 RES1    0.0000
     21 H7        -0.8614   -2.1276   11.5075 H         1 RES1    0.0000
     22 C11        0.8173   -2.9084   10.6635 C.ar      1 RES1    0.0000
     23 H8         0.4427   -3.7560   10.4530 H         1 RES1    0.0000
     24 C12        2.1393   -2.6310   10.3455 C.ar      1 RES1    0.0000
     25 H9         2.6779   -3.2890    9.9218 H         1 RES1    0.0000
     26 C13        2.6675   -1.3875   10.6517 C.ar      1 RES1    0.0000
     27 H10        3.5682   -1.2020   10.4135 H         1 RES1    0.0000
     28 C14        1.9202   -0.3909   11.3009 C.ar      1 RES1    0.0000
     29 N4        -2.7236    5.4738   11.2823 N.ar      1 RES1    0.0000
     30 C15       -3.7160    6.3652   11.2360 C.ar      1 RES1    0.0000
     31 H11       -3.5170    7.2661   11.0093 H         1 RES1    0.0000
     32 C16       -5.0244    6.0167   11.5081 C.ar      1 RES1    0.0000
     33 C17       -5.3384    4.7133   11.8638 C.ar      1 RES1    0.0000
     34 H12       -6.2366    4.4661   12.0519 H         1 RES1    0.0000
     35 C18       -4.3233    3.7824   11.9391 C.ar      1 RES1    0.0000
     36 H13       -4.4956    2.8838   12.1943 H         1 RES1    0.0000
     37 C19       -3.0292    4.2129   11.6249 C.ar      1 RES1    0.0000
     38 N5        -6.0783    7.0264   11.3955 N.pl3     1 RES1    0.0000
     39 O2        -7.2430    6.6450   11.4461 O.2       1 RES1    0.0000
     40 O3        -5.7363    8.1977   11.2506 O.2       1 RES1    0.0000
@<TRIPOS>BOND
     1    1    2 1
     2    3    1 1
     3    4    3 2
     4    5    3 1
     5    6    5 2
     6    7    5 1
     7    8    7 1
     8    9    4 1
     9   10    9 ar
    10   11   10 1
    11   12   10 ar
    12   13   12 1
    13   14   12 ar
    14   15   14 1
    15   16   14 ar
    16   17   16 1
    17   18    9 ar
    18   19    1 1
    19   20   19 ar
    20   21   20 1
    21   22   20 ar
    22   23   22 1
    23   24   22 ar
    24   25   24 1
    25   26   24 ar
    26   27   26 1
    27   28   18 1
    28   29   30 ar
    29   30   31 1
    30   32   30 ar
    31   33   32 ar
    32   34   33 1
    33   35   33 ar
    34   36   35 1
    35   37    7 1
    36   38   32 1
    37   39   38 2
    38   40   38 2
    39   16   18 ar
    40   19   28 ar
    41   26   28 ar
    42   29   37 ar
    43   35   37 ar
@<TRIPOS>SUBSTRUCTURE
     1 RES1 1

@<TRIPOS>CRYSIN
  12.9702    9.2104   13.4145  90.0000 100.6920  90.0000  14 1

