# MOL2 file generated by ConQuest
# Please check atom types

@<TRIPOS>MOLECULE
ERUHEF
    51    53     1
SMALL
NO_CHARGES
****
Generated from CSD

@<TRIPOS>ATOM
      1 N1         2.0316    4.7455    3.2081 N.2       1 RES1    0.0000
      2 O1         3.1031    5.1060    2.3638 O.3       1 RES1    0.0000
      3 O2         1.7635    0.9679    4.7357 O.2       1 RES1    0.0000
      4 O3        -0.2335    1.3630    5.5533 O.3       1 RES1    0.0000
      5 O4        -4.5175    2.0356    7.5305 O.3       1 RES1    0.0000
      6 C1         5.5274    7.1646    2.3895 C.ar      1 RES1    0.0000
      7 H1         5.4645    7.0956    3.3150 H         1 RES1    0.0000
      8 C2         6.7128    7.4985    1.8302 C.ar      1 RES1    0.0000
      9 H2         7.4528    7.6482    2.3738 H         1 RES1    0.0000
     10 C3         6.8319    7.6146    0.5022 C.ar      1 RES1    0.0000
     11 H3         7.6516    7.8472    0.1301 H         1 RES1    0.0000
     12 C4         5.7541    7.3910   -0.3101 C.ar      1 RES1    0.0000
     13 H4         5.8358    7.4733   -1.2331 H         1 RES1    0.0000
     14 C5         4.5295    7.0397    0.2615 C.ar      1 RES1    0.0000
     15 H5         3.7918    6.8833   -0.2821 H         1 RES1    0.0000
     16 C6         4.4138    6.9248    1.6224 C.ar      1 RES1    0.0000
     17 C7         3.1304    6.5302    2.2631 C.3       1 RES1    0.0000
     18 H6         3.0626    6.9271    3.1460 H         1 RES1    0.0000
     19 H7         2.3821    6.8404    1.7305 H         1 RES1    0.0000
     20 C8         1.8921    3.4754    3.2608 C.2       1 RES1    0.0000
     21 C9         2.7518    2.5037    2.5173 C.3       1 RES1    0.0000
     22 H8         2.9903    2.8759    1.6648 H         1 RES1    0.0000
     23 H9         2.2689    1.6847    2.3847 H         1 RES1    0.0000
     24 H10        3.5479    2.3281    3.0232 H         1 RES1    0.0000
     25 C10        0.7551    3.0352    4.1063 C.2       1 RES1    0.0000
     26 C11        0.8417    1.7458    4.7827 C.2       1 RES1    0.0000
     27 C12       -1.3440    2.1532    5.7360 C.ar      1 RES1    0.0000
     28 C13       -0.3451    3.8009    4.2926 C.2       1 RES1    0.0000
     29 H11       -0.3965    4.6228    3.8610 H         1 RES1    0.0000
     30 C14       -1.4296    3.3936    5.1270 C.ar      1 RES1    0.0000
     31 C15       -2.5812    4.1522    5.3816 C.ar      1 RES1    0.0000
     32 H12       -2.6704    4.9916    4.9908 H         1 RES1    0.0000
     33 C16       -3.5730    3.6840    6.1913 C.ar      1 RES1    0.0000
     34 H13       -4.3216    4.2080    6.3613 H         1 RES1    0.0000
     35 C17       -2.3388    1.6382    6.5459 C.ar      1 RES1    0.0000
     36 H14       -2.2538    0.7964    6.9304 H         1 RES1    0.0000
     37 C18       -3.4619    2.4110    6.7665 C.ar      1 RES1    0.0000
     38 C19       -4.5441    0.6739    8.0071 C.3       1 RES1    0.0000
     39 H15       -3.8716    0.5463    8.6949 H         1 RES1    0.0000
     40 H16       -4.3596    0.0608    7.2782 H         1 RES1    0.0000
     41 C20       -5.9006    0.4181    8.5625 C.2       1 RES1    0.0000
     42 H17       -6.6103    0.4889    7.9653 H         1 RES1    0.0000
     43 C21       -6.2102    0.1040    9.8021 C.2       1 RES1    0.0000
     44 C22       -5.2226   -0.0187   10.9106 C.3       1 RES1    0.0000
     45 H18       -4.3408    0.1594   10.5750 H         1 RES1    0.0000
     46 H19       -5.2541   -0.9072   11.2705 H         1 RES1    0.0000
     47 H20       -5.4359    0.6142   11.6001 H         1 RES1    0.0000
     48 C23       -7.6336   -0.1670   10.2053 C.3       1 RES1    0.0000
     49 H21       -8.2105   -0.0382    9.4489 H         1 RES1    0.0000
     50 H22       -7.8878    0.4362   10.9069 H         1 RES1    0.0000
     51 H23       -7.7113   -1.0710   10.5166 H         1 RES1    0.0000
@<TRIPOS>BOND
     1    1    2 1
     2    2   17 1
     3    3   26 2
     4    4   26 1
     5    5   37 1
     6    6    7 1
     7    8    6 ar
     8    9    8 1
     9   10    8 ar
    10   11   10 1
    11   12   10 ar
    12   13   12 1
    13   14   12 ar
    14   15   14 1
    15   16    6 ar
    16   17   16 1
    17   18   17 1
    18   19   17 1
    19   20    1 2
    20   21   20 1
    21   22   21 1
    22   23   21 1
    23   24   21 1
    24   25   20 1
    25   26   25 1
    26   27    4 1
    27   28   25 2
    28   29   28 1
    29   30   27 ar
    30   31   30 ar
    31   32   31 1
    32   33   31 ar
    33   34   33 1
    34   35   27 ar
    35   36   35 1
    36   37   33 ar
    37   38    5 1
    38   39   38 1
    39   40   38 1
    40   41   38 1
    41   42   41 1
    42   43   41 2
    43   44   43 1
    44   45   44 1
    45   46   44 1
    46   47   44 1
    47   48   43 1
    48   49   48 1
    49   50   48 1
    50   51   48 1
    51   14   16 ar
    52   28   30 1
    53   35   37 ar
@<TRIPOS>SUBSTRUCTURE
     1 RES1 1

@<TRIPOS>CRYSIN
   7.3038   11.4670   12.1840  92.3680  92.0670 102.3400   2 1

