# MOL2 file generated by ConQuest
# Please check atom types

@<TRIPOS>MOLECULE
ERULUA
    55    59     1
SMALL
NO_CHARGES
****
Generated from CSD

@<TRIPOS>ATOM
      1 N1         1.5554    1.9658    1.4117 N.3       1 RES1    0.0000
      2 N2         0.7880    3.4048    3.0776 N.am      1 RES1    0.0000
      3 O1         2.7910    2.7619    1.4480 O.3       1 RES1    0.0000
      4 O2         1.0846    5.6173    2.7856 O.2       1 RES1    0.0000
      5 O3        -0.1525    3.6194    4.0872 O.3       1 RES1    0.0000
      6 C1         1.0252    2.0021    2.7754 C.3       1 RES1    0.0000
      7 H1         0.1523    1.5560    2.7587 H         1 RES1    0.0000
      8 C2         1.8760    1.2831    3.7860 C.ar      1 RES1    0.0000
      9 C3         2.1409    1.7301    5.0675 C.ar      1 RES1    0.0000
     10 H2         1.8238    2.5579    5.3478 H         1 RES1    0.0000
     11 C4         2.8841    0.9367    5.9353 C.ar      1 RES1    0.0000
     12 H3         3.0562    1.2323    6.7989 H         1 RES1    0.0000
     13 C5         3.3652   -0.2883    5.5180 C.ar      1 RES1    0.0000
     14 H4         3.8664   -0.8143    6.0994 H         1 RES1    0.0000
     15 C6         3.1022   -0.7299    4.2344 C.ar      1 RES1    0.0000
     16 H5         3.4154   -1.5614    3.9619 H         1 RES1    0.0000
     17 C7         2.3778    0.0490    3.3496 C.ar      1 RES1    0.0000
     18 C8         2.2371   -0.2820    1.9423 C.2       1 RES1    0.0000
     19 H6         2.3390   -1.1679    1.6756 H         1 RES1    0.0000
     20 C9         1.9646    0.6438    1.0140 C.2       1 RES1    0.0000
     21 C10        2.0917    0.4497   -0.4513 C.ar      1 RES1    0.0000
     22 C11        1.2910    1.1525   -1.3326 C.ar      1 RES1    0.0000
     23 H7         0.6531    1.7428   -1.0022 H         1 RES1    0.0000
     24 C12        1.4259    0.9902   -2.7063 C.ar      1 RES1    0.0000
     25 H8         0.8770    1.4617   -3.2911 H         1 RES1    0.0000
     26 C13        2.3789    0.1251   -3.1964 C.ar      1 RES1    0.0000
     27 H9         2.4800    0.0218   -4.1159 H         1 RES1    0.0000
     28 C14        3.1801   -0.5867   -2.3377 C.ar      1 RES1    0.0000
     29 H10        3.8154   -1.1770   -2.6726 H         1 RES1    0.0000
     30 C15        3.0389   -0.4207   -0.9686 C.ar      1 RES1    0.0000
     31 H11        3.5870   -0.8995   -0.3889 H         1 RES1    0.0000
     32 C16        2.4418    4.1547    1.4503 C.3       1 RES1    0.0000
     33 C17        1.3795    4.4657    2.5121 C.2       1 RES1    0.0000
     34 C18       -1.4376    3.9362    3.5005 C.3       1 RES1    0.0000
     35 H12       -1.6809    3.2625    2.8475 H         1 RES1    0.0000
     36 H13       -1.3985    4.7967    3.0562 H         1 RES1    0.0000
     37 C19       -2.4514    3.9716    4.6068 C.ar      1 RES1    0.0000
     38 C20       -2.5601    2.9270    5.5018 C.ar      1 RES1    0.0000
     39 H14       -1.9737    2.2070    5.4417 H         1 RES1    0.0000
     40 C21       -3.5324    2.9370    6.4889 C.ar      1 RES1    0.0000
     41 H15       -3.5882    2.2333    7.0938 H         1 RES1    0.0000
     42 C22       -4.4095    3.9815    6.5718 C.ar      1 RES1    0.0000
     43 H16       -5.0708    3.9834    7.2269 H         1 RES1    0.0000
     44 C23       -4.3149    5.0225    5.6905 C.ar      1 RES1    0.0000
     45 H17       -4.9158    5.7298    5.7445 H         1 RES1    0.0000
     46 C24       -3.3274    5.0297    4.7198 C.ar      1 RES1    0.0000
     47 H18       -3.2537    5.7542    4.1394 H         1 RES1    0.0000
     48 C25        1.9364    4.6018    0.0882 C.3       1 RES1    0.0000
     49 H19        2.5961    4.4005   -0.5794 H         1 RES1    0.0000
     50 H20        1.7735    5.5475    0.1018 H         1 RES1    0.0000
     51 H21        1.1213    4.1384   -0.1174 H         1 RES1    0.0000
     52 C26        3.7345    4.8457    1.8429 C.3       1 RES1    0.0000
     53 H22        4.0177    4.5301    2.7039 H         1 RES1    0.0000
     54 H23        3.5921    5.7941    1.8818 H         1 RES1    0.0000
     55 H24        4.4131    4.6498    1.1927 H         1 RES1    0.0000
@<TRIPOS>BOND
     1    1    3 1
     2    2    5 1
     3    3   32 1
     4    4   33 2
     5    5   34 1
     6    6    1 1
     7    7    6 1
     8    8    6 1
     9    9    8 ar
    10   10    9 1
    11   11    9 ar
    12   12   11 1
    13   13   11 ar
    14   14   13 1
    15   15   13 ar
    16   16   15 1
    17   17    8 ar
    18   18   17 1
    19   19   18 1
    20   20    1 1
    21   21   20 1
    22   22   21 ar
    23   23   22 1
    24   24   22 ar
    25   25   24 1
    26   26   24 ar
    27   27   26 1
    28   28   26 ar
    29   29   28 1
    30   30   21 ar
    31   31   30 1
    32   32   33 1
    33   33    2 1
    34   34   35 1
    35   36   34 1
    36   37   34 1
    37   38   37 ar
    38   39   38 1
    39   40   38 ar
    40   41   40 1
    41   42   40 ar
    42   43   42 1
    43   44   42 ar
    44   45   44 1
    45   46   37 ar
    46   47   46 1
    47   48   32 1
    48   49   48 1
    49   50   48 1
    50   51   48 1
    51   52   32 1
    52   53   52 1
    53   54   52 1
    54   55   52 1
    55    2    6 1
    56   15   17 ar
    57   18   20 2
    58   28   30 ar
    59   44   46 ar
@<TRIPOS>SUBSTRUCTURE
     1 RES1 1

@<TRIPOS>CRYSIN
   9.1828    9.0675   26.1070  90.0000  91.3760  90.0000 231 1

