# MOL2 file generated by ConQuest
# Please check atom types

@<TRIPOS>MOLECULE
ERUSUH
    38    41     1
SMALL
NO_CHARGES
****
Generated from CSD

@<TRIPOS>ATOM
      1 N1        19.1731    3.9480    4.4500 N.3       1 RES1    0.0000
      2 H1        19.1235    3.0818    4.6871 H         1 RES1    0.0000
      3 N2        24.0974    7.4872    4.6083 N.pl3     1 RES1    0.0000
      4 O1        22.8266    3.0827    2.8782 O.3       1 RES1    0.0000
      5 H2        23.4822    2.7365    2.5300 H         1 RES1    0.0000
      6 O2        24.8362    6.5493    4.8391 O.2       1 RES1    0.0000
      7 O3        24.4668    8.6581    4.6878 O.2       1 RES1    0.0000
      8 C1        18.1456    4.0145    2.2281 C.ar      1 RES1    0.0000
      9 C2        18.0559    4.2150    3.6124 C.ar      1 RES1    0.0000
     10 C3        16.8516    4.6166    4.1945 C.ar      1 RES1    0.0000
     11 H3        16.7904    4.7243    5.1163 H         1 RES1    0.0000
     12 C4        15.7472    4.8528    3.3923 C.ar      1 RES1    0.0000
     13 H4        14.9419    5.1131    3.7799 H         1 RES1    0.0000
     14 C5        15.8319    4.7072    2.0359 C.ar      1 RES1    0.0000
     15 H5        15.0899    4.8839    1.5032 H         1 RES1    0.0000
     16 C6        17.0205    4.2974    1.4499 C.ar      1 RES1    0.0000
     17 H6        17.0690    4.2107    0.5258 H         1 RES1    0.0000
     18 C7        19.4056    3.4971    1.6823 C.ar      1 RES1    0.0000
     19 C8        20.5507    3.5441    2.4837 C.ar      1 RES1    0.0000
     20 C9        21.7497    2.9913    2.0227 C.ar      1 RES1    0.0000
     21 C10       21.8211    2.4025    0.7774 C.ar      1 RES1    0.0000
     22 H7        22.6232    2.0458    0.4717 H         1 RES1    0.0000
     23 C11       20.6891    2.3491   -0.0077 C.ar      1 RES1    0.0000
     24 H8        20.7283    1.9472   -0.8454 H         1 RES1    0.0000
     25 C12       19.4944    2.8909    0.4393 C.ar      1 RES1    0.0000
     26 H9        18.7405    2.8468   -0.1027 H         1 RES1    0.0000
     27 C13       20.5011    4.1587    3.8679 C.3       1 RES1    0.0000
     28 H10       21.1374    3.6622    4.4238 H         1 RES1    0.0000
     29 C14       20.9665    5.6158    3.8494 C.ar      1 RES1    0.0000
     30 C15       22.2637    5.9115    4.2370 C.ar      1 RES1    0.0000
     31 H11       22.8263    5.2321    4.5296 H         1 RES1    0.0000
     32 C16       22.7187    7.2101    4.1899 C.ar      1 RES1    0.0000
     33 C17       21.9256    8.2594    3.7791 C.ar      1 RES1    0.0000
     34 H12       22.2489    9.1323    3.7683 H         1 RES1    0.0000
     35 C18       20.6374    7.9718    3.3846 C.ar      1 RES1    0.0000
     36 H13       20.0811    8.6564    3.0928 H         1 RES1    0.0000
     37 C19       20.1630    6.6712    3.4194 C.ar      1 RES1    0.0000
     38 H14       19.2889    6.4974    3.1499 H         1 RES1    0.0000
@<TRIPOS>BOND
     1    1    2 1
     2    3    6 2
     3    4    5 1
     4    7    3 2
     5    8    9 ar
     6    9    1 1
     7   10    9 ar
     8   11   10 1
     9   12   10 ar
    10   13   12 1
    11   14   12 ar
    12   15   14 1
    13   16    8 ar
    14   17   16 1
    15   18    8 1
    16   19   18 ar
    17   20    4 1
    18   21   20 ar
    19   22   21 1
    20   23   21 ar
    21   24   23 1
    22   25   18 ar
    23   26   25 1
    24   27    1 1
    25   28   27 1
    26   29   27 1
    27   30   29 ar
    28   31   30 1
    29   32    3 1
    30   33   32 ar
    31   34   33 1
    32   35   33 ar
    33   36   35 1
    34   37   29 ar
    35   38   37 1
    36   14   16 ar
    37   19   20 ar
    38   19   27 1
    39   23   25 ar
    40   30   32 ar
    41   35   37 ar
@<TRIPOS>SUBSTRUCTURE
     1 RES1 1

@<TRIPOS>CRYSIN
  29.0190   29.0190    7.7204  90.0000  90.0000  90.0000  88 1

