# MOL2 file generated by ConQuest
# Please check atom types

@<TRIPOS>MOLECULE
ESAMUI
    38    41     1
SMALL
NO_CHARGES
****
Generated from CSD

@<TRIPOS>ATOM
      1 O1         3.8258    2.5490    1.6948 O.3       1 RES1    0.0000
      2 N1         4.5456    1.2484    3.3429 N.pl3     1 RES1    0.0000
      3 H1         5.0191    1.0548    4.0335 H         1 RES1    0.0000
      4 H2         4.0000    0.6673    3.0193 H         1 RES1    0.0000
      5 C1         3.8667    3.7077    0.9353 C.ar      1 RES1    0.0000
      6 C2         5.3601    4.8535    2.6112 C.3       1 RES1    0.0000
      7 H3         6.2688    5.1555    2.4032 H         1 RES1    0.0000
      8 C3         4.5776    4.8303    1.3123 C.ar      1 RES1    0.0000
      9 C4         6.3197    3.2441    4.2704 C.1       1 RES1    0.0000
     10 C5         4.6558    2.4483    2.7735 C.2       1 RES1    0.0000
     11 O2         5.9755    7.8122    2.8914 O.2       1 RES1    0.0000
     12 C6         4.5136    5.9181    0.4693 C.ar      1 RES1    0.0000
     13 H4         5.0050    6.6825    0.6695 H         1 RES1    0.0000
     14 C7         3.2744    5.7057    3.8823 C.ar      1 RES1    0.0000
     15 C8         5.4613    3.4606    3.1627 C.2       1 RES1    0.0000
     16 C9         4.7683    5.8352    3.6476 C.3       1 RES1    0.0000
     17 H5         5.2364    5.7178    4.5006 H         1 RES1    0.0000
     18 C10        3.1162    3.6476   -0.2346 C.ar      1 RES1    0.0000
     19 H6         2.6720    2.8672   -0.4771 H         1 RES1    0.0000
     20 N2         7.0227    3.1177    5.1712 N.1       1 RES1    0.0000
     21 C11        3.7428    5.8907   -0.6506 C.ar      1 RES1    0.0000
     22 N3         3.6812    7.8131    3.1516 N.am      1 RES1    0.0000
     23 H7         3.5200    8.6224    2.9114 H         1 RES1    0.0000
     24 C12        4.9267    7.2773    3.1928 C.2       1 RES1    0.0000
     25 N4         3.6340    7.0962   -1.4880 N.pl3     1 RES1    0.0000
     26 C13        2.6865    6.9122    3.5431 C.ar      1 RES1    0.0000
     27 C14        2.5061    4.6812    4.3682 C.ar      1 RES1    0.0000
     28 H8         2.8960    3.8774    4.6262 H         1 RES1    0.0000
     29 O3         2.8249    7.0924   -2.3887 O.2       1 RES1    0.0000
     30 C15        1.3219    7.1112    3.6309 C.ar      1 RES1    0.0000
     31 H9         0.9333    7.9197    3.3852 H         1 RES1    0.0000
     32 C16        3.0470    4.7723   -1.0253 C.ar      1 RES1    0.0000
     33 H10        2.5365    4.7730   -1.8016 H         1 RES1    0.0000
     34 C17        1.1226    4.8676    4.4672 C.ar      1 RES1    0.0000
     35 H11        0.5850    4.1783    4.7853 H         1 RES1    0.0000
     36 O4         4.3367    8.0667   -1.1888 O.2       1 RES1    0.0000
     37 C18        0.5570    6.0555    4.1002 C.ar      1 RES1    0.0000
     38 H12       -0.3655    6.1574    4.1658 H         1 RES1    0.0000
@<TRIPOS>BOND
     1    1    5 1
     2    2    3 1
     3    4    2 1
     4    5    8 ar
     5    6    7 1
     6    8    6 1
     7    9   15 1
     8   10    1 1
     9   11   24 2
    10   12    8 ar
    11   13   12 1
    12   14   16 1
    13   15    6 1
    14   16    6 1
    15   17   16 1
    16   18    5 ar
    17   19   18 1
    18   20    9 3
    19   21   12 ar
    20   22   23 1
    21   24   16 1
    22   25   21 1
    23   26   14 ar
    24   27   14 ar
    25   28   27 1
    26   29   25 2
    27   30   26 ar
    28   31   30 1
    29   32   18 ar
    30   33   32 1
    31   34   27 ar
    32   35   34 1
    33   36   25 2
    34   37   30 ar
    35   38   37 1
    36    2   10 1
    37   10   15 2
    38   21   32 ar
    39   22   24 1
    40   22   26 1
    41   34   37 ar
@<TRIPOS>SUBSTRUCTURE
     1 RES1 1

@<TRIPOS>CRYSIN
   8.7120    9.4220   12.3480  68.0000  70.7890  71.2590   2 1

