# MOL2 file generated by ConQuest
# Please check atom types

@<TRIPOS>MOLECULE
ESAYAY
    42    45     1
SMALL
NO_CHARGES
****
Generated from CSD

@<TRIPOS>ATOM
      1 O1         5.1055    0.5485    1.7822 O.3       1 RES1    0.0000
      2 O2         3.4015    1.0015    5.0840 O.2       1 RES1    0.0000
      3 O3         7.0845   -1.4966    4.1516 O.2       1 RES1    0.0000
      4 O4         6.5461   -4.7342    9.8317 O.2       1 RES1    0.0000
      5 O5         8.4400   -3.8124   10.2948 O.2       1 RES1    0.0000
      6 N1         5.3712   -0.1580    4.8890 N.am      1 RES1    0.0000
      7 N2         7.3707   -3.8354    9.6934 N.pl3     1 RES1    0.0000
      8 C1         4.0849    0.1877    4.5032 C.2       1 RES1    0.0000
      9 C2         3.7363   -0.5709    3.2522 C.3       1 RES1    0.0000
     10 H1         2.9535   -1.0272    3.3444 H         1 RES1    0.0000
     11 C3         3.7000    0.3292    2.0120 C.3       1 RES1    0.0000
     12 H2         3.2631    1.1984    2.1117 H         1 RES1    0.0000
     13 C4         3.2502   -0.4826    0.7943 C.3       1 RES1    0.0000
     14 H3         3.0600    0.1119    0.0750 H         1 RES1    0.0000
     15 H4         2.4692   -1.1128    0.9433 H         1 RES1    0.0000
     16 C5         4.5409   -1.2543    0.4566 C.3       1 RES1    0.0000
     17 H5         4.3886   -2.1729    0.4181 H         1 RES1    0.0000
     18 H6         4.9361   -0.9350   -0.3430 H         1 RES1    0.0000
     19 C6         5.4523   -0.8474    1.6047 C.3       1 RES1    0.0000
     20 H7         6.4035   -0.9152    1.4257 H         1 RES1    0.0000
     21 C7         4.9731   -1.4584    2.9510 C.3       1 RES1    0.0000
     22 C8         5.9587   -1.0792    4.0294 C.2       1 RES1    0.0000
     23 C9         4.7414   -2.9636    2.9564 C.3       1 RES1    0.0000
     24 H8         3.9693   -3.2000    2.3797 H         1 RES1    0.0000
     25 H9         4.4503   -3.2527    3.8268 H         1 RES1    0.0000
     26 H10        5.5080   -3.4568    2.6905 H         1 RES1    0.0000
     27 C10        6.0553    0.4109    6.0649 C.3       1 RES1    0.0000
     28 H11        5.3438    0.9350    6.4530 H         1 RES1    0.0000
     29 C11        7.1554    1.3636    5.6297 C.3       1 RES1    0.0000
     30 H12        7.8517    0.8757    5.2203 H         1 RES1    0.0000
     31 H13        7.5084    1.7778    6.4744 H         1 RES1    0.0000
     32 H14        6.7878    2.0082    5.0059 H         1 RES1    0.0000
     33 C12        6.4532   -0.7012    7.0115 C.ar      1 RES1    0.0000
     34 C13        5.5088   -1.6606    7.3513 C.ar      1 RES1    0.0000
     35 H15        4.6035   -1.5868    6.9889 H         1 RES1    0.0000
     36 C14        5.8055   -2.6759    8.2238 C.ar      1 RES1    0.0000
     37 H16        5.1974   -3.3054    8.3932 H         1 RES1    0.0000
     38 C15        7.0710   -2.7417    8.7576 C.ar      1 RES1    0.0000
     39 C16        8.0302   -1.8212    8.4446 C.ar      1 RES1    0.0000
     40 H17        8.9021   -1.8831    8.7898 H         1 RES1    0.0000
     41 C17        7.7255   -0.7967    7.5656 C.ar      1 RES1    0.0000
     42 H18        8.3579   -0.1185    7.3105 H         1 RES1    0.0000
@<TRIPOS>BOND
     1    1   11 1
     2    2    8 2
     3    3   22 2
     4    4    7 2
     5    5    7 2
     6    6    8 1
     7    7   38 1
     8    8    9 1
     9    9   10 1
    10   11    9 1
    11   12   11 1
    12   13   11 1
    13   14   13 1
    14   15   13 1
    15   16   13 1
    16   17   16 1
    17   18   16 1
    18   19    1 1
    19   20   19 1
    20   21    9 1
    21   22    6 1
    22   23   21 1
    23   24   23 1
    24   25   23 1
    25   26   23 1
    26   27    6 1
    27   28   27 1
    28   29   27 1
    29   30   29 1
    30   31   29 1
    31   32   29 1
    32   33   27 1
    33   34   33 ar
    34   35   34 1
    35   36   34 ar
    36   37   36 1
    37   38   36 ar
    38   39   38 ar
    39   40   39 1
    40   41   33 ar
    41   42   41 1
    42   16   19 1
    43   19   21 1
    44   21   22 1
    45   39   41 ar
@<TRIPOS>SUBSTRUCTURE
     1 RES1 1

@<TRIPOS>CRYSIN
  11.3905    6.5844   12.0322  90.0000 117.0160  90.0000   4 1

