# MOL2 file generated by ConQuest
# Please check atom types

@<TRIPOS>MOLECULE
ESEBUA
    61    63     1
SMALL
NO_CHARGES
****
Generated from CSD

@<TRIPOS>ATOM
      1 O1         8.8855    2.0862    8.2183 O.2       1 RES1    0.0000
      2 O2         8.9371    4.2397    6.3985 O.3       1 RES1    0.0000
      3 O3         9.8245    4.5496    4.2705 O.3       1 RES1    0.0000
      4 O4         9.6018    6.2753   10.0594 O.2       1 RES1    0.0000
      5 O5         9.1259    4.3295   10.9962 O.3       1 RES1    0.0000
      6 O6         7.5335    6.0059    3.5051 O.3       1 RES1    0.0000
      7 O7         6.9458    7.7743    4.7445 O.2       1 RES1    0.0000
      8 O8         7.1590    6.2080   -1.2943 O.2       1 RES1    0.0000
      9 O9         7.0593    8.1156   -2.2882 O.2       1 RES1    0.0000
     10 O10        5.9229   12.0185    0.2958 O.2       1 RES1    0.0000
     11 O11        6.1600   11.9994    2.4294 O.2       1 RES1    0.0000
     12 N1         7.0777    7.4397   -1.2741 N.pl3     1 RES1    0.0000
     13 N2         6.2112   11.4862    1.3436 N.pl3     1 RES1    0.0000
     14 C1         8.9612    4.4036    8.7360 C.2       1 RES1    0.0000
     15 C2         8.3794    3.0259    8.7965 C.2       1 RES1    0.0000
     16 C3         7.0943    2.8553    9.6089 C.3       1 RES1    0.0000
     17 H1         7.2606    2.2467   10.3462 H         1 RES1    0.0000
     18 H2         6.8345    3.7120    9.9809 H         1 RES1    0.0000
     19 C4         5.9693    2.3186    8.7651 C.3       1 RES1    0.0000
     20 H3         5.1951    2.1513    9.3254 H         1 RES1    0.0000
     21 H4         6.2375    1.4765    8.3651 H         1 RES1    0.0000
     22 C5         5.5998    3.3100    7.6681 C.2       1 RES1    0.0000
     23 H5         5.6079    4.2161    7.8754 H         1 RES1    0.0000
     24 C6         5.2781    2.9664    6.4724 C.2       1 RES1    0.0000
     25 H6         5.3040    2.0603    6.2674 H         1 RES1    0.0000
     26 C7         4.8626    3.9163    5.3731 C.3       1 RES1    0.0000
     27 H7         3.9199    3.7827    5.1871 H         1 RES1    0.0000
     28 H8         4.9718    4.8269    5.6914 H         1 RES1    0.0000
     29 C8         5.6203    3.7625    4.1114 C.3       1 RES1    0.0000
     30 H9         5.3576    4.4788    3.5107 H         1 RES1    0.0000
     31 H10        5.3544    2.9260    3.6979 H         1 RES1    0.0000
     32 C9         7.0935    3.7737    4.2257 C.3       1 RES1    0.0000
     33 H11        7.4872    3.5559    3.3662 H         1 RES1    0.0000
     34 H12        7.3740    3.0989    4.8644 H         1 RES1    0.0000
     35 C10        7.5922    5.1458    4.6817 C.3       1 RES1    0.0000
     36 H13        6.9937    5.4961    5.3731 H         1 RES1    0.0000
     37 C11        9.0338    5.1256    5.2163 C.3       1 RES1    0.0000
     38 C12        9.4845    6.3988    5.7967 C.2       1 RES1    0.0000
     39 H14        9.6755    7.1691    5.3126 H         1 RES1    0.0000
     40 C13        9.5762    6.2832    7.1134 C.2       1 RES1    0.0000
     41 H15        9.8549    6.9557    7.6927 H         1 RES1    0.0000
     42 C14        9.1848    4.9706    7.5067 C.2       1 RES1    0.0000
     43 C15        9.2691    5.1368    9.9507 C.2       1 RES1    0.0000
     44 C16        9.2933    4.8842   12.3229 C.3       1 RES1    0.0000
     45 H16        8.5435    5.4456   12.5325 H         1 RES1    0.0000
     46 H17       10.1007    5.4040   12.3521 H         1 RES1    0.0000
     47 H18        9.3483    4.1712   12.9628 H         1 RES1    0.0000
     48 C17        7.1786    7.2746    3.6755 C.2       1 RES1    0.0000
     49 C18        7.0188    7.9674    2.3767 C.ar      1 RES1    0.0000
     50 C19        7.1542    7.3386    1.1676 C.ar      1 RES1    0.0000
     51 H19        7.3811    6.4393    1.1150 H         1 RES1    0.0000
     52 C20        6.9389    8.0976    0.0213 C.ar      1 RES1    0.0000
     53 C21        6.6105    9.4214    0.0258 C.ar      1 RES1    0.0000
     54 H20        6.4602    9.9020   -0.7564 H         1 RES1    0.0000
     55 C22        6.5204    9.9929    1.2707 C.ar      1 RES1    0.0000
     56 C23        6.6838    9.3507    2.4339 C.ar      1 RES1    0.0000
     57 H21        6.5829    9.7897    3.2474 H         1 RES1    0.0000
     58 C24       11.2185    4.5990    4.5204 C.3       1 RES1    0.0000
     59 H22       11.4111    4.1532    5.3485 H         1 RES1    0.0000
     60 H23       11.5014    5.5141    4.5764 H         1 RES1    0.0000
     61 H24       11.6871    4.1622    3.8055 H         1 RES1    0.0000
@<TRIPOS>BOND
     1    1   15 2
     2    2   37 1
     3    3   37 1
     4    4   43 2
     5    5   43 1
     6    6   35 1
     7    7   48 2
     8    8   12 2
     9    9   12 2
    10   10   13 2
    11   11   13 2
    12   12   52 1
    13   13   55 1
    14   14   15 1
    15   15   16 1
    16   16   17 1
    17   18   16 1
    18   19   16 1
    19   20   19 1
    20   21   19 1
    21   22   19 1
    22   23   22 1
    23   24   22 2
    24   25   24 1
    25   26   24 1
    26   27   26 1
    27   28   26 1
    28   29   26 1
    29   30   29 1
    30   31   29 1
    31   32   29 1
    32   33   32 1
    33   34   32 1
    34   35   32 1
    35   36   35 1
    36   37   35 1
    37   38   37 1
    38   39   38 1
    39   40   38 2
    40   41   40 1
    41   42    2 1
    42   43   14 1
    43   44    5 1
    44   45   44 1
    45   46   44 1
    46   47   44 1
    47   48    6 1
    48   49   48 1
    49   50   49 ar
    50   51   50 1
    51   52   50 ar
    52   53   52 ar
    53   54   53 1
    54   55   53 ar
    55   56   49 ar
    56   57   56 1
    57   58    3 1
    58   59   58 1
    59   60   58 1
    60   61   58 1
    61   14   42 2
    62   40   42 1
    63   55   56 ar
@<TRIPOS>SUBSTRUCTURE
     1 RES1 1

@<TRIPOS>CRYSIN
  10.0620   11.2280   11.2480  90.0000  94.9700  90.0000   4 1

