# MOL2 file generated by ConQuest
# Please check atom types

@<TRIPOS>MOLECULE
ESECAH
    79    84     1
SMALL
NO_CHARGES
****
Generated from CSD

@<TRIPOS>ATOM
      1 O1         6.6273    6.4441    7.4712 O.3       1 RES1    0.0000
      2 O2         9.1621    8.2481    9.8152 O.3       1 RES1    0.0000
      3 O3         9.1252    9.1430   11.8546 O.2       1 RES1    0.0000
      4 O4         9.4293   11.0564    5.9304 O.2       1 RES1    0.0000
      5 O5         9.3655   13.1874    6.1468 O.2       1 RES1    0.0000
      6 O6        10.4126   15.0598   10.4457 O.2       1 RES1    0.0000
      7 O7         9.7331   13.9748   12.1493 O.2       1 RES1    0.0000
      8 O8         6.2764    7.5429   10.5626 O.2       1 RES1    0.0000
      9 O9         5.7028    5.4952    9.9421 O.3       1 RES1    0.0000
     10 O10        5.5847    8.1135    6.3221 O.3       1 RES1    0.0000
     11 O11        6.6303    7.2391    3.9781 O.3       1 RES1    0.0000
     12 O12        4.8947    6.3260    2.9298 O.2       1 RES1    0.0000
     13 O13        3.6041    8.2424   -1.3244 O.2       1 RES1    0.0000
     14 O14        4.7031    9.8494   -2.1849 O.2       1 RES1    0.0000
     15 O15        8.4136   11.7241    0.1828 O.2       1 RES1    0.0000
     16 O16        8.9168   10.9695    2.1202 O.2       1 RES1    0.0000
     17 N1         9.4236   12.0558    6.5932 N.pl3     1 RES1    0.0000
     18 N2        10.0387   14.0657   10.9742 N.pl3     1 RES1    0.0000
     19 N3         4.4795    9.0530   -1.3094 N.pl3     1 RES1    0.0000
     20 N4         8.2436   10.9599    1.1043 N.pl3     1 RES1    0.0000
     21 C1         9.0109    6.8995   10.3039 C.3       1 RES1    0.0000
     22 H1         8.7823    6.9259   11.2565 H         1 RES1    0.0000
     23 C2        10.2484    6.0889   10.1211 C.3       1 RES1    0.0000
     24 H2        10.8725    6.2396   10.8486 H         1 RES1    0.0000
     25 H3        10.6845    6.3061    9.2830 H         1 RES1    0.0000
     26 C3         9.7547    4.6630   10.1211 C.3       1 RES1    0.0000
     27 H4         9.6743    4.3289   11.0277 H         1 RES1    0.0000
     28 H5        10.3665    4.0899    9.6324 H         1 RES1    0.0000
     29 C4         8.4026    4.6958    9.4447 C.3       1 RES1    0.0000
     30 H6         7.7670    4.0425    9.8028 H         1 RES1    0.0000
     31 C5         7.9143    6.1655    9.5491 C.3       1 RES1    0.0000
     32 C6         7.9401    6.2697    7.9885 C.3       1 RES1    0.0000
     33 C7         8.3903    4.7934    7.9101 C.3       1 RES1    0.0000
     34 H7         9.2894    4.7059    7.5309 H         1 RES1    0.0000
     35 C8         7.4116    3.8984    7.2324 C.3       1 RES1    0.0000
     36 H8         6.5257    4.1195    7.5595 H         1 RES1    0.0000
     37 H9         7.5994    2.9866    7.5072 H         1 RES1    0.0000
     38 C9         7.3719    3.9318    5.6991 C.3       1 RES1    0.0000
     39 H10        8.0623    3.3316    5.3758 H         1 RES1    0.0000
     40 H11        6.5200    3.5605    5.4206 H         1 RES1    0.0000
     41 C10        7.5490    5.2698    4.9754 C.3       1 RES1    0.0000
     42 H12        8.3876    5.6542    5.2763 H         1 RES1    0.0000
     43 H13        7.6475    5.0796    4.0303 H         1 RES1    0.0000
     44 C11        6.4960    6.3327    5.1109 C.3       1 RES1    0.0000
     45 H14        5.6032    5.9310    5.1234 H         1 RES1    0.0000
     46 C12        6.6805    7.2528    6.3147 C.3       1 RES1    0.0000
     47 C13        8.0103    7.8678    6.3744 C.2       1 RES1    0.0000
     48 H15        8.3017    8.5603    5.8247 H         1 RES1    0.0000
     49 C14        8.7249    7.3075    7.3058 C.2       1 RES1    0.0000
     50 H16        9.6053    7.5317    7.5097 H         1 RES1    0.0000
     51 C15        9.2406    9.2511   10.6683 C.2       1 RES1    0.0000
     52 C16        9.4497   10.5452    9.9744 C.ar      1 RES1    0.0000
     53 C17        9.3789   10.6705    8.6040 C.ar      1 RES1    0.0000
     54 H17        9.2260    9.9288    8.0643 H         1 RES1    0.0000
     55 C18        9.5418   11.9177    8.0556 C.ar      1 RES1    0.0000
     56 C19        9.7827   13.0237    8.7930 C.ar      1 RES1    0.0000
     57 H18        9.8892   13.8570    8.3964 H         1 RES1    0.0000
     58 C20        9.8619   12.8602   10.1473 C.ar      1 RES1    0.0000
     59 C21        9.7099   11.6478   10.7442 C.ar      1 RES1    0.0000
     60 H19        9.7830   11.5688   11.6681 H         1 RES1    0.0000
     61 C22        6.5559    6.4861   10.0950 C.2       1 RES1    0.0000
     62 C23        4.3417    5.8323   10.2094 C.3       1 RES1    0.0000
     63 H20        4.0958    6.6038    9.6946 H         1 RES1    0.0000
     64 H21        4.2380    6.0267   11.1446 H         1 RES1    0.0000
     65 H22        3.7758    5.0939    9.9707 H         1 RES1    0.0000
     66 C24        5.5111    8.9401    7.4712 C.3       1 RES1    0.0000
     67 H23        6.3150    9.4603    7.5433 H         1 RES1    0.0000
     68 H24        5.4127    8.3923    8.2533 H         1 RES1    0.0000
     69 H25        4.7552    9.5269    7.3941 H         1 RES1    0.0000
     70 C25        5.7626    7.1268    2.9932 C.2       1 RES1    0.0000
     71 C26        6.0274    8.1446    1.9312 C.ar      1 RES1    0.0000
     72 C27        7.0259    9.0740    2.0207 C.ar      1 RES1    0.0000
     73 H26        7.5852    9.0919    2.7631 H         1 RES1    0.0000
     74 C28        7.1926    9.9752    1.0098 C.ar      1 RES1    0.0000
     75 C29        6.3723    9.9870   -0.0945 C.ar      1 RES1    0.0000
     76 H27        6.4858   10.6098   -0.7747 H         1 RES1    0.0000
     77 C30        5.3999    9.0637   -0.1492 C.ar      1 RES1    0.0000
     78 C31        5.1998    8.1274    0.8257 C.ar      1 RES1    0.0000
     79 H28        4.5241    7.4944    0.7474 H         1 RES1    0.0000
@<TRIPOS>BOND
     1    1   32 1
     2    2   21 1
     3    3   51 2
     4    4   17 2
     5    5   17 2
     6    6   18 2
     7    7   18 2
     8    8   61 2
     9    9   61 1
    10   10   46 1
    11   11   44 1
    12   12   70 2
    13   13   19 2
    14   14   19 2
    15   15   20 2
    16   16   20 2
    17   17   55 1
    18   18   58 1
    19   19   77 1
    20   20   74 1
    21   21   22 1
    22   23   21 1
    23   24   23 1
    24   25   23 1
    25   26   23 1
    26   27   26 1
    27   28   26 1
    28   29   26 1
    29   30   29 1
    30   31   21 1
    31   32   31 1
    32   33   29 1
    33   34   33 1
    34   35   33 1
    35   36   35 1
    36   37   35 1
    37   38   35 1
    38   39   38 1
    39   40   38 1
    40   41   38 1
    41   42   41 1
    42   43   41 1
    43   44   41 1
    44   45   44 1
    45   46    1 1
    46   47   46 1
    47   48   47 1
    48   49   32 1
    49   50   49 1
    50   51    2 1
    51   52   51 1
    52   53   52 ar
    53   54   53 1
    54   55   53 ar
    55   56   55 ar
    56   57   56 1
    57   58   56 ar
    58   59   52 ar
    59   60   59 1
    60   61   31 1
    61   62    9 1
    62   63   62 1
    63   64   62 1
    64   65   62 1
    65   66   10 1
    66   67   66 1
    67   68   66 1
    68   69   66 1
    69   70   11 1
    70   71   70 1
    71   72   71 ar
    72   73   72 1
    73   74   72 ar
    74   75   74 ar
    75   76   75 1
    76   77   75 ar
    77   78   71 ar
    78   79   78 1
    79   29   31 1
    80   32   33 1
    81   44   46 1
    82   47   49 2
    83   58   59 ar
    84   77   78 ar
@<TRIPOS>SUBSTRUCTURE
     1 RES1 1

@<TRIPOS>CRYSIN
   9.3356   13.6150   14.0580  62.2000  86.5900  83.0600   2 1

