# MOL2 file generated by ConQuest
# Please check atom types

@<TRIPOS>MOLECULE
ESECEL
   121   125     2
SMALL
NO_CHARGES
****
Generated from CSD

@<TRIPOS>ATOM
      1 O1        12.0156   -3.6125   19.4338 O.2       1 RES1    0.0000
      2 O2        10.2286   -1.4238   19.2219 O.3       1 RES1    0.0000
      3 O3        13.9111    0.5146   20.0298 O.2       1 RES1    0.0000
      4 O4        14.7687   -1.4985   19.8724 O.3       1 RES1    0.0000
      5 O5         7.6940    0.5156   17.5042 O.3       1 RES1    0.0000
      6 O6         6.1582   -1.0334   16.9620 O.2       1 RES1    0.0000
      7 O7         6.6562    5.1942   17.0178 O.2       1 RES1    0.0000
      8 O8         4.7338    5.7898   16.3141 O.2       1 RES1    0.0000
      9 O9         1.1295    2.5939   16.4078 O.2       1 RES1    0.0000
     10 O10        1.6384    0.5167   16.1606 O.2       1 RES1    0.0000
     11 O11        8.0505   -1.0607   19.7831 O.3       1 RES1    0.0000
     12 N1         5.5383    4.9574   16.7048 N.pl3     1 RES1    0.0000
     13 N2         1.9256    1.7037   16.3699 N.pl3     1 RES1    0.0000
     14 C1        12.5450   -1.3280   19.4757 C.2       1 RES1    0.0000
     15 C2        12.6473   -2.7160   18.9395 C.2       1 RES1    0.0000
     16 C3        13.4791   -2.9591   17.7294 C.3       1 RES1    0.0000
     17 H1        14.3042   -3.3937   17.9966 H         1 RES1    0.0000
     18 H2        13.7116   -2.1057   17.3308 H         1 RES1    0.0000
     19 C4        12.7894   -3.8114   16.6909 C.3       1 RES1    0.0000
     20 H3        13.3497   -3.8609   15.9015 H         1 RES1    0.0000
     21 H4        12.6897   -4.7111   17.0397 H         1 RES1    0.0000
     22 C5        11.4374   -3.2884   16.2982 C.2       1 RES1    0.0000
     23 H5        10.7429   -3.6168   16.8224 H         1 RES1    0.0000
     24 C6        11.0837   -2.5487   15.4629 C.2       1 RES1    0.0000
     25 H6        11.7684   -2.2225   14.9247 H         1 RES1    0.0000
     26 C7         9.7188   -2.0330   15.1041 C.3       1 RES1    0.0000
     27 H7         9.5301   -2.2456   14.1772 H         1 RES1    0.0000
     28 H8         9.0546   -2.4782   15.6543 H         1 RES1    0.0000
     29 C8         9.6143   -0.5609   15.3015 C.3       1 RES1    0.0000
     30 H9         8.7291   -0.2736   15.0284 H         1 RES1    0.0000
     31 H10       10.2566   -0.1242   14.7214 H         1 RES1    0.0000
     32 C9         9.8533   -0.0947   16.7327 C.3       1 RES1    0.0000
     33 H11       10.6822   -0.4809   17.0577 H         1 RES1    0.0000
     34 H12        9.9523    0.8703   16.7387 H         1 RES1    0.0000
     35 C10        8.7342   -0.4830   17.6517 C.3       1 RES1    0.0000
     36 H13        8.3835   -1.3575   17.3846 H         1 RES1    0.0000
     37 C11        9.1127   -0.5219   19.1268 C.3       1 RES1    0.0000
     38 C12        9.6894    0.7471   19.6790 C.2       1 RES1    0.0000
     39 H14        9.2065    1.5269   19.8365 H         1 RES1    0.0000
     40 C13       10.9682    0.6009   19.9063 C.2       1 RES1    0.0000
     41 H15       11.5402    1.2617   20.2232 H         1 RES1    0.0000
     42 C14       11.3462   -0.7471   19.5893 C.2       1 RES1    0.0000
     43 C15       13.7802   -0.6230   19.8265 C.2       1 RES1    0.0000
     44 C16       16.0954   -1.0197   20.1215 C.3       1 RES1    0.0000
     45 H16       16.2698   -0.2557   19.5654 H         1 RES1    0.0000
     46 H17       16.7287   -1.7121   19.9202 H         1 RES1    0.0000
     47 H18       16.1780   -0.7692   21.0445 H         1 RES1    0.0000
     48 C17        6.4939    0.0958   17.1474 C.2       1 RES1    0.0000
     49 C18        5.5615    1.2691   16.9899 C.ar      1 RES1    0.0000
     50 C19        5.9860    2.5676   17.0158 C.ar      1 RES1    0.0000
     51 H19        6.8702    2.7823   17.2052 H         1 RES1    0.0000
     52 C20        5.0583    3.5399   16.7547 C.ar      1 RES1    0.0000
     53 C21        3.7259    3.2600   16.5354 C.ar      1 RES1    0.0000
     54 H20        3.1131    3.9388   16.3679 H         1 RES1    0.0000
     55 C22        3.3439    1.9720   16.5693 C.ar      1 RES1    0.0000
     56 C23        4.2327    0.9607   16.7686 C.ar      1 RES1    0.0000
     57 H21        3.9496    0.0758   16.7587 H         1 RES1    0.0000
     58 C24        8.1685   -1.0933   21.2000 C.3       1 RES1    0.0000
     59 H22        7.4663   -1.6353   21.5668 H         1 RES1    0.0000
     60 H23        8.0976   -0.2010   21.5468 H         1 RES1    0.0000
     61 H24        9.0205   -1.4648   21.4412 H         1 RES1    0.0000
     62 O12       -3.8222    2.3351   10.6787 O.2       2 RES2    0.0000
     63 O13       -2.0199    4.3923   10.4662 O.3       2 RES2    0.0000
     64 O14       -5.6749    6.6032   10.2541 O.2       2 RES2    0.0000
     65 O15       -6.5320    4.6038    9.8634 O.3       2 RES2    0.0000
     66 O16        0.6450    6.1202   12.2075 O.3       2 RES2    0.0000
     67 O17        2.2585    4.7711   12.8854 O.2       2 RES2    0.0000
     68 O18        1.0611   10.8397   12.8735 O.2       2 RES2    0.0000
     69 O19        2.9457   11.7174   13.3300 O.2       2 RES2    0.0000
     70 O20        6.6146    6.8210   13.7466 O.2       2 RES2    0.0000
     71 O21        6.8045    8.9635   13.6569 O.2       2 RES2    0.0000
     72 O22        0.1145    4.7722    9.7219 O.3       2 RES2    0.0000
     73 N3         2.2446   10.7766   13.1027 N.pl3     2 RES2    0.0000
     74 N4         6.1560    7.9396   13.6350 N.pl3     2 RES2    0.0000
     75 C25       -4.3464    4.6280   10.4774 C.2       2 RES2    0.0000
     76 C26       -4.5484    3.2516   11.0136 C.2       2 RES2    0.0000
     77 C27       -5.6238    3.0443   12.0442 C.3       2 RES2    0.0000
     78 H25       -6.0062    3.9040   12.2775 H         2 RES2    0.0000
     79 H26       -6.3289    2.5013   11.6575 H         2 RES2    0.0000
     80 C28       -5.1324    2.3898   13.2682 C.3       2 RES2    0.0000
     81 H27       -4.6920    1.5595   13.0290 H         2 RES2    0.0000
     82 H28       -5.8880    2.1719   13.8363 H         2 RES2    0.0000
     83 C29       -4.1793    3.2442   14.0317 C.2       2 RES2    0.0000
     84 H29       -4.4840    4.0998   14.2350 H         2 RES2    0.0000
     85 C30       -3.0109    2.9685   14.4463 C.2       2 RES2    0.0000
     86 H30       -2.7162    2.1014   14.2808 H         2 RES2    0.0000
     87 C31       -2.0596    3.8441   15.1540 C.3       2 RES2    0.0000
     88 H31       -2.1670    4.1587   16.0231 H         2 RES2    0.0000
     89 C32       -0.8921    4.1492   14.2629 C.3       2 RES2    0.0000
     90 H32       -0.5120    3.3179   13.9380 H         2 RES2    0.0000
     91 H33       -0.2101    4.6101   14.7752 H         2 RES2    0.0000
     92 C33       -1.2978    5.0163   13.0728 C.3       2 RES2    0.0000
     93 H34       -2.1393    4.6912   12.7160 H         2 RES2    0.0000
     94 H35       -1.4359    5.9266   13.3758 H         2 RES2    0.0000
     95 C34       -0.2767    5.0153   11.9844 C.3       2 RES2    0.0000
     96 H36        0.2168    4.1692   11.9984 H         2 RES2    0.0000
     97 C35       -0.8632    5.2573   10.5651 C.3       2 RES2    0.0000
     98 C36       -1.3937    6.5895   10.3080 C.2       2 RES2    0.0000
     99 H37       -0.8885    7.3703   10.2681 H         2 RES2    0.0000
    100 C37       -2.7158    6.5190   10.1405 C.2       2 RES2    0.0000
    101 H38       -3.2758    7.2282    9.9212 H         2 RES2    0.0000
    102 C38       -3.1288    5.1373   10.3598 C.2       2 RES2    0.0000
    103 C39       -5.5547    5.4362   10.2242 C.2       2 RES2    0.0000
    104 C40       -7.8476    5.1331    9.6681 C.3       2 RES2    0.0000
    105 H39       -7.9907    5.8645   10.2721 H         2 RES2    0.0000
    106 H40       -8.4977    4.4470    9.8355 H         2 RES2    0.0000
    107 H41       -7.9368    5.4446    8.7631 H         2 RES2    0.0000
    108 C41        1.8418    5.8476   12.6761 C.2       2 RES2    0.0000
    109 C42        2.6566    7.0767   12.8715 C.ar      2 RES2    0.0000
    110 C43        2.0606    8.3511   12.7997 C.ar      2 RES2    0.0000
    111 H42        1.1680    8.4573   12.5625 H         2 RES2    0.0000
    112 C44        2.8581    9.4339   13.0987 C.ar      2 RES2    0.0000
    113 C45        4.1671    9.3307   13.3838 C.ar      2 RES2    0.0000
    114 H43        4.6877   10.0810   13.5552 H         2 RES2    0.0000
    115 C46        4.6980    8.0669   13.4117 C.ar      2 RES2    0.0000
    116 C47        3.9666    6.9452   13.1884 C.ar      2 RES2    0.0000
    117 H44        4.3571    6.1044   13.2522 H         2 RES2    0.0000
    118 C48       -0.1243    4.9658    8.3504 C.3       2 RES2    0.0000
    119 H45       -0.9784    4.5943    8.1172 H         2 RES2    0.0000
    120 H46        0.5630    4.5302    7.8401 H         2 RES2    0.0000
    121 H47       -0.1206    5.9055    8.1531 H         2 RES2    0.0000
@<TRIPOS>BOND
     1    1   15 2
     2    2   37 1
     3    3   43 2
     4    4   43 1
     5    5   35 1
     6    6   48 2
     7    7   12 2
     8    8   12 2
     9    9   13 2
    10   10   13 2
    11   11   37 1
    12   12   52 1
    13   13   55 1
    14   14   15 1
    15   15   16 1
    16   16   17 1
    17   18   16 1
    18   19   16 1
    19   20   19 1
    20   21   19 1
    21   22   19 1
    22   23   22 1
    23   24   22 2
    24   25   24 1
    25   26   24 1
    26   27   26 1
    27   28   26 1
    28   29   26 1
    29   30   29 1
    30   31   29 1
    31   32   29 1
    32   33   32 1
    33   34   32 1
    34   35   32 1
    35   36   35 1
    36   37   35 1
    37   38   37 1
    38   39   38 1
    39   40   38 2
    40   41   40 1
    41   42    2 1
    42   43   14 1
    43   44    4 1
    44   45   44 1
    45   46   44 1
    46   47   44 1
    47   48    5 1
    48   49   48 1
    49   50   49 ar
    50   51   50 1
    51   52   50 ar
    52   53   52 ar
    53   54   53 1
    54   55   53 ar
    55   56   49 ar
    56   57   56 1
    57   58   11 1
    58   59   58 1
    59   60   58 1
    60   61   58 1
    61   62   76 2
    62   63   97 1
    63   64  103 2
    64   65  103 1
    65   66   95 1
    66   67  108 2
    67   68   73 2
    68   69   73 2
    69   70   74 2
    70   71   74 2
    71   72   97 1
    72   73  112 1
    73   74  115 1
    74   75   76 1
    75   76   77 1
    76   77   78 1
    77   79   77 1
    78   80   77 1
    79   81   80 1
    80   82   80 1
    81   83   80 1
    82   84   83 1
    83   85   83 2
    84   86   85 1
    85   87   85 1
    86   88   87 1
    87   89   87 1
    88   90   89 1
    89   91   89 1
    90   92   89 1
    91   93   92 1
    92   94   92 1
    93   95   92 1
    94   96   95 1
    95   97   95 1
    96   98   97 1
    97   99   98 1
    98  100   98 2
    99  101  100 1
   100  102   63 1
   101  103   75 1
   102  104   65 1
   103  105  104 1
   104  106  104 1
   105  107  104 1
   106  108   66 1
   107  109  108 1
   108  110  109 ar
   109  111  110 1
   110  112  110 ar
   111  113  112 ar
   112  114  113 1
   113  115  113 ar
   114  116  109 ar
   115  117  116 1
   116  118   72 1
   117  119  118 1
   118  120  118 1
   119  121  118 1
   120   14   42 2
   121   40   42 1
   122   55   56 ar
   123   75  102 2
   124  100  102 1
   125  115  116 ar
@<TRIPOS>SUBSTRUCTURE
     1 RES1 1
     2 RES2 62

@<TRIPOS>CRYSIN
  11.4600   10.5230   20.0580  90.0000  96.3700  90.0000   4 1

