# MOL2 file generated by ConQuest
# Please check atom types

@<TRIPOS>MOLECULE
ESEQEA
    50    54     1
SMALL
NO_CHARGES
****
Generated from CSD

@<TRIPOS>ATOM
      1 C1         4.9449    0.4299    6.6745 C.3       1 RES1    0.0000
      2 H1         4.0706    0.5714    7.1178 H         1 RES1    0.0000
      3 H2         4.7889    0.1446    5.7396 H         1 RES1    0.0000
      4 C2         5.7819   -0.6028    7.4305 C.3       1 RES1    0.0000
      5 H3         5.5937   -1.5170    7.0996 H         1 RES1    0.0000
      6 H4         5.5884   -0.5692    8.4012 H         1 RES1    0.0000
      7 C3         7.2466   -0.2127    7.1533 C.3       1 RES1    0.0000
      8 H5         7.7641   -0.1737    7.9963 H         1 RES1    0.0000
      9 H6         7.6745   -0.8660    6.5455 H         1 RES1    0.0000
     10 C4         7.1727    1.1513    6.5071 C.2       1 RES1    0.0000
     11 C5         8.0884    1.8115    5.8089 C.2       1 RES1    0.0000
     12 H7         8.9414    1.4137    5.6760 H         1 RES1    0.0000
     13 C6         7.8266    3.1303    5.2391 C.ar      1 RES1    0.0000
     14 C7         8.8702    3.9099    4.7267 C.ar      1 RES1    0.0000
     15 H8         9.7596    3.5794    4.7638 H         1 RES1    0.0000
     16 C8         8.6310    5.1507    4.1687 C.ar      1 RES1    0.0000
     17 H9         9.3523    5.6686    3.8320 H         1 RES1    0.0000
     18 C9         7.3400    5.6357    4.1008 C.ar      1 RES1    0.0000
     19 H10        7.1707    6.4833    3.7075 H         1 RES1    0.0000
     20 C10        6.2850    4.8791    4.6104 C.ar      1 RES1    0.0000
     21 H11        5.3997    5.2188    4.5600 H         1 RES1    0.0000
     22 C11        6.5086    3.6398    5.1898 C.ar      1 RES1    0.0000
     23 C12        5.3484    2.8029    5.7351 C.3       1 RES1    0.0000
     24 H12        4.8398    2.3906    4.9792 H         1 RES1    0.0000
     25 C13        5.8012    1.7067    6.7252 C.3       1 RES1    0.0000
     26 C14        5.6627    2.3845    8.1264 C.3       1 RES1    0.0000
     27 H13        5.4073    1.7243    8.8190 H         1 RES1    0.0000
     28 H14        6.5078    2.8236    8.3960 H         1 RES1    0.0000
     29 C15        4.5730    3.3935    7.9115 C.2       1 RES1    0.0000
     30 C16        3.8542    4.0430    9.0461 C.3       1 RES1    0.0000
     31 H15        3.1477    4.6251    8.6957 H         1 RES1    0.0000
     32 H16        4.4866    4.5777    9.5704 H         1 RES1    0.0000
     33 H17        3.4561    3.3545    9.6184 H         1 RES1    0.0000
     34 C17        4.4107    3.5837    6.6185 C.2       1 RES1    0.0000
     35 C18        2.3436    4.0208    5.6087 C.2       1 RES1    0.0000
     36 C19        1.3863    5.1049    5.2539 C.ar      1 RES1    0.0000
     37 C20        0.0764    4.7391    4.9683 C.ar      1 RES1    0.0000
     38 H18       -0.1682    3.8219    4.9688 H         1 RES1    0.0000
     39 C21       -0.8754    5.7084    4.6831 C.ar      1 RES1    0.0000
     40 H19       -1.7736    5.4704    4.4874 H         1 RES1    0.0000
     41 C22       -0.4730    7.0332    4.6928 C.ar      1 RES1    0.0000
     42 C23        0.8208    7.4296    4.9626 C.ar      1 RES1    0.0000
     43 H20        1.0617    8.3491    4.9532 H         1 RES1    0.0000
     44 C24        1.7593    6.4506    5.2474 C.ar      1 RES1    0.0000
     45 H21        2.6575    6.6952    5.4386 H         1 RES1    0.0000
     46 N1        -1.4886    8.0709    4.4189 N.pl3     1 RES1    0.0000
     47 O1         3.5043    4.5284    6.0961 O.3       1 RES1    0.0000
     48 O2         2.1209    2.8466    5.5158 O.2       1 RES1    0.0000
     49 O3        -2.6002    7.7119    4.0437 O.2       1 RES1    0.0000
     50 O4        -1.1600    9.2428    4.5776 O.2       1 RES1    0.0000
@<TRIPOS>BOND
     1    1    2 1
     2    3    1 1
     3    4    1 1
     4    5    4 1
     5    6    4 1
     6    7    4 1
     7    8    7 1
     8    9    7 1
     9   10    7 1
    10   11   10 2
    11   12   11 1
    12   13   11 1
    13   14   13 ar
    14   15   14 1
    15   16   14 ar
    16   17   16 1
    17   18   16 ar
    18   19   18 1
    19   20   18 ar
    20   21   20 1
    21   22   13 ar
    22   23   22 1
    23   24   23 1
    24   25    1 1
    25   26   25 1
    26   27   26 1
    27   28   26 1
    28   29   26 1
    29   30   29 1
    30   31   30 1
    31   32   30 1
    32   33   30 1
    33   34   23 1
    34   35   36 1
    35   36   37 ar
    36   37   38 1
    37   39   37 ar
    38   40   39 1
    39   41   39 ar
    40   42   41 ar
    41   43   42 1
    42   44   36 ar
    43   45   44 1
    44   46   41 1
    45   47   34 1
    46   48   35 2
    47   49   46 2
    48   50   46 2
    49   10   25 1
    50   20   22 ar
    51   23   25 1
    52   29   34 2
    53   35   47 1
    54   42   44 ar
@<TRIPOS>SUBSTRUCTURE
     1 RES1 1

@<TRIPOS>CRYSIN
  19.0350    7.6499   12.9781  90.0000  90.8200  90.0000  14 1

