# MOL2 file generated by ConQuest
# Please check atom types

@<TRIPOS>MOLECULE
ESEQIE
   124   136     2
SMALL
NO_CHARGES
****
Generated from CSD

@<TRIPOS>ATOM
      1 C1         7.2289    5.5431    0.5734 C.2       1 RES1    0.0000
      2 C2         6.4581    6.5122    1.0302 C.2       1 RES1    0.0000
      3 C3         6.3939    7.9307    0.5616 C.3       1 RES1    0.0000
      4 H1         7.0246    8.0597   -0.1777 H         1 RES1    0.0000
      5 H2         6.6298    8.5298    1.3010 H         1 RES1    0.0000
      6 H3         5.4851    8.1321    0.2543 H         1 RES1    0.0000
      7 C4         5.5875    5.9812    2.1210 C.3       1 RES1    0.0000
      8 H4         4.6478    5.9076    1.8162 H         1 RES1    0.0000
      9 H5         5.6202    6.5704    2.9150 H         1 RES1    0.0000
     10 C5         6.1734    4.5695    2.4546 C.3       1 RES1    0.0000
     11 C6         5.0436    3.6160    2.9065 C.3       1 RES1    0.0000
     12 H6         4.2780    3.6431    2.2792 H         1 RES1    0.0000
     13 H7         5.3691    2.6831    2.9802 H         1 RES1    0.0000
     14 C7         4.6511    4.1819    4.2887 C.3       1 RES1    0.0000
     15 H8         4.2865    3.4684    4.8698 H         1 RES1    0.0000
     16 H9         3.9741    4.8971    4.1964 H         1 RES1    0.0000
     17 C8         5.9734    4.7468    4.8750 C.3       1 RES1    0.0000
     18 H10        5.8680    5.6968    5.1339 H         1 RES1    0.0000
     19 H11        6.2626    4.2264    5.6654 H         1 RES1    0.0000
     20 C9         6.9595    4.6021    3.7408 C.2       1 RES1    0.0000
     21 C10        8.2431    4.2343    3.8317 C.2       1 RES1    0.0000
     22 H12        8.6786    4.3153    4.6725 H         1 RES1    0.0000
     23 C11        9.0106    3.7116    2.6899 C.ar      1 RES1    0.0000
     24 C12       10.3897    3.2933    2.8707 C.ar      1 RES1    0.0000
     25 C13       11.0940    3.5475    4.0691 C.ar      1 RES1    0.0000
     26 H13       10.6556    4.0034    4.7768 H         1 RES1    0.0000
     27 C14       12.4014    3.1479    4.2339 C.ar      1 RES1    0.0000
     28 H14       12.8538    3.3337    5.0491 H         1 RES1    0.0000
     29 C15       13.0610    2.4721    3.2085 C.ar      1 RES1    0.0000
     30 H15       13.9569    2.1816    3.3291 H         1 RES1    0.0000
     31 C16       12.4154    2.2271    2.0304 C.ar      1 RES1    0.0000
     32 H16       12.8791    1.7746    1.3352 H         1 RES1    0.0000
     33 C17       11.0692    2.6325    1.8126 C.ar      1 RES1    0.0000
     34 C18       10.3840    2.3770    0.5589 C.ar      1 RES1    0.0000
     35 C19       10.9964    1.6931   -0.5132 C.ar      1 RES1    0.0000
     36 H17       11.8878    1.3807   -0.4125 H         1 RES1    0.0000
     37 C20       10.3396    1.4674   -1.6939 C.ar      1 RES1    0.0000
     38 H18       10.7759    1.0020   -2.3982 H         1 RES1    0.0000
     39 C21        9.0302    1.9205   -1.8625 C.ar      1 RES1    0.0000
     40 H19        8.5770    1.7752   -2.6851 H         1 RES1    0.0000
     41 C22        8.3999    2.5786   -0.8311 C.ar      1 RES1    0.0000
     42 H20        7.5016    2.8685   -0.9488 H         1 RES1    0.0000
     43 C23        9.0465    2.8372    0.3976 C.ar      1 RES1    0.0000
     44 C24        8.3891    3.5308    1.4826 C.ar      1 RES1    0.0000
     45 C25        7.0346    4.1880    1.2209 C.3       1 RES1    0.0000
     46 H21        6.4973    3.6058    0.6114 H         1 RES1    0.0000
     47 C26        7.9687    5.5392   -1.6719 C.2       1 RES1    0.0000
     48 C27        9.2019    5.4865   -2.5050 C.ar      1 RES1    0.0000
     49 C28        9.0624    5.5820   -3.8749 C.ar      1 RES1    0.0000
     50 H22        8.2065    5.7380   -4.2584 H         1 RES1    0.0000
     51 C29       10.1776    5.4495   -4.6877 C.ar      1 RES1    0.0000
     52 H23       10.1040    5.5322   -5.6311 H         1 RES1    0.0000
     53 C30       11.3946    5.1960   -4.0954 C.ar      1 RES1    0.0000
     54 C31       11.5596    5.1024   -2.7340 C.ar      1 RES1    0.0000
     55 H24       12.4148    4.9317   -2.3574 H         1 RES1    0.0000
     56 C32       10.4494    5.2615   -1.9282 C.ar      1 RES1    0.0000
     57 H25       10.5372    5.2173   -0.9831 H         1 RES1    0.0000
     58 N1        12.5720    5.0119   -4.9625 N.pl3     1 RES1    0.0000
     59 O1         8.2642    5.7180   -0.3650 O.3       1 RES1    0.0000
     60 O2         6.8495    5.4067   -2.0875 O.2       1 RES1    0.0000
     61 O3        13.6515    4.7619   -4.4291 O.2       1 RES1    0.0000
     62 O4        12.4211    5.1098   -6.1771 O.2       1 RES1    0.0000
     63 C33        3.7845   10.6609   11.1714 C.2       2 RES2    0.0000
     64 C34        3.1583   11.7099   11.6786 C.2       2 RES2    0.0000
     65 C35        3.1587   13.1030   11.1566 C.3       2 RES2    0.0000
     66 H26        3.7410   13.1566   10.3688 H         2 RES2    0.0000
     67 H27        3.4900   13.7115   11.8491 H         2 RES2    0.0000
     68 H28        2.2462   13.3577   10.9068 H         2 RES2    0.0000
     69 C36        2.4398   11.3061   12.9273 C.3       2 RES2    0.0000
     70 H29        1.4856   11.5651   12.8795 H         2 RES2    0.0000
     71 H30        2.8471   11.7378   13.7191 H         2 RES2    0.0000
     72 C37        2.5849    9.7435   13.0147 C.3       2 RES2    0.0000
     73 C38        2.8958    9.2990   14.4536 C.3       2 RES2    0.0000
     74 H31        3.6118    9.8555   14.8506 H         2 RES2    0.0000
     75 H32        3.1710    8.3492   14.4805 H         2 RES2    0.0000
     76 C39        1.5512    9.5109   15.1926 C.3       2 RES2    0.0000
     77 H33        1.5065   10.4191   15.5858 H         2 RES2    0.0000
     78 H34        1.4399    8.8439   15.9168 H         2 RES2    0.0000
     79 C40        0.4571    9.3300   14.1073 C.3       2 RES2    0.0000
     80 H35       -0.1241    8.5558   14.3158 H         2 RES2    0.0000
     81 H36       -0.1031   10.1423   14.0289 H         2 RES2    0.0000
     82 C41        1.2442    9.0897   12.8365 C.2       2 RES2    0.0000
     83 C42        0.9445    8.2565   11.8475 C.2       2 RES2    0.0000
     84 H37        0.0658    7.8974   11.8068 H         2 RES2    0.0000
     85 C43        1.9081    7.8682   10.8147 C.ar      2 RES2    0.0000
     86 C44        1.4973    7.0213    9.7100 C.ar      2 RES2    0.0000
     87 C45        0.1378    6.6915    9.5012 C.ar      2 RES2    0.0000
     88 H38       -0.5142    7.0026   10.1177 H         2 RES2    0.0000
     89 C46       -0.2585    5.9373    8.4402 C.ar      2 RES2    0.0000
     90 H39       -1.1784    5.7264    8.3260 H         2 RES2    0.0000
     91 C47        0.6845    5.4744    7.5207 C.ar      2 RES2    0.0000
     92 H40        0.4045    4.9527    6.7772 H         2 RES2    0.0000
     93 C48        2.0092    5.7701    7.6865 C.ar      2 RES2    0.0000
     94 H41        2.6421    5.4458    7.0560 H         2 RES2    0.0000
     95 C49        2.4550    6.5492    8.7811 C.ar      2 RES2    0.0000
     96 C50        3.8595    6.8421    9.0036 C.ar      2 RES2    0.0000
     97 C51        4.8711    6.2801    8.1837 C.ar      2 RES2    0.0000
     98 H42        4.6240    5.7150    7.4603 H         2 RES2    0.0000
     99 C52        6.1952    6.5341    8.4118 C.ar      2 RES2    0.0000
    100 H43        6.8568    6.1503    7.8500 H         2 RES2    0.0000
    101 C53        6.5696    7.3566    9.4694 C.ar      2 RES2    0.0000
    102 H44        7.4900    7.5314    9.6270 H         2 RES2    0.0000
    103 C54        5.6208    7.9172   10.2845 C.ar      2 RES2    0.0000
    104 H45        5.8945    8.4685   11.0079 H         2 RES2    0.0000
    105 C55        4.2372    7.6905   10.0685 C.ar      2 RES2    0.0000
    106 C56        3.2214    8.2509   10.9344 C.ar      2 RES2    0.0000
    107 C57        3.6272    9.3530   11.9142 C.3       2 RES2    0.0000
    108 H46        4.4953    9.1104   12.3480 H         2 RES2    0.0000
    109 C58        5.8331   11.1025   10.1373 C.2       2 RES2    0.0000
    110 C59        6.5701   11.1314    8.8399 C.ar      2 RES2    0.0000
    111 C60        6.1291   10.4586    7.7023 C.ar      2 RES2    0.0000
    112 H47        5.3066    9.9842    7.7163 H         2 RES2    0.0000
    113 C61        6.8926   10.4859    6.5557 C.ar      2 RES2    0.0000
    114 H48        6.6258   10.0035    5.7827 H         2 RES2    0.0000
    115 C62        8.0610   11.2324    6.5573 C.ar      2 RES2    0.0000
    116 C63        8.5073   11.9247    7.6589 C.ar      2 RES2    0.0000
    117 H49        9.3056   12.4391    7.6234 H         2 RES2    0.0000
    118 C64        7.7571   11.8489    8.8205 C.ar      2 RES2    0.0000
    119 H50        8.0569   12.2893    9.6075 H         2 RES2    0.0000
    120 N2         8.8615   11.2905    5.3249 N.pl3     2 RES2    0.0000
    121 O5         4.5414   10.7171    9.9834 O.3       2 RES2    0.0000
    122 O6         6.3206   11.3844   11.1916 O.2       2 RES2    0.0000
    123 O7         8.6945   10.4237    4.4813 O.2       2 RES2    0.0000
    124 O8         9.6540   12.2214    5.1955 O.2       2 RES2    0.0000
@<TRIPOS>BOND
     1    1    2 2
     2    2    3 1
     3    3    4 1
     4    5    3 1
     5    6    3 1
     6    7    2 1
     7    8    7 1
     8    9    7 1
     9   10    7 1
    10   11   10 1
    11   12   11 1
    12   13   11 1
    13   14   11 1
    14   15   14 1
    15   16   14 1
    16   17   14 1
    17   18   17 1
    18   19   17 1
    19   20   10 1
    20   21   20 2
    21   22   21 1
    22   23   21 1
    23   24   23 ar
    24   25   24 ar
    25   26   25 1
    26   27   25 ar
    27   28   27 1
    28   29   27 ar
    29   30   29 1
    30   31   29 ar
    31   32   31 1
    32   33   24 ar
    33   34   33 ar
    34   35   34 ar
    35   36   35 1
    36   37   35 ar
    37   38   37 1
    38   39   37 ar
    39   40   39 1
    40   41   39 ar
    41   42   41 1
    42   43   34 ar
    43   44   23 ar
    44   45    1 1
    45   46   45 1
    46   47   48 1
    47   48   49 ar
    48   49   50 1
    49   51   49 ar
    50   52   51 1
    51   53   51 ar
    52   54   53 ar
    53   55   54 1
    54   56   48 ar
    55   57   56 1
    56   58   53 1
    57   59    1 1
    58   60   47 2
    59   61   58 2
    60   62   58 2
    61   63   64 2
    62   64   65 1
    63   65   66 1
    64   67   65 1
    65   68   65 1
    66   69   64 1
    67   70   69 1
    68   71   69 1
    69   72   69 1
    70   73   72 1
    71   74   73 1
    72   75   73 1
    73   76   73 1
    74   77   76 1
    75   78   76 1
    76   79   76 1
    77   80   79 1
    78   81   79 1
    79   82   72 1
    80   83   82 2
    81   84   83 1
    82   85   83 1
    83   86   85 ar
    84   87   86 ar
    85   88   87 1
    86   89   87 ar
    87   90   89 1
    88   91   89 ar
    89   92   91 1
    90   93   91 ar
    91   94   93 1
    92   95   86 ar
    93   96   95 ar
    94   97   96 ar
    95   98   97 1
    96   99   97 ar
    97  100   99 1
    98  101   99 ar
    99  102  101 1
   100  103  101 ar
   101  104  103 1
   102  105   96 ar
   103  106   85 ar
   104  107   63 1
   105  108  107 1
   106  109  110 1
   107  110  111 ar
   108  111  112 1
   109  113  111 ar
   110  114  113 1
   111  115  113 ar
   112  116  115 ar
   113  117  116 1
   114  118  110 ar
   115  119  118 1
   116  120  115 1
   117  121   63 1
   118  122  109 2
   119  123  120 2
   120  124  120 2
   121   10   45 1
   122   17   20 1
   123   31   33 ar
   124   41   43 ar
   125   43   44 ar
   126   44   45 1
   127   47   59 1
   128   54   56 ar
   129   72  107 1
   130   79   82 1
   131   93   95 ar
   132  103  105 ar
   133  105  106 ar
   134  106  107 1
   135  109  121 1
   136  116  118 ar
@<TRIPOS>SUBSTRUCTURE
     1 RES1 1
     2 RES2 63

@<TRIPOS>CRYSIN
  11.5520   12.7110   16.7190 102.5170  90.5460  99.6200   2 1

