# MOL2 file generated by ConQuest
# Please check atom types

@<TRIPOS>MOLECULE
ESIRIJ
    17    18     1
SMALL
NO_CHARGES
****
Generated from CSD

@<TRIPOS>ATOM
      1 O1        -2.9041    0.4631    9.7566 O.2       1 RES1    0.0000
      2 O2        -4.3582    1.2354   11.1468 O.2       1 RES1    0.0000
      3 N1        -3.3001    0.6796   10.8911 N.pl3     1 RES1    0.0000
      4 N2        -3.0137    0.3942   15.3521 N.3       1 RES1    0.0000
      5 H1        -2.7913    1.0292   15.9278 H         1 RES1    0.0000
      6 C1        -2.4641    0.2668   12.0132 C.ar      1 RES1    0.0000
      7 C2        -1.2211   -0.3179   11.7728 C.ar      1 RES1    0.0000
      8 H2        -0.9281   -0.4564   10.9015 H         1 RES1    0.0000
      9 C3        -0.4368   -0.6856   12.8329 C.ar      1 RES1    0.0000
     10 H3         0.3925   -1.0683   12.6598 H         1 RES1    0.0000
     11 C4        -0.8241   -0.5122   14.1550 C.ar      1 RES1    0.0000
     12 H4        -0.2874   -0.7750   14.8675 H         1 RES1    0.0000
     13 C5        -2.0583    0.0752   14.3435 C.ar      1 RES1    0.0000
     14 C6        -2.8703    0.4782   13.2926 C.ar      1 RES1    0.0000
     15 C7        -3.9016    0.9809   14.2763 C.3       1 RES1    0.0000
     16 H5        -4.7697    0.5538   14.1986 H         1 RES1    0.0000
     17 H6        -3.9848    1.9467   14.3097 H         1 RES1    0.0000
@<TRIPOS>BOND
     1    1    3 2
     2    2    3 2
     3    3    6 1
     4    4    5 1
     5    6    7 ar
     6    7    8 1
     7    9    7 ar
     8   10    9 1
     9   11    9 ar
    10   12   11 1
    11   13    4 1
    12   14    6 ar
    13   15    4 1
    14   16   15 1
    15   17   15 1
    16   11   13 ar
    17   13   14 ar
    18   14   15 1
@<TRIPOS>SUBSTRUCTURE
     1 RES1 1

@<TRIPOS>CRYSIN
  13.3730    3.9583   14.2900  90.0000 112.3100  90.0000 231 1

