# MOL2 file generated by ConQuest
# Please check atom types

@<TRIPOS>MOLECULE
ESIRUV
    38    41     1
SMALL
NO_CHARGES
****
Generated from CSD

@<TRIPOS>ATOM
      1 O1         2.0316    6.9656   14.0421 O.2       1 RES1    0.0000
      2 O2         5.3608    9.0073    4.7027 O.2       1 RES1    0.0000
      3 O3         4.4164    7.9015    3.1176 O.2       1 RES1    0.0000
      4 N1         2.0768    6.3967   11.8872 N.am      1 RES1    0.0000
      5 N2         1.1240    3.8610   12.5775 N.ar      1 RES1    0.0000
      6 N3         4.5303    8.2042    4.2950 N.pl3     1 RES1    0.0000
      7 C1         1.9640    5.7763   10.5194 C.3       1 RES1    0.0000
      8 H1         1.0574    5.5634   10.2481 H         1 RES1    0.0000
      9 H2         2.5677    5.0335   10.3633 H         1 RES1    0.0000
     10 C2         2.4759    7.1246   10.0178 C.ar      1 RES1    0.0000
     11 C3         2.5520    7.5990   11.3149 C.ar      1 RES1    0.0000
     12 C4         3.0028    8.8433   11.6812 C.ar      1 RES1    0.0000
     13 H3         3.0599    9.1280   12.5645 H         1 RES1    0.0000
     14 C5         3.3662    9.6371   10.5948 C.ar      1 RES1    0.0000
     15 H4         3.6653   10.5024   10.7575 H         1 RES1    0.0000
     16 C6         3.3028    9.1979    9.2897 C.ar      1 RES1    0.0000
     17 H5         3.5572    9.7807    8.6116 H         1 RES1    0.0000
     18 C7         2.8690    7.9025    8.9384 C.ar      1 RES1    0.0000
     19 C8         2.8488    7.4360    7.5349 C.ar      1 RES1    0.0000
     20 C9         3.6738    8.0280    6.5733 C.ar      1 RES1    0.0000
     21 H6         4.2415    8.7263    6.8091 H         1 RES1    0.0000
     22 C10        3.6388    7.5702    5.2761 C.ar      1 RES1    0.0000
     23 C11        2.8453    6.5266    4.8644 C.ar      1 RES1    0.0000
     24 H7         2.8506    6.2330    3.9822 H         1 RES1    0.0000
     25 C12        2.0414    5.9323    5.8138 C.ar      1 RES1    0.0000
     26 H8         1.4963    5.2194    5.5724 H         1 RES1    0.0000
     27 C13        2.0344    6.3834    7.1205 C.ar      1 RES1    0.0000
     28 H9         1.4732    5.9744    7.7386 H         1 RES1    0.0000
     29 C14        1.8526    6.1047   13.1883 C.2       1 RES1    0.0000
     30 C15        1.3950    4.7312   13.5552 C.ar      1 RES1    0.0000
     31 C16        1.2704    4.4235   14.8977 C.ar      1 RES1    0.0000
     32 H10        1.4756    5.0553   15.5484 H         1 RES1    0.0000
     33 C17        0.8379    3.1679   15.2536 C.ar      1 RES1    0.0000
     34 H11        0.7528    2.9306   16.1492 H         1 RES1    0.0000
     35 C18        0.5370    2.2768   14.2663 C.ar      1 RES1    0.0000
     36 H12        0.2315    1.4241   14.4766 H         1 RES1    0.0000
     37 C19        0.6917    2.6585   12.9561 C.ar      1 RES1    0.0000
     38 H13        0.4819    2.0411   12.2934 H         1 RES1    0.0000
@<TRIPOS>BOND
     1    1   29 2
     2    2    6 2
     3    3    6 2
     4    4    7 1
     5    5   30 ar
     6    6   22 1
     7    7    8 1
     8    9    7 1
     9   10    7 1
    10   11    4 1
    11   12   11 ar
    12   13   12 1
    13   14   12 ar
    14   15   14 1
    15   16   14 ar
    16   17   16 1
    17   18   10 ar
    18   19   18 1
    19   20   19 ar
    20   21   20 1
    21   22   20 ar
    22   23   22 ar
    23   24   23 1
    24   25   23 ar
    25   26   25 1
    26   27   19 ar
    27   28   27 1
    28   29    4 1
    29   30   29 1
    30   31   30 ar
    31   32   31 1
    32   33   31 ar
    33   34   33 1
    34   35   33 ar
    35   36   35 1
    36   37    5 ar
    37   38   37 1
    38   10   11 ar
    39   16   18 ar
    40   25   27 ar
    41   35   37 ar
@<TRIPOS>SUBSTRUCTURE
     1 RES1 1

@<TRIPOS>CRYSIN
   7.5649    8.9773   11.5770  77.3100  88.9000  86.7600   2 1

