# MOL2 file generated by ConQuest
# Please check atom types

@<TRIPOS>MOLECULE
ESOLAB
    31    33     1
SMALL
NO_CHARGES
****
Generated from CSD

@<TRIPOS>ATOM
      1 C1         1.8772    6.5865    0.9971 C.ar      1 RES1    0.0000
      2 C2         2.8245    7.5896    1.2233 C.ar      1 RES1    0.0000
      3 C3         4.1226    7.1653    1.4796 C.ar      1 RES1    0.0000
      4 H1         4.7913    7.8004    1.6053 H         1 RES1    0.0000
      5 C4         4.4462    5.8206    1.5533 C.ar      1 RES1    0.0000
      6 H2         5.3188    5.5646    1.7499 H         1 RES1    0.0000
      7 C5         3.4792    4.8601    1.3356 C.ar      1 RES1    0.0000
      8 H3         3.6993    3.9584    1.3918 H         1 RES1    0.0000
      9 C6         2.1963    5.2356    1.0372 C.ar      1 RES1    0.0000
     10 H4         1.5464    4.5927    0.8637 H         1 RES1    0.0000
     11 N1         0.4813    6.9200    0.7142 N.pl3     1 RES1    0.0000
     12 O1        -0.0048    7.8960    1.2450 O.2       1 RES1    0.0000
     13 O2        -0.1428    6.1906   -0.0407 O.2       1 RES1    0.0000
     14 C7         2.5355    9.0516    1.1537 C.3       1 RES1    0.0000
     15 H5         1.7573    9.3222    0.6236 H         1 RES1    0.0000
     16 O3         3.6971    9.8862    1.0660 O.3       1 RES1    0.0000
     17 C8         2.9267    9.9419    2.2583 C.3       1 RES1    0.0000
     18 H6         3.3174    9.5070    3.0441 H         1 RES1    0.0000
     19 C9         2.2318   11.2514    2.5076 C.ar      1 RES1    0.0000
     20 C10        1.5192   11.5775    3.6599 C.ar      1 RES1    0.0000
     21 C11        0.9655   12.8330    3.8594 C.ar      1 RES1    0.0000
     22 H7         0.5147   13.0251    4.6494 H         1 RES1    0.0000
     23 C12        1.0882   13.7910    2.8819 C.ar      1 RES1    0.0000
     24 H8         0.7174   14.6358    3.0055 H         1 RES1    0.0000
     25 C13        1.7619   13.4948    1.7190 C.ar      1 RES1    0.0000
     26 H9         1.8326   14.1362    1.0498 H         1 RES1    0.0000
     27 C14        2.3346   12.2480    1.5400 C.ar      1 RES1    0.0000
     28 H10        2.7994   12.0714    0.7542 H         1 RES1    0.0000
     29 N2         1.2952   10.5948    4.7259 N.pl3     1 RES1    0.0000
     30 O4         0.7396   10.9585    5.7385 O.2       1 RES1    0.0000
     31 O5         1.6392    9.4367    4.5384 O.2       1 RES1    0.0000
@<TRIPOS>BOND
     1    1    2 ar
     2    2    3 ar
     3    3    4 1
     4    5    3 ar
     5    6    5 1
     6    7    5 ar
     7    8    7 1
     8    9    1 ar
     9   10    9 1
    10   11    1 1
    11   12   11 2
    12   13   11 2
    13   14    2 1
    14   15   14 1
    15   16   14 1
    16   17   14 1
    17   18   17 1
    18   19   17 1
    19   20   19 ar
    20   21   20 ar
    21   22   21 1
    22   23   21 ar
    23   24   23 1
    24   25   23 ar
    25   26   25 1
    26   27   19 ar
    27   28   27 1
    28   29   20 1
    29   30   29 2
    30   31   29 2
    31    7    9 ar
    32   16   17 1
    33   25   27 ar
@<TRIPOS>SUBSTRUCTURE
     1 RES1 1

@<TRIPOS>CRYSIN
   7.9360   22.8150    7.0437  90.0000  94.4840  90.0000  14 1

