# MOL2 file generated by ConQuest
# Please check atom types

@<TRIPOS>MOLECULE
ETAGIQ
    56    58     1
SMALL
NO_CHARGES
****
Generated from CSD

@<TRIPOS>ATOM
      1 C1        16.6729   13.4972    7.4849 C.3       1 RES1    0.0000
      2 H1        16.6756   12.5208    7.5685 H         1 RES1    0.0000
      3 H2        17.5555   13.8024    7.1875 H         1 RES1    0.0000
      4 H3        15.9953   13.7670    6.8297 H         1 RES1    0.0000
      5 C2        16.3498   14.1202    8.8317 C.3       1 RES1    0.0000
      6 C3        14.9917   13.6746    9.3742 C.ar      1 RES1    0.0000
      7 C4        14.1381   12.8261    8.6683 C.ar      1 RES1    0.0000
      8 H4        14.3869   12.5123    7.8066 H         1 RES1    0.0000
      9 C5        12.9277   12.4414    9.2241 C.ar      1 RES1    0.0000
     10 C6        12.4964   12.8575   10.4793 C.ar      1 RES1    0.0000
     11 C7        11.2876   12.3749   11.2305 C.2       1 RES1    0.0000
     12 C8        11.0187   10.9544   11.2624 C.2       1 RES1    0.0000
     13 H5        11.4602   10.3895   10.6397 H         1 RES1    0.0000
     14 C9        10.1589   10.4023   12.1507 C.2       1 RES1    0.0000
     15 C10        8.7512   10.0368   13.8956 C.ar      1 RES1    0.0000
     16 C11        7.9750   10.2536   15.0195 C.ar      1 RES1    0.0000
     17 H6         7.7306   11.1342   15.2799 H         1 RES1    0.0000
     18 C12        7.5594    9.1432   15.7641 C.ar      1 RES1    0.0000
     19 C13        6.7994    9.2873   17.0848 C.3       1 RES1    0.0000
     20 C14        6.5589   10.7490   17.4597 C.3       1 RES1    0.0000
     21 H7         7.4200   11.2093   17.5505 H         1 RES1    0.0000
     22 H8         6.0744   10.7926   18.3099 H         1 RES1    0.0000
     23 H9         6.0281   11.1825   16.7589 H         1 RES1    0.0000
     24 C15        5.4433    8.5742   16.9657 C.3       1 RES1    0.0000
     25 H10        4.9722    8.6224   17.8233 H         1 RES1    0.0000
     26 H11        5.5885    7.6355   16.7254 H         1 RES1    0.0000
     27 H12        4.9056    9.0096   16.2723 H         1 RES1    0.0000
     28 C16        7.6305    8.6351   18.2069 C.3       1 RES1    0.0000
     29 H13        8.5075    9.0681   18.2571 H         1 RES1    0.0000
     30 H14        7.7482    7.6812   18.0138 H         1 RES1    0.0000
     31 H15        7.1645    8.7412   19.0629 H         1 RES1    0.0000
     32 C17        7.8871    7.8522   15.3154 C.ar      1 RES1    0.0000
     33 H16        7.5672    7.1003   15.7999 H         1 RES1    0.0000
     34 C18        8.6595    7.6458   14.1928 C.ar      1 RES1    0.0000
     35 H17        8.8745    6.7658   13.9065 H         1 RES1    0.0000
     36 C19        9.1175    8.7579   13.4870 C.ar      1 RES1    0.0000
     37 C20       17.4330   13.6780    9.8343 C.3       1 RES1    0.0000
     38 H18       17.4135   12.7027    9.9279 H         1 RES1    0.0000
     39 H19       17.2612   14.0931   10.7053 H         1 RES1    0.0000
     40 H20       18.3136   13.9578    9.5083 H         1 RES1    0.0000
     41 C21       14.5644   14.1225   10.6284 C.ar      1 RES1    0.0000
     42 H21       15.1211   14.7085   11.1275 H         1 RES1    0.0000
     43 C22       13.3468   13.7300   11.1587 C.ar      1 RES1    0.0000
     44 H22       13.0839   14.0639   12.0079 H         1 RES1    0.0000
     45 C23       10.0375    8.8982   12.3658 C.2       1 RES1    0.0000
     46 C24       16.3716   15.6469    8.7086 C.3       1 RES1    0.0000
     47 H23       17.2442   15.9348    8.3678 H         1 RES1    0.0000
     48 H24       16.2177   16.0484    9.5894 H         1 RES1    0.0000
     49 H25       15.6684   15.9353    8.0898 H         1 RES1    0.0000
     50 N1         9.3433   10.9987   13.0558 N.pl3     1 RES1    0.0000
     51 H26        9.2038   11.8662   13.1110 H         1 RES1    0.0000
     52 N2        12.0525   11.6086    8.3817 N.pl3     1 RES1    0.0000
     53 O1        10.6491    8.0575   11.7366 O.2       1 RES1    0.0000
     54 O2        12.5785   10.7819    7.6540 O.2       1 RES1    0.0000
     55 O3        10.8443   11.8170    8.4401 O.2       1 RES1    0.0000
     56 O4        10.6565   13.1776   11.9199 O.2       1 RES1    0.0000
@<TRIPOS>BOND
     1    1    2 1
     2    3    1 1
     3    4    1 1
     4    5    1 1
     5    6    5 1
     6    7    6 ar
     7    8    7 1
     8    9    7 ar
     9   10    9 ar
    10   11   10 1
    11   12   11 1
    12   13   12 1
    13   14   12 2
    14   15   16 ar
    15   16   17 1
    16   18   16 ar
    17   19   18 1
    18   20   19 1
    19   21   20 1
    20   22   20 1
    21   23   20 1
    22   24   19 1
    23   25   24 1
    24   26   24 1
    25   27   24 1
    26   28   19 1
    27   29   28 1
    28   30   28 1
    29   31   28 1
    30   32   18 ar
    31   33   32 1
    32   34   32 ar
    33   35   34 1
    34   36   15 ar
    35   37    5 1
    36   38   37 1
    37   39   37 1
    38   40   37 1
    39   41    6 ar
    40   42   41 1
    41   43   10 ar
    42   44   43 1
    43   45   14 1
    44   46    5 1
    45   47   46 1
    46   48   46 1
    47   49   46 1
    48   50   14 1
    49   51   50 1
    50   52    9 1
    51   53   45 2
    52   54   52 2
    53   55   52 2
    54   56   11 2
    55   15   50 1
    56   34   36 ar
    57   36   45 1
    58   41   43 ar
@<TRIPOS>SUBSTRUCTURE
     1 RES1 1

@<TRIPOS>CRYSIN
   9.0389   10.0864   13.5880  72.5800  88.2950  63.7950   2 1

