# MOL2 file generated by ConQuest
# Please check atom types

@<TRIPOS>MOLECULE
ETAGEM
    32    34     1
SMALL
NO_CHARGES
****
Generated from CSD

@<TRIPOS>ATOM
      1 C1         7.8829   10.7518    2.8373 C.ar      1 RES1    0.0000
      2 C2         8.1049    9.3958    2.7030 C.ar      1 RES1    0.0000
      3 H1         7.3677    8.7986    2.6568 H         1 RES1    0.0000
      4 C3         9.4062    8.8975    2.6351 C.ar      1 RES1    0.0000
      5 C4        10.4800    9.7981    2.6903 C.ar      1 RES1    0.0000
      6 H2        11.3711    9.4695    2.6523 H         1 RES1    0.0000
      7 C5        10.2578   11.1549    2.7993 C.ar      1 RES1    0.0000
      8 H3        10.9945   11.7531    2.8276 H         1 RES1    0.0000
      9 C6         8.9576   11.6524    2.8686 C.ar      1 RES1    0.0000
     10 C7         8.6492   13.0987    2.8947 C.2       1 RES1    0.0000
     11 C8         7.1613   13.3989    2.9902 C.3       1 RES1    0.0000
     12 H4         7.0004   14.3155    3.3573 H         1 RES1    0.0000
     13 C9         6.4864   13.2219    1.6190 C.3       1 RES1    0.0000
     14 H5         7.1298   13.3684    0.8811 H         1 RES1    0.0000
     15 H6         5.7224   13.8426    1.5115 H         1 RES1    0.0000
     16 C10        6.0126   11.7545    1.6652 C.3       1 RES1    0.0000
     17 H7         6.3854   11.2371    0.8945 H         1 RES1    0.0000
     18 C11        9.6448    7.4144    2.5501 C.3       1 RES1    0.0000
     19 H8         9.7959    7.0553    3.4491 H         1 RES1    0.0000
     20 H9        10.4326    7.2413    1.9927 H         1 RES1    0.0000
     21 H10        8.8616    6.9799    2.1524 H         1 RES1    0.0000
     22 C12        4.0519   10.4324    1.4772 C.3       1 RES1    0.0000
     23 H11        4.2134    9.8926    2.2912 H         1 RES1    0.0000
     24 H12        4.4716    9.9734    0.7073 H         1 RES1    0.0000
     25 C13        2.5772   10.5920    1.2452 C.3       1 RES1    0.0000
     26 H13        2.1712   11.0377    2.0181 H         1 RES1    0.0000
     27 H14        2.1674    9.7093    1.1251 H         1 RES1    0.0000
     28 H15        2.4288   11.1333    0.4417 H         1 RES1    0.0000
     29 N1         6.5161   11.2139    2.9552 N.3       1 RES1    0.0000
     30 O1         4.6091   11.7493    1.6353 O.3       1 RES1    0.0000
     31 O2         9.4809   13.9791    2.7746 O.2       1 RES1    0.0000
     32 O3         6.5381   12.3914    3.8113 O.3       1 RES1    0.0000
@<TRIPOS>BOND
     1    1    2 ar
     2    2    3 1
     3    4    2 ar
     4    5    4 ar
     5    6    5 1
     6    7    5 ar
     7    8    7 1
     8    9    1 ar
     9   10    9 1
    10   11   10 1
    11   12   11 1
    12   13   11 1
    13   14   13 1
    14   15   13 1
    15   16   13 1
    16   17   16 1
    17   18    4 1
    18   19   18 1
    19   20   18 1
    20   21   18 1
    21   22   23 1
    22   24   22 1
    23   25   22 1
    24   26   25 1
    25   27   25 1
    26   28   25 1
    27   29    1 1
    28   30   16 1
    29   31   10 2
    30   32   11 1
    31    7    9 ar
    32   16   29 1
    33   22   30 1
    34   29   32 1
@<TRIPOS>SUBSTRUCTURE
     1 RES1 1

@<TRIPOS>CRYSIN
  11.3656   13.4721    7.4844  90.0000  94.5620  90.0000  14 1

