# MOL2 file generated by ConQuest
# Please check atom types

@<TRIPOS>MOLECULE
ETAHIR
    55    59     1
SMALL
NO_CHARGES
****
Generated from CSD

@<TRIPOS>ATOM
      1 O1        -2.0635    5.3415    5.2282 O.3       1 RES1    0.0000
      2 N1        -1.3701    3.4871    1.6032 N.am      1 RES1    0.0000
      3 C1        -0.2228    4.2698    2.1349 C.3       1 RES1    0.0000
      4 H1         0.1030    4.8355    1.4042 H         1 RES1    0.0000
      5 C2         0.9268    3.3552    2.5363 C.ar      1 RES1    0.0000
      6 O2         2.2446    6.0610    5.0272 O.2       1 RES1    0.0000
      7 O3        -3.3908    2.4784    1.8850 O.2       1 RES1    0.0000
      8 C3         1.0493    6.9737    2.7036 C.ar      1 RES1    0.0000
      9 C4        -0.6037    5.1924    3.2797 C.2       1 RES1    0.0000
     10 C5        -1.7262    4.7317    4.0570 C.2       1 RES1    0.0000
     11 C6        -2.4897    3.1822    2.3340 C.2       1 RES1    0.0000
     12 C7         0.0475    6.3210    3.5677 C.2       1 RES1    0.0000
     13 H2        -0.1458    6.7305    4.3799 H         1 RES1    0.0000
     14 C8        -1.1719    2.8916    0.3145 C.ar      1 RES1    0.0000
     15 N2         2.9862    6.4845    4.1703 N.pl3     1 RES1    0.0000
     16 C9        -2.5800    3.7957    3.6461 C.2       1 RES1    0.0000
     17 C10        3.0688    1.7007    3.2966 C.ar      1 RES1    0.0000
     18 C11        2.2028    3.5975    2.0851 C.ar      1 RES1    0.0000
     19 H3         2.3601    4.3186    1.5207 H         1 RES1    0.0000
     20 C12        2.4118    7.0948    2.9683 C.ar      1 RES1    0.0000
     21 C13        0.6016    7.5528    1.5207 C.ar      1 RES1    0.0000
     22 H4        -0.3004    7.4898    1.3015 H         1 RES1    0.0000
     23 C14       -0.8401    3.6752   -0.7667 C.ar      1 RES1    0.0000
     24 H5        -0.7380    4.5934   -0.6597 H         1 RES1    0.0000
     25 C15        3.2635    2.7785    2.4621 C.ar      1 RES1    0.0000
     26 H6         4.1169    2.9635    2.1455 H         1 RES1    0.0000
     27 O4         4.2002    6.4510    4.2709 O.2       1 RES1    0.0000
     28 C16       -3.7377    3.7218    4.6055 C.3       1 RES1    0.0000
     29 H7        -3.8701    2.8186    4.9349 H         1 RES1    0.0000
     30 H8        -4.5591    4.0384    4.1978 H         1 RES1    0.0000
     31 C17        1.7856    1.4690    3.7679 C.ar      1 RES1    0.0000
     32 H9         1.6347    0.7582    4.3492 H         1 RES1    0.0000
     33 C18        0.7280    2.2734    3.3898 C.ar      1 RES1    0.0000
     34 H10       -0.1260    2.0898    3.7096 H         1 RES1    0.0000
     35 C19       -1.2963    1.5202    0.1387 C.ar      1 RES1    0.0000
     36 H11       -1.4878    0.9749    0.8673 H         1 RES1    0.0000
     37 C20       -0.6575    3.0987   -2.0184 C.ar      1 RES1    0.0000
     38 H12       -0.4276    3.6308   -2.7449 H         1 RES1    0.0000
     39 C21       -1.1351    0.9663   -1.1098 C.ar      1 RES1    0.0000
     40 H13       -1.2464    0.0505   -1.2252 H         1 RES1    0.0000
     41 C22       -3.2636    4.6600    5.7164 C.3       1 RES1    0.0000
     42 H14       -3.9549    5.3067    5.9271 H         1 RES1    0.0000
     43 H15       -3.0602    4.1547    6.5191 H         1 RES1    0.0000
     44 C23        1.4488    8.2147    0.6661 C.ar      1 RES1    0.0000
     45 H16        1.1180    8.5883   -0.1186 H         1 RES1    0.0000
     46 C24        4.2054    0.7750    3.6747 C.3       1 RES1    0.0000
     47 H17        3.8777    0.0887    4.2613 H         1 RES1    0.0000
     48 H18        4.8908    1.2767    4.1216 H         1 RES1    0.0000
     49 H19        4.5674    0.3722    2.8825 H         1 RES1    0.0000
     50 C25        2.7787    8.3255    0.9679 C.ar      1 RES1    0.0000
     51 H20        3.3487    8.7858    0.3939 H         1 RES1    0.0000
     52 C26        3.2731    7.7582    2.1127 C.ar      1 RES1    0.0000
     53 H21        4.1796    7.8192    2.3128 H         1 RES1    0.0000
     54 C27       -0.8143    1.7510   -2.1815 C.ar      1 RES1    0.0000
     55 H22       -0.7038    1.3686   -3.0223 H         1 RES1    0.0000
@<TRIPOS>BOND
     1    1   10 1
     2    2    3 1
     3    3    4 1
     4    5    3 1
     5    6   15 2
     6    7   11 2
     7    8   12 1
     8    9    3 1
     9   10    9 1
    10   11    2 1
    11   12    9 2
    12   13   12 1
    13   14    2 1
    14   15   20 1
    15   16   10 2
    16   17   25 ar
    17   18    5 ar
    18   19   18 1
    19   20    8 ar
    20   21    8 ar
    21   22   21 1
    22   23   14 ar
    23   24   23 1
    24   25   18 ar
    25   26   25 1
    26   27   15 2
    27   28   16 1
    28   29   28 1
    29   30   28 1
    30   31   17 ar
    31   32   31 1
    32   33    5 ar
    33   34   33 1
    34   35   14 ar
    35   36   35 1
    36   37   23 ar
    37   38   37 1
    38   39   35 ar
    39   40   39 1
    40   41    1 1
    41   42   41 1
    42   43   41 1
    43   44   21 ar
    44   45   44 1
    45   46   17 1
    46   47   46 1
    47   48   46 1
    48   49   46 1
    49   50   44 ar
    50   51   50 1
    51   52   20 ar
    52   53   52 1
    53   54   37 ar
    54   55   54 1
    55   11   16 1
    56   28   41 1
    57   31   33 ar
    58   39   54 ar
    59   50   52 ar
@<TRIPOS>SUBSTRUCTURE
     1 RES1 1

@<TRIPOS>CRYSIN
  10.2580   10.8760   12.0510 112.3950  97.2630 111.6770   2 1

