# MOL2 file generated by ConQuest
# Please check atom types

@<TRIPOS>MOLECULE
ETATAU
    56    56     2
SMALL
NO_CHARGES
****
Generated from CSD

@<TRIPOS>ATOM
      1 N1         4.6408    1.8631    2.9340 N.pl3     1 RES1    0.0000
      2 N2         4.8715   -2.5712    0.9484 N.pl3     1 RES1    0.0000
      3 O1         4.8231    0.5671   -2.9482 O.3       1 RES1    0.0000
      4 O2         4.6075    2.6345   -2.1383 O.2       1 RES1    0.0000
      5 O3         4.8093   -3.2378   -0.0533 O.2       1 RES1    0.0000
      6 O4         4.9652   -2.9990    2.0921 O.2       1 RES1    0.0000
      7 O5         4.5441    1.3629    4.0422 O.2       1 RES1    0.0000
      8 O6         4.6660    3.0759    2.7919 O.2       1 RES1    0.0000
      9 C1         3.6730   -1.9716   -6.2302 C.3       1 RES1    0.0000
     10 C2         3.1928   -3.3219   -5.7471 C.3       1 RES1    0.0000
     11 H1         2.4292   -3.1573   -5.1575 H         1 RES1    0.0000
     12 C3         4.3115   -3.8021   -4.8733 C.3       1 RES1    0.0000
     13 H2         4.9438   -4.3312   -5.3884 H         1 RES1    0.0000
     14 H3         3.9702   -4.3465   -4.1487 H         1 RES1    0.0000
     15 C4         4.9966   -2.5341   -4.3228 C.3       1 RES1    0.0000
     16 H4         4.9300   -2.5061   -3.3566 H         1 RES1    0.0000
     17 H5         5.9362   -2.5206   -4.5679 H         1 RES1    0.0000
     18 C5         4.2656   -1.3485   -4.9444 C.3       1 RES1    0.0000
     19 H6         3.5190   -1.1151   -4.3548 H         1 RES1    0.0000
     20 C6         5.0293   -0.0696   -5.2534 C.3       1 RES1    0.0000
     21 H7         5.9814   -0.2740   -5.1433 H         1 RES1    0.0000
     22 C7         4.8219    0.2921   -6.7275 C.3       1 RES1    0.0000
     23 C8         5.2800   -0.8637   -7.5480 C.2       1 RES1    0.0000
     24 H8         5.9110   -0.7624   -8.2229 H         1 RES1    0.0000
     25 C9         4.7533   -2.0186   -7.2745 C.2       1 RES1    0.0000
     26 H9         5.0217   -2.8073   -7.6901 H         1 RES1    0.0000
     27 C10        2.6158   -0.9921   -6.7559 C.3       1 RES1    0.0000
     28 H10        1.8962   -0.9062   -6.1130 H         1 RES1    0.0000
     29 H11        2.2419   -1.3268   -7.5871 H         1 RES1    0.0000
     30 C11        3.2751    0.3880   -6.9974 C.3       1 RES1    0.0000
     31 H12        2.8804    1.0464   -6.4043 H         1 RES1    0.0000
     32 H13        3.1186    0.6711   -7.9103 H         1 RES1    0.0000
     33 C12        2.7277   -4.3113   -6.8127 C.3       1 RES1    0.0000
     34 H14        2.1080   -4.9308   -6.4256 H         1 RES1    0.0000
     35 H15        3.4869   -4.7906   -7.1573 H         1 RES1    0.0000
     36 H16        2.3016   -3.8328   -7.5267 H         1 RES1    0.0000
     37 C13        5.4931    1.6125   -7.1431 C.3       1 RES1    0.0000
     38 H17        5.6798    2.1353   -6.3616 H         1 RES1    0.0000
     39 H18        4.9023    2.1018   -7.7220 H         1 RES1    0.0000
     40 H19        6.3108    1.4235   -7.6048 H         1 RES1    0.0000
     41 C14        4.7138    1.0383   -4.3157 C.3       1 RES1    0.0000
     42 H20        5.3353    1.7717   -4.4578 H         1 RES1    0.0000
     43 H21        3.8181    1.3629   -4.4826 H         1 RES1    0.0000
     44 C15        4.7131    1.4199   -1.9643 C.2       1 RES1    0.0000
     45 C16        4.7615    0.8474   -0.6145 C.ar      1 RES1    0.0000
     46 C17        4.8162   -0.5707   -0.4547 C.ar      1 RES1    0.0000
     47 H22        4.8476   -1.1332   -1.1935 H         1 RES1    0.0000
     48 C18        4.8219   -1.0771    0.7992 C.ar      1 RES1    0.0000
     49 C19        4.7647   -0.3509    1.9429 C.ar      1 RES1    0.0000
     50 H23        4.7867   -0.7425    2.7848 H         1 RES1    0.0000
     51 C20        4.6710    1.0301    1.7582 C.ar      1 RES1    0.0000
     52 C21        4.7006    1.6008    0.5186 C.ar      1 RES1    0.0000
     53 H24        4.6786    2.5278    0.4476 H         1 RES1    0.0000
     54 H25        5.5823    1.6388   -8.0986 Du        2 SUP2    0.0000
     55 H26        6.3598    1.6722   -6.7381 Du        2 SUP2    0.0000
     56 H27        4.9513    2.3505   -6.8518 Du        2 SUP2    0.0000
@<TRIPOS>BOND
     1    1    7 2
     2    2    5 2
     3    3   41 1
     4    4   44 2
     5    6    2 2
     6    8    1 2
     7    9   10 1
     8   10   11 1
     9   12   10 1
    10   13   12 1
    11   14   12 1
    12   15   12 1
    13   16   15 1
    14   17   15 1
    15   18    9 1
    16   19   18 1
    17   20   18 1
    18   21   20 1
    19   22   20 1
    20   23   22 1
    21   24   23 1
    22   25    9 1
    23   26   25 1
    24   27    9 1
    25   28   27 1
    26   29   27 1
    27   30   22 1
    28   31   30 1
    29   32   30 1
    30   33   10 1
    31   34   33 1
    32   35   33 1
    33   36   33 1
    34   37   22 1
    35   38   37 1
    36   39   37 1
    37   40   37 1
    38   41   20 1
    39   42   41 1
    40   43   41 1
    41   44    3 1
    42   45   44 1
    43   46   45 ar
    44   47   46 1
    45   48    2 1
    46   49   48 ar
    47   50   49 1
    48   51    1 1
    49   52   45 ar
    50   53   52 1
    51   15   18 1
    52   23   25 2
    53   27   30 1
    54   46   48 ar
    55   49   51 ar
    56   51   52 ar
@<TRIPOS>SUBSTRUCTURE
     1 RES1 1
     2 SUP2 54

@<TRIPOS>CRYSIN
   6.2850    9.0440   35.5200  90.0000  90.0000  90.0000  19 1

