# MOL2 file generated by ConQuest
# Please check atom types

@<TRIPOS>MOLECULE
ETAVOK
    43    44     1
SMALL
NO_CHARGES
****
Generated from CSD

@<TRIPOS>ATOM
      1 N1         7.7977   -2.8334    9.0584 N.2       1 RES1    0.0000
      2 C1         7.1348   -1.8338    8.2396 C.3       1 RES1    0.0000
      3 H1         6.8036   -2.3041    7.4465 H         1 RES1    0.0000
      4 N2         7.9010   -0.7056    7.7543 N.2       1 RES1    0.0000
      5 C2         9.0734   -0.5341    8.1646 C.2       1 RES1    0.0000
      6 C3         9.8030   -1.3902    9.1729 C.3       1 RES1    0.0000
      7 C4         8.9793   -2.6245    9.4391 C.2       1 RES1    0.0000
      8 C5         5.9035   -1.3148    8.9765 C.3       1 RES1    0.0000
      9 H2         5.4080   -2.0654    9.3403 H         1 RES1    0.0000
     10 H3         6.1861   -0.7566    9.7186 H         1 RES1    0.0000
     11 C6         5.0030   -0.5178    8.0729 C.2       1 RES1    0.0000
     12 O1         4.2456   -1.0927    7.3513 O.2       1 RES1    0.0000
     13 C7         5.1068    0.9490    8.0440 C.3       1 RES1    0.0000
     14 H4         4.4323    1.3065    7.4633 H         1 RES1    0.0000
     15 H5         5.9746    1.2008    7.7200 H         1 RES1    0.0000
     16 H6         4.9826    1.2958    8.9307 H         1 RES1    0.0000
     17 O2         9.8569    0.4912    7.7795 O.3       1 RES1    0.0000
     18 C8         9.2446    1.4929    6.9345 C.3       1 RES1    0.0000
     19 H7         9.9191    2.0939    6.6104 H         1 RES1    0.0000
     20 H8         8.5937    1.9835    7.4405 H         1 RES1    0.0000
     21 H9         8.8150    1.0642    6.1899 H         1 RES1    0.0000
     22 N3        11.0935   -1.8906    8.4922 N.pl3     1 RES1    0.0000
     23 O3        10.9441   -2.4859    7.4468 O.2       1 RES1    0.0000
     24 O4        12.1596   -1.6851    9.0271 O.2       1 RES1    0.0000
     25 C9        10.1435   -0.6176   10.4643 C.3       1 RES1    0.0000
     26 H10       10.6163   -1.2055   11.0739 H         1 RES1    0.0000
     27 H11       10.7319    0.1235   10.2475 H         1 RES1    0.0000
     28 C10        8.9008   -0.0867   11.1431 C.ar      1 RES1    0.0000
     29 C11        8.2302   -0.8397   12.0823 C.ar      1 RES1    0.0000
     30 H12        8.5502   -1.6818   12.3124 H         1 RES1    0.0000
     31 C12        7.0882   -0.3527   12.6811 C.ar      1 RES1    0.0000
     32 H13        6.6546   -0.8611   13.3280 H         1 RES1    0.0000
     33 C13        6.5881    0.8694   12.3329 C.ar      1 RES1    0.0000
     34 H14        5.8014    1.1782   12.7208 H         1 RES1    0.0000
     35 C14        7.2493    1.6438   11.4089 C.ar      1 RES1    0.0000
     36 H15        6.9205    2.4835   11.1824 H         1 RES1    0.0000
     37 C15        8.4074    1.1687   10.8173 C.ar      1 RES1    0.0000
     38 H16        8.8575    1.6948   10.1969 H         1 RES1    0.0000
     39 O5         9.6795   -3.4947   10.1844 O.3       1 RES1    0.0000
     40 C16        9.0128   -4.7128   10.5463 C.3       1 RES1    0.0000
     41 H17        9.6170   -5.2734   11.0390 H         1 RES1    0.0000
     42 H18        8.7263   -5.1689    9.7523 H         1 RES1    0.0000
     43 H19        8.2486   -4.5097   11.0908 H         1 RES1    0.0000
@<TRIPOS>BOND
     1    1    2 1
     2    2    3 1
     3    4    2 1
     4    5    4 2
     5    6    5 1
     6    7    1 2
     7    8    2 1
     8    9    8 1
     9   10    8 1
    10   11    8 1
    11   12   11 2
    12   13   11 1
    13   14   13 1
    14   15   13 1
    15   16   13 1
    16   17    5 1
    17   18   17 1
    18   19   18 1
    19   20   18 1
    20   21   18 1
    21   22    6 1
    22   23   22 2
    23   24   22 2
    24   25    6 1
    25   26   25 1
    26   27   25 1
    27   28   25 1
    28   29   28 ar
    29   30   29 1
    30   31   29 ar
    31   32   31 1
    32   33   31 ar
    33   34   33 1
    34   35   33 ar
    35   36   35 1
    36   37   28 ar
    37   38   37 1
    38   39    7 1
    39   40   39 1
    40   41   40 1
    41   42   40 1
    42   43   40 1
    43    6    7 1
    44   35   37 ar
@<TRIPOS>SUBSTRUCTURE
     1 RES1 1

@<TRIPOS>CRYSIN
  12.0100   11.8770   12.1100  90.0000  95.8300  90.0000  14 1

