# MOL2 file generated by ConQuest
# Please check atom types

@<TRIPOS>MOLECULE
ETCBPO
    20    20     1
SMALL
NO_CHARGES
****
Generated from CSD

@<TRIPOS>ATOM
      1 N1         7.2370    5.3774    5.0952 N.am      1 RES1    0.0000
      2 N2         7.1510    2.0815    5.9686 N.pl3     1 RES1    0.0000
      3 C1         6.6173    3.2202    6.2316 C.2       1 RES1    0.0000
      4 C2        10.0996    2.1277    3.5232 C.ar      1 RES1    0.0000
      5 C3         8.0622    6.6002    4.9954 C.3       1 RES1    0.0000
      6 C4         8.7774    2.2581    4.1571 C.2       1 RES1    0.0000
      7 C5         5.2282    3.3060    6.7317 C.3       1 RES1    0.0000
      8 O1         8.3744    4.6507    6.9783 O.2       1 RES1    0.0000
      9 C6         5.0578    5.9778    4.0691 C.3       1 RES1    0.0000
     10 C7         8.6372    1.9200    5.4849 C.2       1 RES1    0.0000
     11 C8         6.2398    5.1023    4.0433 C.3       1 RES1    0.0000
     12 C9        12.5035    2.5651    3.4281 C.ar      1 RES1    0.0000
     13 C10       12.5959    1.8023    2.3175 C.ar      1 RES1    0.0000
     14 C11        9.5644    1.3809    6.4746 C.3       1 RES1    0.0000
     15 C12       11.4409    1.1883    1.6706 C.ar      1 RES1    0.0000
     16 C13       10.2239    1.4120    2.3715 C.ar      1 RES1    0.0000
     17 O2         6.5632    0.9579    6.1377 O.2       1 RES1    0.0000
     18 C14        7.5046    4.4682    6.0790 C.2       1 RES1    0.0000
     19 C15        9.3222    6.4606    4.1419 C.3       1 RES1    0.0000
     20 C16       11.2641    2.7677    4.0667 C.ar      1 RES1    0.0000
@<TRIPOS>BOND
     1    1    5 1
     2    2    3 2
     3    3    7 1
     4    4    6 1
     5    5   19 1
     6    6   10 2
     7    8   18 2
     8    9   11 1
     9   10    2 1
    10   11    1 1
    11   12   13 ar
    12   13   15 ar
    13   14   10 1
    14   15   16 ar
    15   16    4 ar
    16   17    2 1
    17   18    1 1
    18   20    4 ar
    19    3   18 1
    20   12   20 ar
@<TRIPOS>SUBSTRUCTURE
     1 RES1 1

@<TRIPOS>CRYSIN
  15.9300    8.4100   11.7400  90.0000  90.0000  90.0000  33 1

