# MOL2 file generated by ConQuest
# Please check atom types

@<TRIPOS>MOLECULE
ETELOG
    41    44     1
SMALL
NO_CHARGES
****
Generated from CSD

@<TRIPOS>ATOM
      1 O1         7.2313    5.5616    6.5697 O.3       1 RES1    0.0000
      2 N1         0.6087    8.1522    3.3033 N.pl3     1 RES1    0.0000
      3 C1         1.6923    6.1293    1.1811 C.ar      1 RES1    0.0000
      4 H1         1.6041    6.9677    0.7874 H         1 RES1    0.0000
      5 C2         1.6286    7.2117    3.4379 C.2       1 RES1    0.0000
      6 C3         1.9299    3.7763    0.9736 C.ar      1 RES1    0.0000
      7 C4         3.6416    7.0770    5.0604 C.ar      1 RES1    0.0000
      8 C5         4.5033    6.2819    4.3024 C.ar      1 RES1    0.0000
      9 H2         4.2817    6.0823    3.4215 H         1 RES1    0.0000
     10 C6         6.0467    6.0835    6.1362 C.ar      1 RES1    0.0000
     11 N2         1.8962    8.8194    5.0272 N.2       1 RES1    0.0000
     12 C7         0.8132    9.1012    4.3061 C.2       1 RES1    0.0000
     13 C8         1.7874    5.0058    0.3794 C.ar      1 RES1    0.0000
     14 H3         1.7562    5.0821   -0.5466 H         1 RES1    0.0000
     15 C9         5.6718    5.7883    4.8326 C.ar      1 RES1    0.0000
     16 H4         6.2198    5.2484    4.3094 H         1 RES1    0.0000
     17 N3         2.0297    2.5878    0.1098 N.pl3     1 RES1    0.0000
     18 C10       -0.4950    8.1971    2.4871 C.2       1 RES1    0.0000
     19 H5        -0.6295    7.5387    1.8437 H         1 RES1    0.0000
     20 C11        1.7264    6.0220    2.5709 C.ar      1 RES1    0.0000
     21 C12        1.8679    4.7550    3.1373 C.ar      1 RES1    0.0000
     22 H6         1.8894    4.6676    4.0627 H         1 RES1    0.0000
     23 O2         2.0644    2.7548   -1.1016 O.2       1 RES1    0.0000
     24 O3         2.0541    1.4872    0.6412 O.2       1 RES1    0.0000
     25 C13        1.9766    3.6253    2.3448 C.ar      1 RES1    0.0000
     26 H7         2.0782    2.7835    2.7272 H         1 RES1    0.0000
     27 C14        2.4027    7.6561    4.5017 C.2       1 RES1    0.0000
     28 C15       -0.1089   10.1679    4.4150 C.2       1 RES1    0.0000
     29 H8         0.0201   10.8328    5.0510 H         1 RES1    0.0000
     30 C16        5.2073    6.8840    6.8990 C.ar      1 RES1    0.0000
     31 H9         5.4427    7.1018    7.7722 H         1 RES1    0.0000
     32 C17       -1.3836    9.2054    2.6251 C.2       1 RES1    0.0000
     33 H10       -2.1369    9.2342    2.0801 H         1 RES1    0.0000
     34 C18        4.0240    7.3577    6.3666 C.ar      1 RES1    0.0000
     35 H11        3.4672    7.8798    6.8977 H         1 RES1    0.0000
     36 C19       -1.1797   10.2167    3.5915 C.2       1 RES1    0.0000
     37 H12       -1.7846   10.9199    3.6608 H         1 RES1    0.0000
     38 C20        7.6509    5.8900    7.8963 C.3       1 RES1    0.0000
     39 H13        7.6913    6.8450    7.9924 H         1 RES1    0.0000
     40 H14        8.5189    5.5146    8.0603 H         1 RES1    0.0000
     41 H15        7.0232    5.5322    8.5286 H         1 RES1    0.0000
@<TRIPOS>BOND
     1    1   10 1
     2    2    5 1
     3    3    4 1
     4    5   20 1
     5    6   13 ar
     6    7    8 ar
     7    8    9 1
     8   10   15 ar
     9   11   12 2
    10   12    2 1
    11   13    3 ar
    12   14   13 1
    13   15    8 ar
    14   16   15 1
    15   17    6 1
    16   18    2 1
    17   19   18 1
    18   20    3 ar
    19   21   20 ar
    20   22   21 1
    21   23   17 2
    22   24   17 2
    23   25    6 ar
    24   26   25 1
    25   27    5 2
    26   28   12 1
    27   29   28 1
    28   30   10 ar
    29   31   30 1
    30   32   18 2
    31   33   32 1
    32   34    7 ar
    33   35   34 1
    34   36   28 2
    35   37   36 1
    36   38    1 1
    37   39   38 1
    38   40   38 1
    39   41   38 1
    40    7   27 1
    41   11   27 1
    42   21   25 ar
    43   30   34 ar
    44   32   36 1
@<TRIPOS>SUBSTRUCTURE
     1 RES1 1

@<TRIPOS>CRYSIN
   6.9694    8.0346   15.1900  84.7100  77.4200  87.2100   2 1

