# MOL2 file generated by ConQuest
# Please check atom types

@<TRIPOS>MOLECULE
ETIBIS
    54    56     2
SMALL
NO_CHARGES
****
Generated from CSD

@<TRIPOS>ATOM
      1 O1         8.4016    7.0722    2.2803 O.2       1 RES1    0.0000
      2 O2         9.5215    6.7685    4.1165 O.2       1 RES1    0.0000
      3 N1         7.2346    9.9457    7.3980 N.pl3     1 RES1    0.0000
      4 H1         7.8173    9.7176    8.0165 H         1 RES1    0.0000
      5 N2         8.6207    7.3298    3.4681 N.pl3     1 RES1    0.0000
      6 C1         6.1841   10.8174    7.5797 C.2       1 RES1    0.0000
      7 C2         5.5042   10.9464    6.3842 C.2       1 RES1    0.0000
      8 H2         4.7475   11.4984    6.2282 H         1 RES1    0.0000
      9 C3         6.1413   10.1028    5.4280 C.ar      1 RES1    0.0000
     10 C4         5.8982    9.7796    4.0845 C.ar      1 RES1    0.0000
     11 H3         5.1663   10.1709    3.6222 H         1 RES1    0.0000
     12 C5         6.7335    8.8878    3.4417 C.ar      1 RES1    0.0000
     13 H4         6.5939    8.6693    2.5269 H         1 RES1    0.0000
     14 C6         7.7904    8.3075    4.1581 C.ar      1 RES1    0.0000
     15 C7         8.0703    8.5730    5.4806 C.ar      1 RES1    0.0000
     16 H5         8.7918    8.1582    5.9385 H         1 RES1    0.0000
     17 C8         7.2305    9.4881    6.1030 C.ar      1 RES1    0.0000
     18 C9         5.9030   11.4509    8.9000 C.3       1 RES1    0.0000
     19 H6         5.6564   10.7414    9.5440 H         1 RES1    0.0000
     20 H7         5.1230   12.0525    8.8031 H         1 RES1    0.0000
     21 C10        7.0650   12.2499    9.4760 C.3       1 RES1    0.0000
     22 H8         7.3487   12.9297    8.8153 H         1 RES1    0.0000
     23 H9         7.8296   11.6414    9.6331 H         1 RES1    0.0000
     24 C11        6.7043   12.9458   10.7852 C.3       1 RES1    0.0000
     25 H10        7.4810   13.4442   11.1150 H         1 RES1    0.0000
     26 H11        6.4404   12.2759   11.4503 H         1 RES1    0.0000
     27 H12        5.9598   13.5653   10.6325 H         1 RES1    0.0000
     28 O3        11.9367   13.3042   13.3704 O.2       2 RES2    0.0000
     29 O4        12.0736   11.3346   12.4981 O.2       2 RES2    0.0000
     30 N3        10.1403   12.0246    7.8151 N.pl3     2 RES2    0.0000
     31 H13       10.2818   11.1754    7.6354 H         2 RES2    0.0000
     32 N4        11.7510   12.5258   12.4321 N.pl3     2 RES2    0.0000
     33 C12        9.6044   12.9402    6.9424 C.2       2 RES2    0.0000
     34 C13        9.5345   14.1533    7.5585 C.2       2 RES2    0.0000
     35 H14        9.2009   14.9560    7.1764 H         2 RES2    0.0000
     36 C14       10.0516   14.0017    8.8799 C.ar      2 RES2    0.0000
     37 C15       10.2479   14.8616    9.9707 C.ar      2 RES2    0.0000
     38 H15       10.0047   15.7777    9.9072 H         2 RES2    0.0000
     39 C16       10.7942   14.3710   11.1317 C.ar      2 RES2    0.0000
     40 H16       10.9356   14.9473   11.8726 H         2 RES2    0.0000
     41 C17       11.1422   13.0135   11.2152 C.ar      2 RES2    0.0000
     42 C18       10.9521   12.1197   10.1768 C.ar      2 RES2    0.0000
     43 H17       11.1743   11.2005   10.2604 H         2 RES2    0.0000
     44 C19       10.4206   12.6389    9.0135 C.ar      2 RES2    0.0000
     45 C20        9.2013   12.5654    5.5541 C.3       2 RES2    0.0000
     46 H18        8.7911   13.3528    5.1163 H         2 RES2    0.0000
     47 H19        8.5128   11.8556    5.6020 H         2 RES2    0.0000
     48 C21       10.3665   12.0673    4.6895 C.3       2 RES2    0.0000
     49 H20       11.0795   12.7545    4.6751 H         2 RES2    0.0000
     50 H21       10.7445   11.2456    5.0918 H         2 RES2    0.0000
     51 C22        9.9237   11.7704    3.2589 C.3       2 RES2    0.0000
     52 H22       10.6911   11.4574    2.7375 H         2 RES2    0.0000
     53 H23        9.5634   12.5868    2.8523 H         2 RES2    0.0000
     54 H24        9.2308   11.0778    3.2690 H         2 RES2    0.0000
@<TRIPOS>BOND
     1    1    5 2
     2    2    5 2
     3    3    4 1
     4    5   14 1
     5    6    3 1
     6    7    6 2
     7    8    7 1
     8    9    7 1
     9   10    9 ar
    10   11   10 1
    11   12   10 ar
    12   13   12 1
    13   14   12 ar
    14   15   14 ar
    15   16   15 1
    16   17    3 1
    17   18    6 1
    18   19   18 1
    19   20   18 1
    20   21   18 1
    21   22   21 1
    22   23   21 1
    23   24   21 1
    24   25   24 1
    25   26   24 1
    26   27   24 1
    27   28   32 2
    28   29   32 2
    29   30   31 1
    30   32   41 1
    31   33   30 1
    32   34   33 2
    33   35   34 1
    34   36   34 1
    35   37   36 ar
    36   38   37 1
    37   39   37 ar
    38   40   39 1
    39   41   39 ar
    40   42   41 ar
    41   43   42 1
    42   44   30 1
    43   45   33 1
    44   46   45 1
    45   47   45 1
    46   48   45 1
    47   49   48 1
    48   50   48 1
    49   51   48 1
    50   52   51 1
    51   53   51 1
    52   54   51 1
    53    9   17 ar
    54   15   17 ar
    55   36   44 ar
    56   42   44 ar
@<TRIPOS>SUBSTRUCTURE
     1 RES1 1
     2 RES2 28

@<TRIPOS>CRYSIN
   8.2290   11.8280   12.0880  67.4030  86.9400  74.2560   2 1

