# MOL2 file generated by ConQuest
# Please check atom types

@<TRIPOS>MOLECULE
ETICEP
    31    32     1
SMALL
NO_CHARGES
****
Generated from CSD

@<TRIPOS>ATOM
      1 N1         6.0233    9.6700   15.7577 N.pl3     1 RES1    0.0000
      2 C1         5.1607    8.5769   15.2802 C.ar      1 RES1    0.0000
      3 C2         2.6144    5.4869   13.7806 C.3       1 RES1    0.0000
      4 H1         3.0940    4.9926   13.0835 H         1 RES1    0.0000
      5 C3         2.1566    4.5012   14.8351 C.2       1 RES1    0.0000
      6 O1         4.2067    3.3690   14.6475 O.2       1 RES1    0.0000
      7 C4         4.8418    6.6763   13.9045 C.ar      1 RES1    0.0000
      8 H2         5.1669    6.0695   13.2793 H         1 RES1    0.0000
      9 C5         3.5550    6.5507   14.3551 C.ar      1 RES1    0.0000
     10 O2         1.4673    6.0742   13.2026 O.3       1 RES1    0.0000
     11 H3         1.6925    6.7037   12.7271 H         1 RES1    0.0000
     12 O3         7.1778    9.7107   15.3547 O.2       1 RES1    0.0000
     13 C6         3.8682    8.4807   15.7568 C.ar      1 RES1    0.0000
     14 H4         3.5414    9.0895   16.3795 H         1 RES1    0.0000
     15 O4         5.5561   10.4737   16.5447 O.2       1 RES1    0.0000
     16 C7         3.1223    3.4405   15.1890 C.2       1 RES1    0.0000
     17 C8         3.0799    7.4615   15.2866 C.ar      1 RES1    0.0000
     18 H5         2.2079    7.3794   15.5996 H         1 RES1    0.0000
     19 C9         5.6752    7.6955   14.3647 C.ar      1 RES1    0.0000
     20 H6         6.5506    7.7745   14.0610 H         1 RES1    0.0000
     21 C10        0.9514    4.4901   15.3558 C.2       1 RES1    0.0000
     22 H7         0.3507    5.1354   15.0597 H         1 RES1    0.0000
     23 C11        2.6463    2.3828   16.1565 C.3       1 RES1    0.0000
     24 H8         2.3117    1.6260   15.6508 H         1 RES1    0.0000
     25 H9         3.4038    2.0758   16.6795 H         1 RES1    0.0000
     26 C12        1.5669    2.8499   17.0991 C.3       1 RES1    0.0000
     27 H10        1.2122    2.0870   17.5829 H         1 RES1    0.0000
     28 H11        1.9502    3.4618   17.7470 H         1 RES1    0.0000
     29 C13        0.4710    3.5236   16.3844 C.3       1 RES1    0.0000
     30 H12       -0.0817    3.9957   17.0271 H         1 RES1    0.0000
     31 H13       -0.0830    2.8539   15.9543 H         1 RES1    0.0000
@<TRIPOS>BOND
     1    1    2 1
     2    2   13 ar
     3    3    4 1
     4    5    3 1
     5    6   16 2
     6    7    8 1
     7    9    3 1
     8   10    3 1
     9   11   10 1
    10   12    1 2
    11   13   14 1
    12   15    1 2
    13   16    5 1
    14   17    9 ar
    15   18   17 1
    16   19    2 ar
    17   20   19 1
    18   21    5 2
    19   22   21 1
    20   23   16 1
    21   24   23 1
    22   25   23 1
    23   26   23 1
    24   27   26 1
    25   28   26 1
    26   29   21 1
    27   30   29 1
    28   31   29 1
    29    7    9 ar
    30    7   19 ar
    31   13   17 ar
    32   26   29 1
@<TRIPOS>SUBSTRUCTURE
     1 RES1 1

@<TRIPOS>CRYSIN
   6.7202   10.1310   17.8130  90.0000  97.8840  90.0000 231 1

