# MOL2 file generated by ConQuest
# Please check atom types

@<TRIPOS>MOLECULE
ETICIT
    52    54     2
SMALL
NO_CHARGES
****
Generated from CSD

@<TRIPOS>ATOM
      1 C1        10.7910    1.9283   10.6374 C.ar      1 RES1    0.0000
      2 C2        10.8872    2.6370   11.8412 C.ar      1 RES1    0.0000
      3 C3        11.9797    3.4905   12.0261 C.ar      1 RES1    0.0000
      4 C4        12.9444    3.6461   11.0468 C.ar      1 RES1    0.0000
      5 C5        12.8353    2.9527    9.8559 C.ar      1 RES1    0.0000
      6 C6        11.7830    2.1032    9.6543 C.ar      1 RES1    0.0000
      7 C7         9.7302    0.9268   10.4408 C.2       1 RES1    0.0000
      8 N1         9.4301    0.4834    9.2842 N.2       1 RES1    0.0000
      9 O1         8.4275   -0.4992    9.3710 O.3       1 RES1    0.0000
     10 C8         9.8751    2.5372   12.9044 C.ar      1 RES1    0.0000
     11 C9         8.4999    2.6968   12.6330 C.ar      1 RES1    0.0000
     12 C10        7.5653    2.6873   13.6494 C.ar      1 RES1    0.0000
     13 C11        7.9486    2.4850   14.9721 C.ar      1 RES1    0.0000
     14 C12        9.3110    2.3128   15.2645 C.ar      1 RES1    0.0000
     15 C13       10.2441    2.3397   14.2676 C.ar      1 RES1    0.0000
     16 C14        7.1763    4.1619    5.5357 C.ar      2 RES2    0.0000
     17 C15        7.0686    4.8481    4.3183 C.ar      2 RES2    0.0000
     18 C16        5.9819    5.7084    4.1234 C.ar      2 RES2    0.0000
     19 C17        5.0345    5.8936    5.1036 C.ar      2 RES2    0.0000
     20 C18        5.1407    5.2218    6.3014 C.ar      2 RES2    0.0000
     21 C19        6.2131    4.3593    6.5222 C.ar      2 RES2    0.0000
     22 C20        8.2329    3.1645    5.7284 C.2       2 RES2    0.0000
     23 N2         8.5329    2.7220    6.8822 N.2       2 RES2    0.0000
     24 O2         9.5468    1.7448    6.7995 O.3       2 RES2    0.0000
     25 C21        8.1022    4.7159    3.2350 C.ar      2 RES2    0.0000
     26 C22        9.4502    4.9241    3.5076 C.ar      2 RES2    0.0000
     27 C23       10.3805    4.8441    2.4891 C.ar      2 RES2    0.0000
     28 C24        9.9771    4.5671    1.1950 C.ar      2 RES2    0.0000
     29 C25        8.6679    4.3656    0.9246 C.ar      2 RES2    0.0000
     30 C26        7.7161    4.4479    1.9623 C.ar      2 RES2    0.0000
     31 H1        12.0615    3.9730   12.8399 H         1 RES1    0.0000
     32 H2        13.6808    4.2284   11.1921 H         1 RES1    0.0000
     33 H3        13.4899    3.0664    9.1763 H         1 RES1    0.0000
     34 H4        11.7213    1.6225    8.8367 H         1 RES1    0.0000
     35 H5         9.2564    0.6021   11.1984 H         1 RES1    0.0000
     36 H6         8.3678   -0.9039    8.6386 H         1 RES1    0.0000
     37 H7         8.2128    2.8124   11.7361 H         1 RES1    0.0000
     38 H8         6.6480    2.8205   13.4437 H         1 RES1    0.0000
     39 H9         7.2998    2.4639   15.6670 H         1 RES1    0.0000
     40 H10        9.5866    2.1760   16.1639 H         1 RES1    0.0000
     41 H11       11.1614    2.2237   14.4878 H         1 RES1    0.0000
     42 H12        5.8972    6.1733    3.2988 H         2 RES2    0.0000
     43 H13        4.3052    6.4850    4.9529 H         2 RES2    0.0000
     44 H14        4.4847    5.3464    6.9782 H         2 RES2    0.0000
     45 H15        6.2863    3.9015    7.3492 H         2 RES2    0.0000
     46 H16        8.7066    2.8402    4.9718 H         2 RES2    0.0000
     47 H17        9.5565    1.2911    7.5065 H         2 RES2    0.0000
     48 H18        9.7316    5.1211    4.3932 H         2 RES2    0.0000
     49 H19       11.3021    4.9803    2.6793 H         2 RES2    0.0000
     50 H20       10.6202    4.5185    0.4969 H         2 RES2    0.0000
     51 H21        8.3894    4.1682    0.0377 H         2 RES2    0.0000
     52 H22        6.7945    4.3152    1.7673 H         2 RES2    0.0000
@<TRIPOS>BOND
     1    1    2 ar
     2    2    3 ar
     3    3    4 ar
     4    4    5 ar
     5    5    6 ar
     6    6    1 ar
     7    7    1 1
     8    8    7 2
     9    9    8 1
    10   10    2 1
    11   11   10 ar
    12   12   11 ar
    13   13   12 ar
    14   14   13 ar
    15   15   10 ar
    16   16   17 ar
    17   17   18 ar
    18   18   19 ar
    19   19   20 ar
    20   20   21 ar
    21   21   16 ar
    22   22   16 1
    23   23   22 2
    24   24   23 1
    25   25   17 1
    26   26   25 ar
    27   27   26 ar
    28   28   27 ar
    29   29   28 ar
    30   30   25 ar
    31   31    3 1
    32   32    4 1
    33   33    5 1
    34   34    6 1
    35   35    7 1
    36   36    9 1
    37   37   11 1
    38   38   12 1
    39   39   13 1
    40   40   14 1
    41   41   15 1
    42   42   18 1
    43   43   19 1
    44   44   20 1
    45   45   21 1
    46   46   22 1
    47   47   24 1
    48   48   26 1
    49   49   27 1
    50   50   28 1
    51   51   29 1
    52   52   30 1
    53   14   15 ar
    54   29   30 ar
@<TRIPOS>SUBSTRUCTURE
     1 RES1 1
     2 RES2 16

@<TRIPOS>CRYSIN
  14.3555    4.4969   31.4473  90.0000  90.0000  90.0000  29 1

