# MOL2 file generated by ConQuest
# Please check atom types

@<TRIPOS>MOLECULE
ETIRAC
    56    57     1
SMALL
NO_CHARGES
****
Generated from CSD

@<TRIPOS>ATOM
      1 O1         6.5561    0.3087    4.6824 O.3       1 RES1    0.0000
      2 O2         4.8751    0.1548    3.0783 O.3       1 RES1    0.0000
      3 O3         2.7618    3.5316    0.0123 O.2       1 RES1    0.0000
      4 O4         2.2621    1.6110   -0.9808 O.3       1 RES1    0.0000
      5 O5         5.8206    5.4722    3.0988 O.2       1 RES1    0.0000
      6 O6         5.6609    3.7228    4.2881 O.2       1 RES1    0.0000
      7 N1         1.3414    1.9361    2.1157 N.3       1 RES1    0.0000
      8 N2         5.7769    4.2674    3.2144 N.pl3     1 RES1    0.0000
      9 C1         7.6441    0.5309    3.7997 C.3       1 RES1    0.0000
     10 H1         8.0274   -0.3306    3.5291 H         1 RES1    0.0000
     11 H2         8.3295    1.0637    4.2538 H         1 RES1    0.0000
     12 H3         7.3291    1.0108    3.0068 H         1 RES1    0.0000
     13 C2         5.5510   -0.4717    4.1367 C.3       1 RES1    0.0000
     14 H4         4.8980   -0.6967    4.8461 H         1 RES1    0.0000
     15 H5         5.9448   -1.3187    3.8091 H         1 RES1    0.0000
     16 C3         4.0176    1.2039    3.5083 C.3       1 RES1    0.0000
     17 H6         4.4531    1.7084    4.2406 H         1 RES1    0.0000
     18 H7         3.1758    0.8196    3.8602 H         1 RES1    0.0000
     19 C4         3.6989    2.1574    2.3468 C.3       1 RES1    0.0000
     20 C5         2.5766    1.5563    1.4044 C.3       1 RES1    0.0000
     21 C6         0.0885    1.7576    1.3817 C.3       1 RES1    0.0000
     22 H8         0.1019    0.8815    0.9215 H         1 RES1    0.0000
     23 H9         0.0117    2.4634    0.6907 H         1 RES1    0.0000
     24 C7        -1.1016    1.8204    2.2815 C.2       1 RES1    0.0000
     25 H10       -1.1281    1.2349    3.0295 H         1 RES1    0.0000
     26 C8        -2.0954    2.6246    2.1036 C.2       1 RES1    0.0000
     27 H11       -2.0963    3.2229    1.3643 H         1 RES1    0.0000
     28 H12       -2.8262    2.6191    2.7116 H         1 RES1    0.0000
     29 C9         2.9872    3.4187    2.9391 C.3       1 RES1    0.0000
     30 H13        3.1433    3.4724    3.9151 H         1 RES1    0.0000
     31 H14        3.3435    4.2410    2.5186 H         1 RES1    0.0000
     32 C10        1.5062    3.2830    2.6530 C.3       1 RES1    0.0000
     33 H15        0.9787    3.3968    3.4818 H         1 RES1    0.0000
     34 H16        1.2154    3.9614    1.9926 H         1 RES1    0.0000
     35 C11        2.5883    0.0118    1.1906 C.3       1 RES1    0.0000
     36 H17        2.1354   -0.1830    0.3330 H         1 RES1    0.0000
     37 H18        3.5298   -0.2787    1.0994 H         1 RES1    0.0000
     38 C12        1.9399   -0.8296    2.2660 C.2       1 RES1    0.0000
     39 H19        1.1363   -0.4936    2.6435 H         1 RES1    0.0000
     40 C13        2.3593   -1.9352    2.7116 C.2       1 RES1    0.0000
     41 H20        2.6741   -2.7657    3.0484 H         1 RES1    0.0000
     42 C14        2.5832    2.3441    0.0744 C.2       1 RES1    0.0000
     43 C15        2.1291    2.3386   -2.2325 C.3       1 RES1    0.0000
     44 H21        1.4454    3.0344   -2.1345 H         1 RES1    0.0000
     45 H22        1.8661    1.7184   -2.9444 H         1 RES1    0.0000
     46 H23        2.9878    2.7530   -2.4618 H         1 RES1    0.0000
     47 C16        5.0184    2.4725    1.6183 C.ar      1 RES1    0.0000
     48 C17        5.4008    1.7540    0.4810 C.ar      1 RES1    0.0000
     49 H24        4.8217    1.0700    0.1665 H         1 RES1    0.0000
     50 C18        6.5741    1.9880   -0.2091 C.ar      1 RES1    0.0000
     51 H25        6.7881    1.4607   -0.9688 H         1 RES1    0.0000
     52 C19        7.4371    2.9834    0.2008 C.ar      1 RES1    0.0000
     53 H26        8.2381    3.1555   -0.2782 H         1 RES1    0.0000
     54 C20        7.1171    3.7201    1.3134 C.ar      1 RES1    0.0000
     55 H27        7.6961    4.4122    1.6103 H         1 RES1    0.0000
     56 C21        5.9428    3.4505    2.0032 C.ar      1 RES1    0.0000
@<TRIPOS>BOND
     1    1    9 1
     2    2   13 1
     3    3   42 2
     4    4   42 1
     5    5    8 2
     6    6    8 2
     7    7   20 1
     8    8   56 1
     9    9   10 1
    10   11    9 1
    11   12    9 1
    12   13    1 1
    13   14   13 1
    14   15   13 1
    15   16    2 1
    16   17   16 1
    17   18   16 1
    18   19   16 1
    19   20   19 1
    20   21    7 1
    21   22   21 1
    22   23   21 1
    23   24   21 1
    24   25   24 1
    25   26   24 2
    26   27   26 1
    27   28   26 1
    28   29   19 1
    29   30   29 1
    30   31   29 1
    31   32    7 1
    32   33   32 1
    33   34   32 1
    34   35   20 1
    35   36   35 1
    36   37   35 1
    37   38   35 1
    38   39   38 1
    39   40   38 2
    40   41   40 1
    41   42   20 1
    42   43    4 1
    43   44   43 1
    44   45   43 1
    45   46   43 1
    46   47   19 1
    47   48   47 ar
    48   49   48 1
    49   50   48 ar
    50   51   50 1
    51   52   50 ar
    52   53   52 1
    53   54   52 ar
    54   55   54 1
    55   56   47 ar
    56   29   32 1
    57   54   56 ar
@<TRIPOS>SUBSTRUCTURE
     1 RES1 1

@<TRIPOS>CRYSIN
  12.5404    9.1067   19.6090  90.0000 105.2040  90.0000 231 1

