# MOL2 file generated by ConQuest
# Please check atom types

@<TRIPOS>MOLECULE
ETNIBZ
    18    18     1
SMALL
NO_CHARGES
****
Generated from CSD

@<TRIPOS>ATOM
      1 C1         1.5388    1.7535    1.9312 C.2       1 RES1    0.0000
      2 C2         2.2732    2.4647    2.8633 C.2       1 RES1    0.0000
      3 C3         1.6080    3.3829    3.6565 C.2       1 RES1    0.0000
      4 C4         0.2627    3.6343    3.5464 C.2       1 RES1    0.0000
      5 C5        -0.4297    2.9006    2.6063 C.2       1 RES1    0.0000
      6 C6         0.1762    1.9652    1.8003 C.2       1 RES1    0.0000
      7 C7         2.1824    0.7389    1.0247 C.2       1 RES1    0.0000
      8 H1        -0.1762    4.2644    4.1656 H         1 RES1    0.0000
      9 H2        -0.3008    1.5550    1.2130 H         1 RES1    0.0000
     10 H3         3.1921    2.3278    3.0165 H         1 RES1    0.0000
     11 N1         2.3969    4.1633    4.6317 N.2       1 RES1    0.0000
     12 N2        -1.8727    3.1267    2.4659 N.2       1 RES1    0.0000
     13 O1        -2.3519    4.0927    3.0388 O.2       1 RES1    0.0000
     14 O2        -2.5160    2.3402    1.8003 O.2       1 RES1    0.0000
     15 O3         1.5859    0.1283    0.2011 O.co2     1 RES1    0.0000
     16 O4         3.4486    0.5924    1.3008 O.co2     1 RES1    0.0000
     17 O5         3.5795    3.9705    4.6939 O.2       1 RES1    0.0000
     18 O6         1.8168    4.9765    5.3116 O.2       1 RES1    0.0000
@<TRIPOS>BOND
     1    1    2 1
     2    2    3 1
     3    3    4 1
     4    4    5 1
     5    5    6 1
     6    6    1 1
     7    7    1 1
     8    8    4 1
     9    9    6 1
    10   10    2 1
    11   11    3 1
    12   12    5 1
    13   13   12 1
    14   14   12 1
    15   15    7 1
    16   16    7 1
    17   17   11 1
    18   18   11 1
@<TRIPOS>SUBSTRUCTURE
     1 RES1 1

@<TRIPOS>CRYSIN
  13.8560    4.7700   18.3540  90.0000 119.5900  90.0000  14 1

