# MOL2 file generated by ConQuest
# Please check atom types

@<TRIPOS>MOLECULE
ETOBUK
    38    37     2
SMALL
USER_CHARGES
****
Generated from CSD

@<TRIPOS>ATOM
      1 O1        -1.4663   10.3991    6.5392 O.3       1 RES1    0.0000
      2 O2        -0.8986    8.2374    6.9645 O.2       1 RES1   -1.0000
      3 O3         3.3888   11.6235    3.5218 O.3       1 RES1    0.0000
      4 O4         3.9684   11.3051    1.4215 O.2       1 RES1    0.0000
      5 O5         1.9004   12.4075    7.9308 O.3       1 RES1    0.0000
      6 O6         2.8776   14.3184    8.6321 O.2       1 RES1    0.0000
      7 N1        -0.8714   11.5516    6.0650 N.2       1 RES1    0.0000
      8 N2         0.3412   11.1783    5.7679 N.pl3     1 RES1    1.0000
      9 C1         0.6064    9.8953    6.0021 C.2       1 RES1    0.0000
     10 H1         1.4279    9.4491    5.8352 H         1 RES1    0.0000
     11 C2        -0.5541    9.3276    6.5414 C.2       1 RES1    0.0000
     12 C3         1.2419   12.2254    5.2353 C.3       1 RES1    0.0000
     13 H2         0.9178   13.1151    5.5228 H         1 RES1    0.0000
     14 H3         1.2264   12.1996    4.2460 H         1 RES1    0.0000
     15 C4         4.3610   11.3846    2.5653 C.2       1 RES1    0.0000
     16 C5         5.7206   11.2545    3.0149 C.2       1 RES1    0.0000
     17 H4         6.4028   11.1218    2.3682 H         1 RES1    0.0000
     18 C6         6.0663   11.3139    4.3168 C.2       1 RES1    0.0000
     19 C7         5.2692   11.6825    6.6761 C.ar      1 RES1    0.0000
     20 H5         6.1512   11.5598    7.0061 H         1 RES1    0.0000
     21 C8         4.2509   11.9664    7.5585 C.ar      1 RES1    0.0000
     22 H6         4.4265   12.0347    8.4893 H         1 RES1    0.0000
     23 C9         2.9714   12.1510    7.0727 C.ar      1 RES1    0.0000
     24 C10        2.6534   12.0281    5.7185 C.ar      1 RES1    0.0000
     25 C11        3.7076   11.7268    4.8586 C.ar      1 RES1    0.0000
     26 C12        5.0286   11.5702    5.3003 C.ar      1 RES1    0.0000
     27 C13        1.9829   13.5252    8.7296 C.2       1 RES1    0.0000
     28 C14        0.8493   13.5939    9.6703 C.3       1 RES1    0.0000
     29 H7         0.5030   12.6916    9.8309 H         1 RES1    0.0000
     30 H8         0.1411   14.1533    9.2875 H         1 RES1    0.0000
     31 H9         1.1511   13.9831   10.5178 H         1 RES1    0.0000
     32 H10        0.6938   14.5266    9.9268 Du        2 SUP2    0.0000
     33 H11        1.0558   13.0650   10.4694 Du        2 SUP2    0.0000
     34 H12        0.0456   13.2351    9.2400 Du        2 SUP2    0.0000
     35 C15        7.4898   11.1274    4.7512 C.3       1 RES1    0.0000
     36 H13        8.0617   11.0282    3.9620 H         1 RES1    0.0000
     37 H14        7.5588   10.3237    5.3073 H         1 RES1    0.0000
     38 H15        7.7790   11.9081    5.2680 H         1 RES1    0.0000
@<TRIPOS>BOND
     1    1    7 1
     2    2   11 1
     3    3   15 1
     4    4   15 2
     5    5   23 1
     6    6   27 2
     7    7    8 2
     8    8    9 1
     9    9   10 1
    10   11    1 1
    11   12    8 1
    12   13   12 1
    13   14   12 1
    14   15   16 1
    15   16   17 1
    16   18   16 2
    17   19   20 1
    18   21   19 ar
    19   22   21 1
    20   23   21 ar
    21   24   12 1
    22   25    3 1
    23   26   18 1
    24   27    5 1
    25   28   27 1
    26   29   28 1
    27   30   28 1
    28   31   28 1
    29   35   18 1
    30   36   35 1
    31   37   35 1
    32   38   35 1
    33    9   11 2
    34   19   26 ar
    35   23   24 ar
    36   24   25 ar
    37   25   26 ar
@<TRIPOS>SUBSTRUCTURE
     1 RES1 1
     2 SUP2 32

@<TRIPOS>CRYSIN
  11.5067   13.1916    9.1773  90.0000  95.6210  90.0000  14 1

