# MOL2 file generated by ConQuest
# Please check atom types

@<TRIPOS>MOLECULE
ETOGOJ
    33    34     1
SMALL
NO_CHARGES
****
Generated from CSD

@<TRIPOS>ATOM
      1 O1        -1.6314    4.8964   10.4765 O.2       1 RES1    0.0000
      2 O2         7.3648    2.0121   19.9914 O.2       1 RES1    0.0000
      3 O3         5.4384    2.8685   20.3810 O.2       1 RES1    0.0000
      4 N1         6.2566    2.3683   19.6210 N.pl3     1 RES1    0.0000
      5 N2         4.9695    1.7027   14.1998 N.2       1 RES1    0.0000
      6 N3         3.8941    2.2539   13.8202 N.2       1 RES1    0.0000
      7 N4         3.6793    2.0711   12.5283 N.3       1 RES1    0.0000
      8 C1        -0.7758    4.2876    9.8569 C.2       1 RES1    0.0000
      9 C2        -0.8865    4.1854    8.3851 C.3       1 RES1    0.0000
     10 H1        -1.7326    4.5402    8.1032 H         1 RES1    0.0000
     11 H2        -0.8248    3.2636    8.1243 H         1 RES1    0.0000
     12 H3        -0.1771    4.6834    7.9741 H         1 RES1    0.0000
     13 C3         5.2117    1.9034   15.5807 C.ar      1 RES1    0.0000
     14 C4         4.4138    2.6663   16.4248 C.ar      1 RES1    0.0000
     15 H4         3.6488    3.0808   16.0957 H         1 RES1    0.0000
     16 C5         4.7572    2.8052   17.7459 C.ar      1 RES1    0.0000
     17 H5         4.2248    3.3089   18.3191 H         1 RES1    0.0000
     18 C6         5.8962    2.1927   18.2145 C.ar      1 RES1    0.0000
     19 C7         6.6976    1.4306   17.4042 C.ar      1 RES1    0.0000
     20 H6         7.4600    1.0190   17.7422 H         1 RES1    0.0000
     21 C8         6.3503    1.2867   16.0791 C.ar      1 RES1    0.0000
     22 H7         6.8816    0.7736   15.5162 H         1 RES1    0.0000
     23 C9         2.5583    2.6094   11.9022 C.ar      1 RES1    0.0000
     24 C10        2.3825    2.3568   10.5552 C.ar      1 RES1    0.0000
     25 H8         2.9932    1.8279   10.0947 H         1 RES1    0.0000
     26 C11        1.2996    2.8901    9.8993 C.ar      1 RES1    0.0000
     27 H9         1.1892    2.7202    8.9910 H         1 RES1    0.0000
     28 C12        0.3664    3.6781   10.5605 C.ar      1 RES1    0.0000
     29 C13        0.5492    3.9076   11.9219 C.ar      1 RES1    0.0000
     30 H10       -0.0742    4.4186   12.3866 H         1 RES1    0.0000
     31 C14        1.6314    3.3938   12.5897 C.ar      1 RES1    0.0000
     32 H11        1.7462    3.5673   13.4957 H         1 RES1    0.0000
     33 H12        4.2452    1.6624   12.0679 H         1 RES1    0.0000
@<TRIPOS>BOND
     1    1    8 2
     2    2    4 2
     3    3    4 2
     4    4   18 1
     5    5    6 2
     6    6    7 1
     7    7   23 1
     8    8    9 1
     9    9   10 1
    10   11    9 1
    11   12    9 1
    12   13    5 1
    13   14   13 ar
    14   15   14 1
    15   16   14 ar
    16   17   16 1
    17   18   16 ar
    18   19   18 ar
    19   20   19 1
    20   21   13 ar
    21   22   21 1
    22   23   24 ar
    23   24   25 1
    24   26   24 ar
    25   27   26 1
    26   28    8 1
    27   29   28 ar
    28   30   29 1
    29   31   23 ar
    30   32   31 1
    31   33    7 1
    32   19   21 ar
    33   26   28 ar
    34   29   31 ar
@<TRIPOS>SUBSTRUCTURE
     1 RES1 1

@<TRIPOS>CRYSIN
  14.3570    7.1964   26.7790  90.0000 100.3500  90.0000  15 1

