# MOL2 file generated by ConQuest
# Please check atom types

@<TRIPOS>MOLECULE
ETOMOP
    84    87     3
SMALL
NO_CHARGES
****
Generated from CSD

@<TRIPOS>ATOM
      1 C1         0.1521    2.2730   -1.2033 C.ar      1 RES1    0.0000
      2 C2         1.0098    1.2433   -0.8967 C.ar      1 RES1    0.0000
      3 C3         1.5090    1.1420    0.3934 C.ar      1 RES1    0.0000
      4 C4         1.1250    2.0840    1.3319 C.ar      1 RES1    0.0000
      5 C5         0.2503    3.1004    1.0237 C.ar      1 RES1    0.0000
      6 C6        -0.2453    3.2023   -0.2617 C.ar      1 RES1    0.0000
      7 N1        -0.3711    2.3966   -2.5755 N.pl3     1 RES1    0.0000
      8 O1        -0.1454    1.4779   -3.3606 O.2       1 RES1    0.0000
      9 O2        -1.0048    3.4031   -2.8714 O.2       1 RES1    0.0000
     10 O3         1.5199    2.0173    2.6656 O.3       1 RES1    0.0000
     11 C7         2.8280    1.6945    2.9874 C.ar      1 RES1    0.0000
     12 C8         3.0616    1.0897    4.2279 C.ar      1 RES1    0.0000
     13 C9         4.3849    0.7785    4.5640 C.ar      1 RES1    0.0000
     14 C10        5.4354    1.0851    3.7107 C.ar      1 RES1    0.0000
     15 C11        5.1600    1.6840    2.5104 C.ar      1 RES1    0.0000
     16 C12        3.8680    1.9920    2.1325 C.ar      1 RES1    0.0000
     17 C13        2.0282    0.7184    5.2098 C.2       1 RES1    0.0000
     18 O4         2.1910   -0.2324    5.9665 O.2       1 RES1    0.0000
     19 O5         0.9542    1.4754    5.2318 O.3       1 RES1    0.0000
     20 C14        2.2923    0.1218   14.5654 C.ar      2 RES2    0.0000
     21 C15        1.3909    1.1543   14.4415 C.ar      2 RES2    0.0000
     22 C16        0.7876    1.3734   13.2118 C.ar      2 RES2    0.0000
     23 C17        1.0975    0.5345   12.1525 C.ar      2 RES2    0.0000
     24 C18        2.0186   -0.4764   12.2904 C.ar      2 RES2    0.0000
     25 C19        2.6200   -0.7038   13.5076 C.ar      2 RES2    0.0000
     26 N2         2.9056   -0.1133   15.8694 N.pl3     2 RES2    0.0000
     27 O6         2.7728    0.7451   16.7493 O.2       2 RES2    0.0000
     28 O7         3.5356   -1.1672   16.0400 O.2       2 RES2    0.0000
     29 O8         0.5609    0.6925   10.8862 O.3       2 RES2    0.0000
     30 C20       -0.6160    1.4121   10.7355 C.ar      2 RES2    0.0000
     31 C21       -0.6807    2.4347    9.7892 C.ar      2 RES2    0.0000
     32 C22       -1.8979    3.0958    9.6266 C.ar      2 RES2    0.0000
     33 C23       -3.0210    2.7390   10.3700 C.ar      2 RES2    0.0000
     34 C24       -2.9167    1.7153   11.2822 C.ar      2 RES2    0.0000
     35 C25       -1.7289    1.0385   11.4727 C.ar      2 RES2    0.0000
     36 C26        0.4462    2.8827    8.9266 C.2       2 RES2    0.0000
     37 O9         0.3423    3.9316    8.2643 O.2       2 RES2    0.0000
     38 O10        1.4981    2.1240    8.8842 O.3       2 RES2    0.0000
     39 C27        0.9767   -4.0527   12.4917 C.ar      3 RES3    0.0000
     40 C28       -0.0060   -3.0941   12.5165 C.ar      3 RES3    0.0000
     41 C29       -0.6445   -2.7361   11.3379 C.ar      3 RES3    0.0000
     42 C30       -0.2511   -3.3594   10.1656 C.ar      3 RES3    0.0000
     43 C31        0.7552   -4.2914   10.1408 C.ar      3 RES3    0.0000
     44 C32        1.3829   -4.6521   11.3162 C.ar      3 RES3    0.0000
     45 N3         1.6103   -4.4372   13.7461 N.pl3     3 RES3    0.0000
     46 O11        1.5102   -3.6569   14.7045 O.2       3 RES3    0.0000
     47 O12        2.2073   -5.5117   13.7969 O.2       3 RES3    0.0000
     48 O13       -0.8097   -3.0652    8.9444 O.3       3 RES3    0.0000
     49 C33       -1.9466   -2.2534    8.9096 C.ar      3 RES3    0.0000
     50 C34       -1.9101   -1.0045    8.2963 C.ar      3 RES3    0.0000
     51 C35       -3.0814   -0.2430    8.2870 C.ar      3 RES3    0.0000
     52 C36       -4.2511   -0.7341    8.8291 C.ar      3 RES3    0.0000
     53 C37       -4.2893   -2.0088    9.3401 C.ar      3 RES3    0.0000
     54 C38       -3.1352   -2.7700    9.4036 C.ar      3 RES3    0.0000
     55 C39       -0.7323   -0.4288    7.5824 C.2       3 RES3    0.0000
     56 O14       -0.8531    0.6099    6.9270 O.2       3 RES3    0.0000
     57 O15        0.3741   -1.1023    7.6683 O.3       3 RES3    0.0000
     58 H1         1.2579    0.6100   -1.5595 H         1 RES1    0.0000
     59 H2         2.1031    0.4397    0.6272 H         1 RES1    0.0000
     60 H3        -0.0101    3.7253    1.6896 H         1 RES1    0.0000
     61 H4        -0.8485    3.8983   -0.4940 H         1 RES1    0.0000
     62 H5         4.5665    0.3497    5.3910 H         1 RES1    0.0000
     63 H6         6.3310    0.8825    3.9538 H         1 RES1    0.0000
     64 H7         5.8769    1.8928    1.9219 H         1 RES1    0.0000
     65 H8         3.6982    2.4027    1.2932 H         1 RES1    0.0000
     66 H9         0.4045    1.1649    5.7859 H         1 RES1    0.0000
     67 H10        1.1860    1.7086   15.1849 H         2 RES2    0.0000
     68 H11        0.1720    2.0888   13.0957 H         2 RES2    0.0000
     69 H12        2.2420   -1.0188   11.5424 H         2 RES2    0.0000
     70 H13        3.2448   -1.4101   13.6160 H         2 RES2    0.0000
     71 H14       -1.9619    3.8039    8.9963 H         2 RES2    0.0000
     72 H15       -3.8453    3.1962   10.2492 H         2 RES2    0.0000
     73 H16       -3.6792    1.4680   11.7932 H         2 RES2    0.0000
     74 H17       -1.6749    0.3277   12.0999 H         2 RES2    0.0000
     75 H18        2.0568    2.4510    8.3490 H         2 RES2    0.0000
     76 H19       -0.2471   -2.6782   13.3357 H         3 RES3    0.0000
     77 H20       -1.3328   -2.0832   11.3364 H         3 RES3    0.0000
     78 H21        1.0175   -4.6877    9.3184 H         3 RES3    0.0000
     79 H22        2.0801   -5.2974   11.3162 H         3 RES3    0.0000
     80 H23       -3.0711    0.6256    7.9014 H         3 RES3    0.0000
     81 H24       -5.0304   -0.1911    8.8476 H         3 RES3    0.0000
     82 H25       -5.1113   -2.3702    9.6514 H         3 RES3    0.0000
     83 H26       -3.1565   -3.6414    9.7830 H         3 RES3    0.0000
     84 H27        0.9265   -0.8032    7.1116 H         3 RES3    0.0000
@<TRIPOS>BOND
     1    1    2 ar
     2    2    3 ar
     3    3    4 ar
     4    4    5 ar
     5    5    6 ar
     6    6    1 ar
     7    7    1 1
     8    8    7 2
     9    9    7 2
    10   10    4 1
    11   11   10 1
    12   12   11 ar
    13   13   12 ar
    14   14   13 ar
    15   15   14 ar
    16   16   11 ar
    17   17   12 1
    18   18   17 2
    19   19   17 1
    20   20   21 ar
    21   21   22 ar
    22   22   23 ar
    23   23   24 ar
    24   24   25 ar
    25   25   20 ar
    26   26   20 1
    27   27   26 2
    28   28   26 2
    29   29   23 1
    30   30   29 1
    31   31   30 ar
    32   32   31 ar
    33   33   32 ar
    34   34   33 ar
    35   35   30 ar
    36   36   31 1
    37   37   36 2
    38   38   36 1
    39   39   40 ar
    40   40   41 ar
    41   41   42 ar
    42   42   43 ar
    43   43   44 ar
    44   44   39 ar
    45   45   39 1
    46   46   45 2
    47   47   45 2
    48   48   42 1
    49   49   48 1
    50   50   49 ar
    51   51   50 ar
    52   52   51 ar
    53   53   52 ar
    54   54   49 ar
    55   55   50 1
    56   56   55 2
    57   57   55 1
    58   58    2 1
    59   59    3 1
    60   60    5 1
    61   61    6 1
    62   62   13 1
    63   63   14 1
    64   64   15 1
    65   65   16 1
    66   66   19 1
    67   67   21 1
    68   68   22 1
    69   69   24 1
    70   70   25 1
    71   71   32 1
    72   72   33 1
    73   73   34 1
    74   74   35 1
    75   75   38 1
    76   76   40 1
    77   77   41 1
    78   78   43 1
    79   79   44 1
    80   80   51 1
    81   81   52 1
    82   82   53 1
    83   83   54 1
    84   84   57 1
    85   15   16 ar
    86   34   35 ar
    87   53   54 ar
@<TRIPOS>SUBSTRUCTURE
     1 RES1 1
     2 RES2 20
     3 RES3 39

@<TRIPOS>CRYSIN
   7.8495   14.0847   17.2325 113.1870  98.5150  96.4000   2 1

