# MOL2 file generated by ConQuest
# Please check atom types

@<TRIPOS>MOLECULE
ETONUY
    47    49     1
SMALL
NO_CHARGES
****
Generated from CSD

@<TRIPOS>ATOM
      1 O1         3.0601    6.2951    7.9395 O.2       1 RES1    0.0000
      2 O2         1.9266    6.0310    9.8582 O.3       1 RES1    0.0000
      3 O3        12.3881    5.4594    7.5118 O.2       1 RES1    0.0000
      4 O4        11.3337    4.7539    5.8449 O.2       1 RES1    0.0000
      5 N1        11.3795    5.0599    6.9827 N.pl3     1 RES1    0.0000
      6 N2         6.5915    5.4450   10.0030 N.pl3     1 RES1    0.0000
      7 C1         4.2263    5.6299    9.9549 C.2       1 RES1    0.0000
      8 C2         5.4175    5.6680    9.3246 C.2       1 RES1    0.0000
      9 H1         5.4452    5.8491    8.4124 H         1 RES1    0.0000
     10 C3         6.5636    5.4671   11.4128 C.2       1 RES1    0.0000
     11 H2         7.3689    5.5028   11.8772 H         1 RES1    0.0000
     12 C4         5.4134    5.4389   12.1127 C.2       1 RES1    0.0000
     13 C5         4.0908    5.2890   11.4095 C.3       1 RES1    0.0000
     14 H3         3.4599    5.9207   11.8125 H         1 RES1    0.0000
     15 C6         3.5307    3.8824   11.5820 C.ar      1 RES1    0.0000
     16 C7         2.3552    3.6313   12.3316 C.ar      1 RES1    0.0000
     17 H4         1.8983    4.3345   12.7347 H         1 RES1    0.0000
     18 C8         1.8916    2.3427   12.4610 C.ar      1 RES1    0.0000
     19 H5         1.0820    2.1950   12.8939 H         1 RES1    0.0000
     20 C9         2.5829    1.2802   11.9734 C.ar      1 RES1    0.0000
     21 H6         2.2902    0.4148   12.1492 H         1 RES1    0.0000
     22 C10        3.7311    1.4887   11.2121 C.ar      1 RES1    0.0000
     23 H7         4.1691    0.7756   10.8074 H         1 RES1    0.0000
     24 C11        4.1932    2.7529   11.0744 C.ar      1 RES1    0.0000
     25 H8         4.9941    2.8808   10.6200 H         1 RES1    0.0000
     26 C12        7.8109    5.3567    9.2566 C.ar      1 RES1    0.0000
     27 C13        7.7923    4.9000    7.9679 C.ar      1 RES1    0.0000
     28 H9         7.0676    4.7265    7.5964 H         1 RES1    0.0000
     29 C14        8.9574    4.8346    7.2348 C.ar      1 RES1    0.0000
     30 H10        8.9699    4.6352    6.3524 H         1 RES1    0.0000
     31 C15       10.1483    5.1953    7.8120 C.ar      1 RES1    0.0000
     32 C16       10.1988    5.5668    9.1372 C.ar      1 RES1    0.0000
     33 H11       11.0139    5.7532    9.5452 H         1 RES1    0.0000
     34 C17        9.0165    5.6573    9.8554 C.ar      1 RES1    0.0000
     35 H12        9.0371    5.9230   10.7460 H         1 RES1    0.0000
     36 C18        3.0495    6.0592    9.1173 C.2       1 RES1    0.0000
     37 C19        0.7238    6.4633    9.1471 C.3       1 RES1    0.0000
     38 H13        0.4895    5.8217    8.4588 H         1 RES1    0.0000
     39 H14        0.8710    7.3264    8.7292 H         1 RES1    0.0000
     40 C20       -0.3670    6.5577   10.1622 C.3       1 RES1    0.0000
     41 H15       -1.1819    6.8310    9.7326 H         1 RES1    0.0000
     42 H16       -0.1277    7.2024   10.8323 H         1 RES1    0.0000
     43 H17       -0.4959    5.7000   10.5752 H         1 RES1    0.0000
     44 C21        5.4434    5.5591   13.6287 C.3       1 RES1    0.0000
     45 H18        6.3524    5.6375   13.9256 H         1 RES1    0.0000
     46 H19        5.0447    4.7782   14.0201 H         1 RES1    0.0000
     47 H20        4.9508    6.3385   13.8974 H         1 RES1    0.0000
@<TRIPOS>BOND
     1    1   36 2
     2    2   36 1
     3    3    5 2
     4    4    5 2
     5    5   31 1
     6    6    8 1
     7    7    8 2
     8    8    9 1
     9   10    6 1
    10   11   10 1
    11   12   10 2
    12   13    7 1
    13   14   13 1
    14   15   13 1
    15   16   15 ar
    16   17   16 1
    17   18   16 ar
    18   19   18 1
    19   20   18 ar
    20   21   20 1
    21   22   20 ar
    22   23   22 1
    23   24   15 ar
    24   25   24 1
    25   26    6 1
    26   27   26 ar
    27   28   27 1
    28   29   27 ar
    29   30   29 1
    30   31   29 ar
    31   32   31 ar
    32   33   32 1
    33   34   26 ar
    34   35   34 1
    35   36    7 1
    36   37    2 1
    37   38   37 1
    38   39   37 1
    39   40   37 1
    40   41   40 1
    41   42   40 1
    42   43   40 1
    43   44   12 1
    44   45   44 1
    45   46   44 1
    46   47   44 1
    47   12   13 1
    48   22   24 ar
    49   32   34 ar
@<TRIPOS>SUBSTRUCTURE
     1 RES1 1

@<TRIPOS>CRYSIN
  15.0030    7.6111   17.6240  90.0000 109.7630  90.0000 231 1

