# MOL2 file generated by ConQuest
# Please check atom types

@<TRIPOS>MOLECULE
ETUGAB
    32    34     2
SMALL
NO_CHARGES
****
Generated from CSD

@<TRIPOS>ATOM
      1 O1         0.2120    2.4209    0.3345 O.3       1 RES1    0.0000
      2 N1        -0.5182    3.1103    1.3354 N.2       1 RES1    0.0000
      3 C1         2.8687    4.4366    1.9141 C.3       1 RES1    0.0000
      4 C2         1.2146    5.6266    3.4424 C.3       1 RES1    0.0000
      5 C3         0.0000    4.7346    3.1318 C.3       1 RES1    0.0000
      6 C4         0.3519    3.8640    1.9354 C.2       1 RES1    0.0000
      7 C5         2.5882    4.9498    3.3560 C.3       1 RES1    0.0000
      8 C6         1.5143    2.8143    0.4272 C.2       1 RES1    0.0000
      9 C7         1.6651    3.7150    1.3880 C.2       1 RES1    0.0000
     10 H1         3.0954    5.2644    1.4982 H         1 RES1    0.0000
     11 H2         3.6154    3.8514    1.9141 H         1 RES1    0.0000
     12 H3         3.2891    5.6003    3.4712 H         1 RES1    0.0000
     13 H4         2.4904    4.2399    3.9786 H         1 RES1    0.0000
     14 H5         1.0437    6.1758    4.2467 H         1 RES1    0.0000
     15 H6         1.2849    6.4505    2.8574 H         1 RES1    0.0000
     16 H7         2.2180    2.4881   -0.1140 H         1 RES1    0.0000
     17 H8         1.2849    6.4505    2.8574 Du        2 SUP2    0.0000
     18 C2C       -1.2146    5.6266    2.8211 C.3       1 RES1    0.0000
     19 C5C       -2.5882    4.9498    2.9075 C.3       1 RES1    0.0000
     20 C1C       -2.8687    4.4366    4.3494 C.3       1 RES1    0.0000
     21 C7C       -1.6651    3.7150    4.8755 C.2       1 RES1    0.0000
     22 C4C       -0.3519    3.8640    4.3281 C.2       1 RES1    0.0000
     23 N1C        0.5182    3.1103    4.9281 N.2       1 RES1    0.0000
     24 O1C       -0.2120    2.4209    5.9290 O.3       1 RES1    0.0000
     25 C6C       -1.5143    2.8143    5.8363 C.2       1 RES1    0.0000
     26 H7C       -2.2180    2.4881    6.3775 H         1 RES1    0.0000
     27 H1C       -3.0954    5.2644    4.7653 H         1 RES1    0.0000
     28 H2C       -3.6154    3.8514    4.3494 H         1 RES1    0.0000
     29 H3C       -3.2891    5.6003    2.7923 H         1 RES1    0.0000
     30 H4C       -2.4904    4.2399    2.2849 H         1 RES1    0.0000
     31 H5C       -1.0437    6.1758    2.0168 H         1 RES1    0.0000
     32 H6C       -1.2849    6.4505    3.4061 H         1 RES1    0.0000
@<TRIPOS>BOND
     1    1    2 1
     2    2    6 2
     3    3    7 1
     4    4    5 1
     5    5    6 1
     6    6    9 1
     7    7    4 1
     8    8    1 1
     9    9    3 1
    10   10    3 1
    11   11    3 1
    12   12    7 1
    13   13    7 1
    14   14    4 1
    15   15    4 1
    16   16    8 1
    17   18    5 1
    18   19   18 1
    19   20   19 1
    20   21   20 1
    21   22    5 1
    22   23   22 2
    23   24   23 1
    24   25   21 2
    25   26   25 1
    26   27   20 1
    27   28   20 1
    28   29   19 1
    29   30   19 1
    30   31   18 1
    31   32   18 1
    32    8    9 2
    33   21   22 1
    34   24   25 1
@<TRIPOS>SUBSTRUCTURE
     1 RES1 1
     2 SUP2 17

@<TRIPOS>CRYSIN
   9.1390    9.7380   12.5270  90.0000  90.0000  90.0000  20 1

