# MOL2 file generated by ConQuest
# Please check atom types

@<TRIPOS>MOLECULE
EVACOU
    88    92     2
SMALL
NO_CHARGES
****
Generated from CSD

@<TRIPOS>ATOM
      1 O1        10.7071   -2.3731   12.7659 O.2       1 RES1    0.0000
      2 O2        11.1744   -0.8166   14.1532 O.2       1 RES1    0.0000
      3 O3         4.7950    2.9021    6.4376 O.2       1 RES1    0.0000
      4 O4         5.8098    0.9471    6.9056 O.3       1 RES1    0.0000
      5 N1        10.6097   -1.2235   13.1533 N.pl3     1 RES1    0.0000
      6 N2         7.5003    2.3565   10.1653 N.pl3     1 RES1    0.0000
      7 H1         7.4279    3.1758   10.4159 H         1 RES1    0.0000
      8 N3         6.8722    1.9161    9.0702 N.2       1 RES1    0.0000
      9 N4         5.8383    4.0495    8.7864 N.pl3     1 RES1    0.0000
     10 N5         5.6929    6.2797    8.8144 N.2       1 RES1    0.0000
     11 C1         9.8007   -0.2846   12.3709 C.ar      1 RES1    0.0000
     12 C2         9.0358   -0.7734   11.3307 C.ar      1 RES1    0.0000
     13 H2         9.0412   -1.6817   11.1329 H         1 RES1    0.0000
     14 C3         8.2651    0.0954   10.5898 C.ar      1 RES1    0.0000
     15 H3         7.7401   -0.2242    9.8909 H         1 RES1    0.0000
     16 C4         8.2761    1.4528   10.8917 C.ar      1 RES1    0.0000
     17 C5         9.0449    1.9258   11.9480 C.ar      1 RES1    0.0000
     18 H4         9.0467    2.8340   12.1496 H         1 RES1    0.0000
     19 C6         9.8025    1.0565   12.6955 C.ar      1 RES1    0.0000
     20 H5        10.3101    1.3677   13.4111 H         1 RES1    0.0000
     21 C7         6.1387    2.7178    8.3840 C.2       1 RES1    0.0000
     22 C8         5.5046    2.2187    7.1348 C.2       1 RES1    0.0000
     23 C9         5.2632    0.3494    5.7008 C.3       1 RES1    0.0000
     24 H6         5.6525    0.7605    4.9131 H         1 RES1    0.0000
     25 H7         4.3013    0.4692    5.6693 H         1 RES1    0.0000
     26 C10        5.6063   -1.1086    5.7541 C.3       1 RES1    0.0000
     27 H8         5.2735   -1.5445    4.9660 H         1 RES1    0.0000
     28 H9         5.2059   -1.5029    6.5312 H         1 RES1    0.0000
     29 H10        6.5601   -1.2115    5.7986 H         1 RES1    0.0000
     30 C11        5.0595    4.3714    9.9054 C.ar      1 RES1    0.0000
     31 C12        4.4447    3.5959   10.8745 C.ar      1 RES1    0.0000
     32 H11        4.5246    2.6691   10.8821 H         1 RES1    0.0000
     33 C13        3.7028    4.2708   11.8338 C.ar      1 RES1    0.0000
     34 H12        3.2773    3.7848   12.5022 H         1 RES1    0.0000
     35 C14        3.5817    5.6495   11.8206 C.ar      1 RES1    0.0000
     36 H13        3.0673    6.0687   12.4728 H         1 RES1    0.0000
     37 C15        4.2085    6.4114   10.8580 C.ar      1 RES1    0.0000
     38 H14        4.1232    7.3380   10.8527 H         1 RES1    0.0000
     39 C16        4.9717    5.7610    9.8930 C.ar      1 RES1    0.0000
     40 C17        6.1693    5.2457    8.1695 C.2       1 RES1    0.0000
     41 C18        6.9637    5.3057    6.9160 C.3       1 RES1    0.0000
     42 H15        6.3759    5.2298    6.1610 H         1 RES1    0.0000
     43 H16        7.5961    4.5839    6.9034 H         1 RES1    0.0000
     44 H17        7.4325    6.1419    6.8740 H         1 RES1    0.0000
     45 O5         6.2661    3.2204   -3.5211 O.2       2 RES2    0.0000
     46 O6         6.6361    4.8305   -4.9017 O.2       2 RES2    0.0000
     47 O7         0.3274    8.2804    2.9902 O.2       2 RES2    0.0000
     48 O8         1.5924    6.4371    2.7469 O.3       2 RES2    0.0000
     49 N6         6.1658    4.3923   -3.8656 N.pl3     2 RES2    0.0000
     50 N7         3.2217    7.8771   -0.5967 N.pl3     2 RES2    0.0000
     51 H18        3.1515    8.7047   -0.8189 H         2 RES2    0.0000
     52 N8         2.5992    7.4046    0.4939 N.2       2 RES2    0.0000
     53 N9         1.5064    9.5147    0.8226 N.pl3     2 RES2    0.0000
     54 N10        1.2409   11.7286    0.9818 N.2       2 RES2    0.0000
     55 C19        5.4384    5.3117   -2.9772 C.ar      2 RES2    0.0000
     56 C20        4.7947    4.8015   -1.8706 C.ar      2 RES2    0.0000
     57 H19        4.8528    3.8952   -1.6710 H         2 RES2    0.0000
     58 C21        4.0645    5.6440   -1.0616 C.ar      2 RES2    0.0000
     59 H20        3.6252    5.3061   -0.3154 H         2 RES2    0.0000
     60 C22        3.9846    6.9987   -1.3617 C.ar      2 RES2    0.0000
     61 C23        4.6490    7.4962   -2.4846 C.ar      2 RES2    0.0000
     62 H21        4.6038    8.4038   -2.6838 H         2 RES2    0.0000
     63 C24        5.3722    6.6533   -3.3005 C.ar      2 RES2    0.0000
     64 H22        5.8083    6.9816   -4.0531 H         2 RES2    0.0000
     65 C25        1.8343    8.1789    1.1832 C.2       2 RES2    0.0000
     66 C26        1.1646    7.6504    2.4046 C.2       2 RES2    0.0000
     67 C27        0.9956    5.8722    3.9471 C.3       2 RES2    0.0000
     68 H23        0.0282    5.9117    3.8905 H         2 RES2    0.0000
     69 H24        1.2778    6.3716    4.7290 H         2 RES2    0.0000
     70 C28        1.4463    4.4613    4.0504 C.3       2 RES2    0.0000
     71 H25        2.4052    4.4335    4.0786 H         2 RES2    0.0000
     72 H26        1.1350    3.9695    3.2872 H         2 RES2    0.0000
     73 H27        1.0907    4.0694    4.8504 H         2 RES2    0.0000
     74 C29        0.6880    9.8857   -0.2549 C.ar      2 RES2    0.0000
     75 C30        0.0921    9.1499   -1.2677 C.ar      2 RES2    0.0000
     76 H28        0.1978    8.2283   -1.3321 H         2 RES2    0.0000
     77 C31       -0.6661    9.8629   -2.1743 C.ar      2 RES2    0.0000
     78 H29       -1.0689    9.4096   -2.8797 H         2 RES2    0.0000
     79 C32       -0.8458   11.2290   -2.0663 C.ar      2 RES2    0.0000
     80 H30       -1.3741   11.6694   -2.6916 H         2 RES2    0.0000
     81 C33       -0.2599   11.9495   -1.0524 C.ar      2 RES2    0.0000
     82 H31       -0.3914   12.8677   -0.9834 H         2 RES2    0.0000
     83 C34        0.5343   11.2680   -0.1320 C.ar      2 RES2    0.0000
     84 C35        1.7775   10.6699    1.5327 C.2       2 RES2    0.0000
     85 C36        2.5617   10.6652    2.7839 C.3       2 RES2    0.0000
     86 H32        2.9538   11.5312    2.9189 H         2 RES2    0.0000
     87 H33        3.2562   10.0051    2.7230 H         2 RES2    0.0000
     88 H34        1.9853   10.4568    3.5222 H         2 RES2    0.0000
@<TRIPOS>BOND
     1    1    5 2
     2    2    5 2
     3    3   22 2
     4    4   22 1
     5    5   11 1
     6    6    7 1
     7    8    6 1
     8    9   21 1
     9   10   39 1
    10   11   12 ar
    11   12   13 1
    12   14   12 ar
    13   15   14 1
    14   16    6 1
    15   17   16 ar
    16   18   17 1
    17   19   11 ar
    18   20   19 1
    19   21    8 2
    20   22   21 1
    21   23    4 1
    22   24   23 1
    23   25   23 1
    24   26   23 1
    25   27   26 1
    26   28   26 1
    27   29   26 1
    28   30    9 1
    29   31   30 ar
    30   32   31 1
    31   33   31 ar
    32   34   33 1
    33   35   33 ar
    34   36   35 1
    35   37   35 ar
    36   38   37 1
    37   39   30 ar
    38   40    9 1
    39   41   40 1
    40   42   41 1
    41   43   41 1
    42   44   41 1
    43   45   49 2
    44   46   49 2
    45   47   66 2
    46   48   66 1
    47   49   55 1
    48   50   51 1
    49   52   50 1
    50   53   65 1
    51   54   83 1
    52   55   56 ar
    53   56   57 1
    54   58   56 ar
    55   59   58 1
    56   60   50 1
    57   61   60 ar
    58   62   61 1
    59   63   55 ar
    60   64   63 1
    61   65   52 2
    62   66   65 1
    63   67   48 1
    64   68   67 1
    65   69   67 1
    66   70   67 1
    67   71   70 1
    68   72   70 1
    69   73   70 1
    70   74   53 1
    71   75   74 ar
    72   76   75 1
    73   77   75 ar
    74   78   77 1
    75   79   77 ar
    76   80   79 1
    77   81   79 ar
    78   82   81 1
    79   83   74 ar
    80   84   53 1
    81   85   84 1
    82   86   85 1
    83   87   85 1
    84   88   85 1
    85   10   40 2
    86   14   16 ar
    87   17   19 ar
    88   37   39 ar
    89   54   84 2
    90   58   60 ar
    91   61   63 ar
    92   81   83 ar
@<TRIPOS>SUBSTRUCTURE
     1 RES1 1
     2 RES2 45

@<TRIPOS>CRYSIN
   8.2690   11.5230   19.8530  87.4400  80.6700  76.8000   2 1

