# MOL2 file generated by ConQuest
# Please check atom types

@<TRIPOS>MOLECULE
EVADIP
    31    33     1
SMALL
NO_CHARGES
****
Generated from CSD

@<TRIPOS>ATOM
      1 N1         1.8658    3.4593    2.5420 N.2       1 RES1    0.0000
      2 O1         2.1421    3.0712    3.8707 O.3       1 RES1    0.0000
      3 C1         3.4524    2.7955    3.9519 C.2       1 RES1    0.0000
      4 C2         3.9586    2.3912    5.2573 C.ar      1 RES1    0.0000
      5 C3         3.6782    2.2310    7.6602 C.ar      1 RES1    0.0000
      6 C4         3.0083    3.3931    1.8972 C.2       1 RES1    0.0000
      7 C5         3.2190    2.6145    6.4182 C.ar      1 RES1    0.0000
      8 H1         2.3923    3.0350    6.3515 H         1 RES1    0.0000
      9 C6         4.9112    1.6003    7.7392 C.ar      1 RES1    0.0000
     10 H2         5.2340    1.3253    8.5684 H         1 RES1    0.0000
     11 C7         4.0294    2.9841    2.7351 C.2       1 RES1    0.0000
     12 H3         4.9246    2.8632    2.5132 H         1 RES1    0.0000
     13 C8         4.0822    3.3638   -0.3301 C.ar      1 RES1    0.0000
     14 H4         4.7934    2.8933    0.0412 H         1 RES1    0.0000
     15 C9         5.6659    1.3754    6.6067 C.ar      1 RES1    0.0000
     16 H5         6.4908    0.9526    6.6780 H         1 RES1    0.0000
     17 C10        5.2061    1.7735    5.3707 C.ar      1 RES1    0.0000
     18 H6         5.7257    1.6318    4.6120 H         1 RES1    0.0000
     19 C11        3.0187    3.7535    0.4683 C.ar      1 RES1    0.0000
     20 C12        1.9743    4.4496   -0.1012 C.ar      1 RES1    0.0000
     21 H7         1.2551    4.7153    0.4253 H         1 RES1    0.0000
     22 C13        2.8550    2.4959    8.8990 C.3       1 RES1    0.0000
     23 H8         2.8120    3.4416    9.0595 H         1 RES1    0.0000
     24 H9         3.2625    2.0631    9.6521 H         1 RES1    0.0000
     25 H10        1.9680    2.1524    8.7741 H         1 RES1    0.0000
     26 C14        1.9889    4.7531   -1.4393 C.ar      1 RES1    0.0000
     27 H11        1.2818    5.2244   -1.8163 H         1 RES1    0.0000
     28 C15        3.0413    4.3642   -2.2190 C.ar      1 RES1    0.0000
     29 H12        3.0466    4.5698   -3.1250 H         1 RES1    0.0000
     30 C16        4.0874    3.6741   -1.6725 C.ar      1 RES1    0.0000
     31 H13        4.8021    3.4131   -2.2059 H         1 RES1    0.0000
@<TRIPOS>BOND
     1    1    2 1
     2    2    3 1
     3    3    4 1
     4    4    7 ar
     5    5    7 ar
     6    6    1 2
     7    7    8 1
     8    9    5 ar
     9   10    9 1
    10   11    3 2
    11   12   11 1
    12   13   14 1
    13   15    9 ar
    14   16   15 1
    15   17    4 ar
    16   18   17 1
    17   19    6 1
    18   20   19 ar
    19   21   20 1
    20   22    5 1
    21   23   22 1
    22   24   22 1
    23   25   22 1
    24   26   20 ar
    25   27   26 1
    26   28   26 ar
    27   29   28 1
    28   30   13 ar
    29   31   30 1
    30    6   11 1
    31   13   19 ar
    32   15   17 ar
    33   28   30 ar
@<TRIPOS>SUBSTRUCTURE
     1 RES1 1

@<TRIPOS>CRYSIN
   5.8052    7.7010   27.4363  90.0000  90.0000  90.0000  19 1

