# MOL2 file generated by ConQuest
# Please check atom types

@<TRIPOS>MOLECULE
EVAGIS
    43    45     1
SMALL
NO_CHARGES
****
Generated from CSD

@<TRIPOS>ATOM
      1 O1         3.7022    8.4493    0.9367 O.2       1 RES1    0.0000
      2 O2         4.7639    5.3397   -0.9337 O.2       1 RES1    0.0000
      3 O3         8.3683    1.1843    6.1784 O.2       1 RES1    0.0000
      4 O4         8.6627   -0.2203    4.5520 O.2       1 RES1    0.0000
      5 N1         5.4934    5.6448    1.8523 N.2       1 RES1    0.0000
      6 N2         6.0519    4.5298    1.4083 N.3       1 RES1    0.0000
      7 N3         8.2687    0.8625    4.9886 N.pl3     1 RES1    0.0000
      8 C1         5.6121    7.4969   -1.3495 C.ar      1 RES1    0.0000
      9 C2         6.3532    8.5741   -0.8609 C.ar      1 RES1    0.0000
     10 C3         6.8785    9.5056   -1.7360 C.ar      1 RES1    0.0000
     11 C4         6.6578    9.3754   -3.0955 C.ar      1 RES1    0.0000
     12 C5         5.9150    8.3240   -3.5836 C.ar      1 RES1    0.0000
     13 C6         5.3963    7.3752   -2.7202 C.ar      1 RES1    0.0000
     14 C7         5.1091    6.4161   -0.4746 C.2       1 RES1    0.0000
     15 C8         5.0834    6.5688    1.0325 C.2       1 RES1    0.0000
     16 C9         4.3920    7.7228    1.6522 C.2       1 RES1    0.0000
     17 C10        4.4858    7.9721    3.1298 C.ar      1 RES1    0.0000
     18 C11        3.4127    8.6241    3.7207 C.ar      1 RES1    0.0000
     19 C12        3.4185    8.8958    5.0737 C.ar      1 RES1    0.0000
     20 C13        4.4941    8.5198    5.8505 C.ar      1 RES1    0.0000
     21 C14        5.5681    7.8703    5.2700 C.ar      1 RES1    0.0000
     22 C15        5.5780    7.6124    3.9108 C.ar      1 RES1    0.0000
     23 C16        6.5665    3.6156    2.3294 C.ar      1 RES1    0.0000
     24 C17        6.4121    3.8028    3.7069 C.ar      1 RES1    0.0000
     25 C18        6.9748    2.8920    4.5733 C.ar      1 RES1    0.0000
     26 C19        7.6545    1.8035    4.0604 C.ar      1 RES1    0.0000
     27 C20        7.7940    1.5896    2.7047 C.ar      1 RES1    0.0000
     28 C21        7.2528    2.5107    1.8418 C.ar      1 RES1    0.0000
     29 H1         6.2411    4.4074    0.4778 H         1 RES1    0.0000
     30 H2         6.4959    8.6664    0.0726 H         1 RES1    0.0000
     31 H3         7.3898   10.2344   -1.4035 H         1 RES1    0.0000
     32 H4         7.0213   10.0153   -3.6952 H         1 RES1    0.0000
     33 H5         5.7581    8.2490   -4.5183 H         1 RES1    0.0000
     34 H6         4.8950    6.6430   -3.0597 H         1 RES1    0.0000
     35 H7         2.6691    8.8846    3.1898 H         1 RES1    0.0000
     36 H8         2.6799    9.3426    5.4714 H         1 RES1    0.0000
     37 H9         4.4974    8.7061    6.7824 H         1 RES1    0.0000
     38 H10        6.3034    7.5995    5.8067 H         1 RES1    0.0000
     39 H11        6.3300    7.1907    3.5125 H         1 RES1    0.0000
     40 H12        5.9258    4.5471    4.0404 H         1 RES1    0.0000
     41 H13        6.8960    3.0101    5.5115 H         1 RES1    0.0000
     42 H14        8.2521    0.8246    2.3767 H         1 RES1    0.0000
     43 H15        7.3491    2.3908    0.9031 H         1 RES1    0.0000
@<TRIPOS>BOND
     1    1   16 2
     2    2   14 2
     3    3    7 2
     4    4    7 2
     5    5    6 1
     6    6   23 1
     7    7   26 1
     8    8    9 ar
     9    9   10 ar
    10   10   11 ar
    11   11   12 ar
    12   12   13 ar
    13   13    8 ar
    14   14    8 1
    15   15    5 2
    16   16   15 1
    17   17   16 1
    18   18   17 ar
    19   19   18 ar
    20   20   19 ar
    21   21   20 ar
    22   22   17 ar
    23   23   24 ar
    24   24   25 ar
    25   25   26 ar
    26   26   27 ar
    27   27   28 ar
    28   28   23 ar
    29   29    6 1
    30   30    9 1
    31   31   10 1
    32   32   11 1
    33   33   12 1
    34   34   13 1
    35   35   18 1
    36   36   19 1
    37   37   20 1
    38   38   21 1
    39   39   22 1
    40   40   24 1
    41   41   25 1
    42   42   27 1
    43   43   28 1
    44   14   15 1
    45   21   22 ar
@<TRIPOS>SUBSTRUCTURE
     1 RES1 1

@<TRIPOS>CRYSIN
   8.2994    8.6250   25.0180  90.0000  90.0000  90.0000  19 1

