# MOL2 file generated by ConQuest
# Please check atom types

@<TRIPOS>MOLECULE
EVALOD
    33    34     1
SMALL
NO_CHARGES
****
Generated from CSD

@<TRIPOS>ATOM
      1 C1         9.7604    6.5589   23.8908 C.ar      1 RES1    0.0000
      2 H1        10.3404    7.0655   23.3675 H         1 RES1    0.0000
      3 C2         9.8928    6.5657   25.2704 C.ar      1 RES1    0.0000
      4 H2        10.5678    7.0689   25.6669 H         1 RES1    0.0000
      5 C3         9.0379    5.8385   26.0528 C.ar      1 RES1    0.0000
      6 H3         9.1248    5.8530   26.9782 H         1 RES1    0.0000
      7 C4         8.0517    5.0851   25.4633 C.ar      1 RES1    0.0000
      8 H4         7.4696    4.5870   25.9932 H         1 RES1    0.0000
      9 C5         7.9203    5.0647   24.0962 C.ar      1 RES1    0.0000
     10 H5         7.2524    4.5471   23.7094 H         1 RES1    0.0000
     11 C6         8.7711    5.8054   23.2834 C.ar      1 RES1    0.0000
     12 C7         8.5943    5.7571   21.8106 C.2       1 RES1    0.0000
     13 C8         9.4401    6.6421   20.9373 C.3       1 RES1    0.0000
     14 H6        10.3748    6.4842   21.1434 H         1 RES1    0.0000
     15 H7         9.2441    7.5678   21.1465 H         1 RES1    0.0000
     16 C9         9.2228    6.4198   19.4425 C.3       1 RES1    0.0000
     17 H8         8.2659    6.5182   19.2580 H         1 RES1    0.0000
     18 C10        9.9666    7.4337   18.5914 C.ar      1 RES1    0.0000
     19 C11       11.3307    7.3565   18.3822 C.ar      1 RES1    0.0000
     20 H9        11.8148    6.6667   18.7749 H         1 RES1    0.0000
     21 C12       11.9825    8.2839   17.6020 C.ar      1 RES1    0.0000
     22 H10       12.9011    8.2160   17.4731 H         1 RES1    0.0000
     23 C13       11.2812    9.3089   17.0141 C.ar      1 RES1    0.0000
     24 H11       11.7097    9.9317   16.4724 H         1 RES1    0.0000
     25 C14        9.9342    9.3878   17.2472 C.ar      1 RES1    0.0000
     26 C15        9.2643    8.4723   18.0142 C.ar      1 RES1    0.0000
     27 H12        8.3467    8.5486   18.1444 H         1 RES1    0.0000
     28 C16        9.6139    5.0503   19.0767 C.1       1 RES1    0.0000
     29 N1         9.9231    3.9922   18.8286 N.1       1 RES1    0.0000
     30 N2         9.1561   10.4493   16.5947 N.pl3     1 RES1    0.0000
     31 O1         7.7818    5.0045   21.3065 O.2       1 RES1    0.0000
     32 O2         7.9779   10.5562   16.8830 O.2       1 RES1    0.0000
     33 O3         9.7220   11.1739   15.7935 O.2       1 RES1    0.0000
@<TRIPOS>BOND
     1    1    2 1
     2    3    1 ar
     3    4    3 1
     4    5    3 ar
     5    6    5 1
     6    7    5 ar
     7    8    7 1
     8    9    7 ar
     9   10    9 1
    10   11    1 ar
    11   12   11 1
    12   13   12 1
    13   14   13 1
    14   15   13 1
    15   16   13 1
    16   17   16 1
    17   18   16 1
    18   19   18 ar
    19   20   19 1
    20   21   19 ar
    21   22   21 1
    22   23   21 ar
    23   24   23 1
    24   25   23 ar
    25   26   18 ar
    26   27   26 1
    27   28   16 1
    28   29   28 3
    29   30   25 1
    30   31   12 2
    31   32   30 2
    32   33   30 2
    33    9   11 ar
    34   25   26 ar
@<TRIPOS>SUBSTRUCTURE
     1 RES1 1

@<TRIPOS>CRYSIN
  10.1050    8.4850   31.3700  90.0000  90.0000  90.0000  61 1

