# MOL2 file generated by ConQuest
# Please check atom types

@<TRIPOS>MOLECULE
EVAWED
    24    26     1
SMALL
USER_CHARGES
****
Generated from CSD

@<TRIPOS>ATOM
      1 O1        10.7085   -1.2816   13.8781 O.3       1 RES1    0.0000
      2 O2         8.9036    0.0856   13.9918 O.2       1 RES1   -1.0000
      3 O3        11.3122    2.0239   10.8048 O.2       1 RES1    0.0000
      4 N1        11.9393   -0.2657   12.4745 N.pl3     1 RES1    1.0000
      5 N2        11.9180   -1.3196   13.2485 N.2       1 RES1    0.0000
      6 C1         9.9737   -0.1259   13.4926 C.2       1 RES1    0.0000
      7 C2        10.8106    0.5029   12.5294 C.2       1 RES1    0.0000
      8 C3        10.5136    1.6357   11.6504 C.2       1 RES1    0.0000
      9 C4         9.1886    2.2387   11.8526 C.2       1 RES1    0.0000
     10 C5         8.7497    3.2507   11.1228 C.2       1 RES1    0.0000
     11 C6         7.4622    3.9253   11.2564 C.ar      1 RES1    0.0000
     12 C7         7.2036    5.0754   10.5295 C.ar      1 RES1    0.0000
     13 C8         5.9994    5.7456   10.6880 C.ar      1 RES1    0.0000
     14 C9         5.0225    5.2998   11.5356 C.ar      1 RES1    0.0000
     15 C10        5.2724    4.1502   12.2488 C.ar      1 RES1    0.0000
     16 C11        6.4670    3.4728   12.1124 C.ar      1 RES1    0.0000
     17 C12        3.7229    6.0527   11.7015 C.3       1 RES1    0.0000
     18 C13       13.1958   -0.0392   11.7849 C.ar      1 RES1    0.0000
     19 C14       13.8971    1.1194   12.0474 C.ar      1 RES1    0.0000
     20 C15       15.1426    1.2743   11.4859 C.ar      1 RES1    0.0000
     21 C16       15.6954    0.2965   10.6548 C.ar      1 RES1    0.0000
     22 C17       14.9503   -0.8419   10.4093 C.ar      1 RES1    0.0000
     23 C18       13.6962   -1.0321   10.9760 C.ar      1 RES1    0.0000
     24 C19       17.0552    0.4967   10.0393 C.3       1 RES1    0.0000
@<TRIPOS>BOND
     1    1    5 1
     2    2    6 1
     3    3    8 2
     4    4    5 2
     5    6    1 1
     6    7    4 1
     7    8    7 1
     8    9    8 1
     9   10    9 2
    10   11   10 1
    11   12   11 ar
    12   13   12 ar
    13   14   13 ar
    14   15   14 ar
    15   16   11 ar
    16   17   14 1
    17   18    4 1
    18   19   18 ar
    19   20   19 ar
    20   21   20 ar
    21   22   21 ar
    22   23   18 ar
    23   24   21 1
    24    6    7 2
    25   15   16 ar
    26   22   23 ar
@<TRIPOS>SUBSTRUCTURE
     1 RES1 1

@<TRIPOS>CRYSIN
  31.0000    5.5940   18.6430  90.0000  98.7200  90.0000  15 1

