# MOL2 file generated by ConQuest
# Please check atom types

@<TRIPOS>MOLECULE
EVAZIK01
    34    36     1
SMALL
NO_CHARGES
****
Generated from CSD

@<TRIPOS>ATOM
      1 O1        13.1360    0.7242    7.4085 O.3       1 RES1    0.0000
      2 N1        12.5665    2.0747    7.6440 N.3       1 RES1    0.0000
      3 N2        10.4772    2.0937   10.6857 N.1       1 RES1    0.0000
      4 N3        15.4397    2.9783    3.8856 N.1       1 RES1    0.0000
      5 C1        10.4669    1.0289    8.3001 C.3       1 RES1    0.0000
      6 H1         9.5297    0.8667    8.0266 H         1 RES1    0.0000
      7 H2        10.9296    0.1532    8.3331 H         1 RES1    0.0000
      8 C2        11.1474    1.9157    7.2542 C.3       1 RES1    0.0000
      9 H3        11.1097    1.4518    6.3695 H         1 RES1    0.0000
     10 C3        10.4813    3.2748    7.1159 C.3       1 RES1    0.0000
     11 H4         9.5320    3.1554    6.8613 H         1 RES1    0.0000
     12 H5        10.5088    3.7485    7.9850 H         1 RES1    0.0000
     13 C4        11.1910    4.1038    6.0622 C.3       1 RES1    0.0000
     14 H6        10.7564    4.9894    5.9797 H         1 RES1    0.0000
     15 H7        11.1395    3.6490    5.1837 H         1 RES1    0.0000
     16 C5        12.6455    4.2763    6.4700 C.3       1 RES1    0.0000
     17 H8        12.6831    4.8600    7.2692 H         1 RES1    0.0000
     18 H9        13.1269    4.7386    5.7393 H         1 RES1    0.0000
     19 C6        13.3753    2.9700    6.7859 C.3       1 RES1    0.0000
     20 C7        13.6766    2.0524    5.5727 C.3       1 RES1    0.0000
     21 H10       12.8257    1.8648    5.0824 H         1 RES1    0.0000
     22 C8        14.1081    0.7911    6.3388 C.3       1 RES1    0.0000
     23 H11       14.0613   -0.0199    5.7558 H         1 RES1    0.0000
     24 C9        15.4936    0.9513    6.9470 C.3       1 RES1    0.0000
     25 H12       16.1484    1.1692    6.2367 H         1 RES1    0.0000
     26 H13       15.7709    0.1025    7.3737 H         1 RES1    0.0000
     27 C10       15.4716    2.0658    7.9850 C.3       1 RES1    0.0000
     28 H14       16.4017    2.3285    8.1979 H         1 RES1    0.0000
     29 H15       15.0545    1.7265    8.8163 H         1 RES1    0.0000
     30 C11       14.7016    3.2967    7.5049 C.3       1 RES1    0.0000
     31 H16       15.2786    3.8122    6.8873 H         1 RES1    0.0000
     32 H17       14.5071    3.8739    8.2844 H         1 RES1    0.0000
     33 C12       10.4812    1.6310    9.6375 C.1       1 RES1    0.0000
     34 C13       14.6743    2.5643    4.6305 C.1       1 RES1    0.0000
@<TRIPOS>BOND
     1    1    2 1
     2    2    8 1
     3    3   33 3
     4    4   34 3
     5    5    6 1
     6    7    5 1
     7    8    5 1
     8    9    8 1
     9   10    8 1
    10   11   10 1
    11   12   10 1
    12   13   10 1
    13   14   13 1
    14   15   13 1
    15   16   13 1
    16   17   16 1
    17   18   16 1
    18   19    2 1
    19   20   19 1
    20   21   20 1
    21   22    1 1
    22   23   22 1
    23   24   22 1
    24   25   24 1
    25   26   24 1
    26   27   24 1
    27   28   27 1
    28   29   27 1
    29   30   19 1
    30   31   30 1
    31   32   30 1
    32   33    5 1
    33   34   20 1
    34   16   19 1
    35   20   22 1
    36   27   30 1
@<TRIPOS>SUBSTRUCTURE
     1 RES1 1

@<TRIPOS>CRYSIN
  15.5820    9.9509    7.9189  90.0000  97.1280  90.0000   9 1

