# MOL2 file generated by ConQuest
# Please check atom types

@<TRIPOS>MOLECULE
EVAZEG01
    68    72     2
SMALL
NO_CHARGES
****
Generated from CSD

@<TRIPOS>ATOM
      1 O1         7.0288    6.2755    4.0273 O.3       1 RES1    0.0000
      2 O2         3.1459    2.5782    3.9332 O.3       2 RES2    0.0000
      3 N1         2.5148    1.3010    4.2054 N.3       2 RES2    0.0000
      4 N2         7.7043    7.4654    3.5410 N.3       1 RES1    0.0000
      5 C1         5.1522    5.6754    5.2749 C.1       1 RES1    0.0000
      6 C2         4.5044    2.2774    3.5285 C.3       2 RES2    0.0000
      7 C3         5.6749    6.6648    4.3211 C.3       1 RES1    0.0000
      8 C4         4.9350    3.4214    2.7026 C.1       2 RES2    0.0000
      9 C5         2.9817    0.4774    3.0767 C.3       2 RES2    0.0000
     10 C6         5.7427    8.1349    4.8111 C.3       1 RES1    0.0000
     11 C7         7.2262    8.4890    4.5007 C.3       1 RES1    0.0000
     12 C8         2.9946    0.8662    5.5384 C.3       2 RES2    0.0000
     13 C9         4.4468    0.9119    2.8127 C.3       2 RES2    0.0000
     14 C10        7.8393    6.5242    1.2870 C.3       1 RES1    0.0000
     15 C11        2.7794   -1.0191    3.3573 C.3       2 RES2    0.0000
     16 C12        1.0117    1.9061    6.6103 C.1       2 RES2    0.0000
     17 C13        2.4604    1.8485    6.5871 C.3       2 RES2    0.0000
     18 C14        7.2764    7.6629    2.1445 C.3       1 RES1    0.0000
     19 C15        7.9515    8.2999    5.8593 C.3       1 RES1    0.0000
     20 C16        4.5688    0.9849    1.2925 C.3       2 RES2    0.0000
     21 C17        3.2243   -1.4658    4.7398 C.3       2 RES2    0.0000
     22 N3        -0.1255    1.9601    6.6462 N.1       2 RES2    0.0000
     23 C18        7.4725    9.9061    3.9661 C.3       1 RES1    0.0000
     24 C19        2.2220    0.8889    1.7868 C.3       2 RES2    0.0000
     25 C20        3.2331    1.5656    0.8662 C.3       2 RES2    0.0000
     26 N4         4.7451    4.8770    5.9818 N.1       1 RES1    0.0000
     27 C21        7.7205    9.0349    1.6713 C.3       1 RES1    0.0000
     28 C22        5.5981    8.3338    6.3114 C.3       1 RES1    0.0000
     29 C23        9.2967    6.4392    1.3367 C.1       1 RES1    0.0000
     30 C24        2.5779   -0.5785    5.7776 C.3       2 RES2    0.0000
     31 N5        10.4230    6.3541    1.3609 N.1       1 RES1    0.0000
     32 C25        7.0586   10.1057    2.5284 C.3       1 RES1    0.0000
     33 C26        6.9354    7.8473    6.8633 C.3       1 RES1    0.0000
     34 N6         5.2685    4.3046    2.0683 N.1       2 RES2    0.0000
     35 H1         5.1813    2.1899    4.2831 H         2 RES2    0.0000
     36 H2         5.0189    6.6608    3.5361 H         1 RES1    0.0000
     37 H3         5.0057    8.6837    4.3585 H         1 RES1    0.0000
     38 H4         4.0103    0.8762    5.5719 H         2 RES2    0.0000
     39 H5         5.1942    0.3128    3.1611 H         2 RES2    0.0000
     40 H6         7.5560    6.6583    0.3254 H         1 RES1    0.0000
     41 H7         7.4481    5.6449    1.6014 H         1 RES1    0.0000
     42 H8         3.2758   -1.5530    2.6513 H         2 RES2    0.0000
     43 H9         1.7898   -1.2364    3.2508 H         2 RES2    0.0000
     44 H10        2.8012    1.5879    7.5003 H         2 RES2    0.0000
     45 H11        2.8205    2.7820    6.3862 H         2 RES2    0.0000
     46 H12        6.2654    7.6454    2.0710 H         1 RES1    0.0000
     47 H13        8.4016    9.1598    6.1474 H         1 RES1    0.0000
     48 H14        8.7037    7.6005    5.7659 H         1 RES1    0.0000
     49 H15        5.3542    1.5892    1.0099 H         2 RES2    0.0000
     50 H16        4.7381    0.0835    0.8720 H         2 RES2    0.0000
     51 H17        4.2319   -1.3798    4.8105 H         2 RES2    0.0000
     52 H18        2.9855   -2.4317    4.8987 H         2 RES2    0.0000
     53 H19        8.4571   10.1233    4.0491 H         1 RES1    0.0000
     54 H20        6.9649   10.5595    4.5492 H         1 RES1    0.0000
     55 H21        1.4551    1.5181    2.0406 H         2 RES2    0.0000
     56 H22        1.8095    0.0773    1.3561 H         2 RES2    0.0000
     57 H23        3.2111    2.5813    0.9874 H         2 RES2    0.0000
     58 H24        3.0222    1.3823   -0.1058 H         2 RES2    0.0000
     59 H25        8.7389    9.0987    1.7761 H         1 RES1    0.0000
     60 H26        7.5083    9.1598    0.7037 H         1 RES1    0.0000
     61 H27        5.4247    9.2944    6.5626 H         1 RES1    0.0000
     62 H28        4.8190    7.7838    6.6876 H         1 RES1    0.0000
     63 H29        2.8418   -0.8650    6.7245 H         2 RES2    0.0000
     64 H30        1.5646   -0.6531    5.7306 H         2 RES2    0.0000
     65 H31        7.3336   11.0319    2.2105 H         1 RES1    0.0000
     66 H32        6.0611   10.0360    2.4461 H         1 RES1    0.0000
     67 H33        7.1115    8.2462    7.7840 H         1 RES1    0.0000
     68 H34        6.9296    6.8402    6.9729 H         1 RES1    0.0000
@<TRIPOS>BOND
     1    1    4 1
     2    2    3 1
     3    3    9 1
     4    4   11 1
     5    5    7 1
     6    6    2 1
     7    7    1 1
     8    8    6 1
     9    9   13 1
    10   10    7 1
    11   11   10 1
    12   12    3 1
    13   13    6 1
    14   14   18 1
    15   15    9 1
    16   16   17 1
    17   17   12 1
    18   18    4 1
    19   19   11 1
    20   20   13 1
    21   21   15 1
    22   22   16 3
    23   23   11 1
    24   24    9 1
    25   25   20 1
    26   26    5 3
    27   27   18 1
    28   28   10 1
    29   29   14 1
    30   30   12 1
    31   31   29 3
    32   32   23 1
    33   33   19 1
    34   34    8 3
    35   35    6 1
    36   36    7 1
    37   37   10 1
    38   38   12 1
    39   39   13 1
    40   40   14 1
    41   41   14 1
    42   42   15 1
    43   43   15 1
    44   44   17 1
    45   45   17 1
    46   46   18 1
    47   47   19 1
    48   48   19 1
    49   49   20 1
    50   50   20 1
    51   51   21 1
    52   52   21 1
    53   53   23 1
    54   54   23 1
    55   55   24 1
    56   56   24 1
    57   57   25 1
    58   58   25 1
    59   59   27 1
    60   60   27 1
    61   61   28 1
    62   62   28 1
    63   63   30 1
    64   64   30 1
    65   65   32 1
    66   66   32 1
    67   67   33 1
    68   68   33 1
    69   21   30 1
    70   24   25 1
    71   27   32 1
    72   28   33 1
@<TRIPOS>SUBSTRUCTURE
     1 RES1 1
     2 RES2 2

@<TRIPOS>CRYSIN
  12.6100   12.4640   16.7630  90.0000 107.0100  90.0000 231 1

