# MOL2 file generated by ConQuest
# Please check atom types

@<TRIPOS>MOLECULE
EVAZEG
    68    72     2
SMALL
NO_CHARGES
****
Generated from CSD

@<TRIPOS>ATOM
      1 C1         9.7061    4.4451   10.8824 C.3       1 RES1    0.0000
      2 N1         8.8230    4.8446    9.7585 N.3       1 RES1    0.0000
      3 O1         9.1179    6.2684    9.6310 O.3       1 RES1    0.0000
      4 C2         9.1916    6.8043   10.9952 C.3       1 RES1    0.0000
      5 H1         8.3011    7.1029   11.2740 H         1 RES1    0.0000
      6 C3         9.6453    5.6303   11.8999 C.3       1 RES1    0.0000
      7 H2         8.9960    5.4562   12.6121 H         1 RES1    0.0000
      8 C4        11.0577    5.7239   12.4495 C.3       1 RES1    0.0000
      9 H3        11.1943    5.0808   13.1623 H         1 RES1    0.0000
     10 H4        11.2382    6.6143   12.7906 H         1 RES1    0.0000
     11 C5        11.9581    5.4047   11.2442 C.3       1 RES1    0.0000
     12 H5        12.1463    6.2089   10.7350 H         1 RES1    0.0000
     13 H6        12.7969    5.0171   11.5360 H         1 RES1    0.0000
     14 C6        11.1828    4.4189   10.4101 C.3       1 RES1    0.0000
     15 H7        11.5499    3.5276   10.5194 H         1 RES1    0.0000
     16 H8        11.2373    4.6604    9.4730 H         1 RES1    0.0000
     17 C7         9.3077    3.0707   11.4438 C.3       1 RES1    0.0000
     18 H9         9.6102    2.3845   10.8279 H         1 RES1    0.0000
     19 H10        9.7716    2.9331   12.2850 H         1 RES1    0.0000
     20 C8         7.8173    2.8947   11.6760 C.3       1 RES1    0.0000
     21 H11        7.6291    1.9726   11.9096 H         1 RES1    0.0000
     22 H12        7.5292    3.4593   12.4114 H         1 RES1    0.0000
     23 C9         7.0625    3.2711   10.4151 C.3       1 RES1    0.0000
     24 H13        6.1101    3.1690   10.5603 H         1 RES1    0.0000
     25 H14        7.3245    2.6831    9.6886 H         1 RES1    0.0000
     26 C10        7.3760    4.7222   10.0445 C.3       1 RES1    0.0000
     27 H15        7.1435    5.3073   10.7945 H         1 RES1    0.0000
     28 C11        6.6342    5.1884    8.7852 C.3       1 RES1    0.0000
     29 H16        6.8914    6.1003    8.5809 H         1 RES1    0.0000
     30 H17        6.8933    4.6295    8.0364 H         1 RES1    0.0000
     31 C12        5.1799    5.1248    8.9547 C.1       1 RES1    0.0000
     32 N2         4.0470    5.0639    9.1383 N.1       1 RES1    0.0000
     33 C13       10.0998    7.9652   10.9435 C.1       1 RES1    0.0000
     34 N3        10.7807    8.8817   10.9223 N.1       1 RES1    0.0000
     35 C14        2.2918    4.8027    3.0525 C.3       2 RES2    0.0000
     36 N4         3.5069    4.8024    3.9085 N.3       2 RES2    0.0000
     37 O2         3.7593    3.3750    4.0780 O.3       2 RES2    0.0000
     38 C15        3.5308    2.7534    2.7748 C.3       2 RES2    0.0000
     39 H18        4.3676    2.7449    2.2656 H         2 RES2    0.0000
     40 C16        2.4900    3.6296    2.0379 C.3       2 RES2    0.0000
     41 H19        2.8402    3.9545    1.1820 H         2 RES2    0.0000
     42 C17        1.1007    3.0202    1.8738 C.3       2 RES2    0.0000
     43 H20        1.1612    2.0990    1.5761 H         2 RES2    0.0000
     44 H21        0.5753    3.5239    1.2322 H         2 RES2    0.0000
     45 C18        0.4764    3.1007    3.2757 C.3       2 RES2    0.0000
     46 H22       -0.4920    3.1447    3.2209 H         2 RES2    0.0000
     47 H23        0.7257    2.3293    3.8082 H         2 RES2    0.0000
     48 C19        1.0458    4.3880    3.8810 C.3       2 RES2    0.0000
     49 H24        1.2963    4.2382    4.8062 H         2 RES2    0.0000
     50 H25        0.3778    5.0920    3.8546 H         2 RES2    0.0000
     51 C20        2.0812    6.1696    2.3977 C.3       2 RES2    0.0000
     52 H26        1.3804    6.0919    1.7322 H         2 RES2    0.0000
     53 H27        1.7760    6.7959    3.0740 H         2 RES2    0.0000
     54 C21        3.3234    6.7350    1.7357 C.3       2 RES2    0.0000
     55 H28        3.5748    6.1817    0.9795 H         2 RES2    0.0000
     56 H29        3.1445    7.6310    1.4106 H         2 RES2    0.0000
     57 C22        4.4511    6.7678    2.7492 C.3       2 RES2    0.0000
     58 H30        4.2087    7.3473    3.4885 H         2 RES2    0.0000
     59 H31        5.2508    7.1264    2.3343 H         2 RES2    0.0000
     60 C23        4.7326    5.3597    3.2740 C.3       2 RES2    0.0000
     61 H32        4.9839    4.7868    2.5183 H         2 RES2    0.0000
     62 C24        5.8588    5.3176    4.3165 C.3       2 RES2    0.0000
     63 H33        5.9204    4.4198    4.6780 H         2 RES2    0.0000
     64 H34        6.7016    5.5170    3.8769 H         2 RES2    0.0000
     65 C25        5.6659    6.2613    5.4212 C.1       2 RES2    0.0000
     66 N5         5.5267    7.0206    6.2700 N.1       2 RES2    0.0000
     67 C26        3.1248    1.3594    3.0781 C.1       2 RES2    0.0000
     68 N6         2.8284    0.2912    3.3606 N.1       2 RES2    0.0000
@<TRIPOS>BOND
     1    1    2 1
     2    2    3 1
     3    3    4 1
     4    4    5 1
     5    6    1 1
     6    7    6 1
     7    8    6 1
     8    9    8 1
     9   10    8 1
    10   11    8 1
    11   12   11 1
    12   13   11 1
    13   14    1 1
    14   15   14 1
    15   16   14 1
    16   17    1 1
    17   18   17 1
    18   19   17 1
    19   20   17 1
    20   21   20 1
    21   22   20 1
    22   23   20 1
    23   24   23 1
    24   25   23 1
    25   26    2 1
    26   27   26 1
    27   28   26 1
    28   29   28 1
    29   30   28 1
    30   31   28 1
    31   32   31 3
    32   33    4 1
    33   34   33 3
    34   35   36 1
    35   36   37 1
    36   37   38 1
    37   38   39 1
    38   40   35 1
    39   41   40 1
    40   42   40 1
    41   43   42 1
    42   44   42 1
    43   45   42 1
    44   46   45 1
    45   47   45 1
    46   48   35 1
    47   49   48 1
    48   50   48 1
    49   51   35 1
    50   52   51 1
    51   53   51 1
    52   54   51 1
    53   55   54 1
    54   56   54 1
    55   57   54 1
    56   58   57 1
    57   59   57 1
    58   60   36 1
    59   61   60 1
    60   62   60 1
    61   63   62 1
    62   64   62 1
    63   65   62 1
    64   66   65 3
    65   67   38 1
    66   68   67 3
    67    4    6 1
    68   11   14 1
    69   23   26 1
    70   38   40 1
    71   45   48 1
    72   57   60 1
@<TRIPOS>SUBSTRUCTURE
     1 RES1 1
     2 RES2 35

@<TRIPOS>CRYSIN
  28.1830    9.3620   18.7890  90.0000  98.4400  90.0000  15 1

