# MOL2 file generated by ConQuest
# Please check atom types

@<TRIPOS>MOLECULE
EVEHIX
    63    55     2
SMALL
NO_CHARGES
****
Generated from CSD

@<TRIPOS>ATOM
      1 O1        18.6508    3.0338    4.7845 O.2       1 RES1    0.0000
      2 O2        15.8742    1.7257    2.5853 O.2       1 RES1    0.0000
      3 O3        17.7838    6.1301    2.1532 O.3       1 RES1    0.0000
      4 O4        15.0990   13.1452    3.5216 O.3       1 RES1    0.0000
      5 N1        19.8424    2.1876    3.0562 N.am      1 RES1    0.0000
      6 N2        17.7120    1.1574    1.4036 N.am      1 RES1    0.0000
      7 N3        17.6106    7.5250    2.1018 N.2       1 RES1    0.0000
      8 C1        18.9751    1.4991    0.8615 C.ar      1 RES1    0.0000
      9 C2        19.2017    1.3052   -0.4979 C.ar      1 RES1    0.0000
     10 H1        18.5134    0.9913   -1.0392 H         1 RES1    0.0000
     11 C3        20.4152    1.5696   -1.0437 C.ar      1 RES1    0.0000
     12 H2        20.5423    1.4351   -1.9548 H         1 RES1    0.0000
     13 C4        21.4559    2.0320   -0.2823 C.ar      1 RES1    0.0000
     14 H3        22.2897    2.1851   -0.6657 H         1 RES1    0.0000
     15 C5        21.2476    2.2686    1.0744 C.ar      1 RES1    0.0000
     16 H4        21.9351    2.6150    1.5948 H         1 RES1    0.0000
     17 C6        20.0115    1.9892    1.6544 C.ar      1 RES1    0.0000
     18 C7        17.0543   -0.0742    0.9445 C.3       1 RES1    0.0000
     19 H5        16.4259   -0.3681    1.6084 H         1 RES1    0.0000
     20 H6        17.7147   -0.7562    0.8046 H         1 RES1    0.0000
     21 H7        16.5940    0.0990    0.1209 H         1 RES1    0.0000
     22 C8        16.9998    2.0026    2.1857 C.2       1 RES1    0.0000
     23 C9        17.6999    3.2758    2.5925 C.3       1 RES1    0.0000
     24 H8        18.1343    3.6620    1.8032 H         1 RES1    0.0000
     25 C10       18.7726    2.8489    3.5821 C.2       1 RES1    0.0000
     26 C11       20.9193    1.7861    3.9736 C.3       1 RES1    0.0000
     27 H9        20.5368    1.4351    4.7809 H         1 RES1    0.0000
     28 H10       21.4641    2.5485    4.1810 H         1 RES1    0.0000
     29 H11       21.4602    1.1103    3.5559 H         1 RES1    0.0000
     30 C12       16.5402    4.2249    3.0390 C.3       1 RES1    0.0000
     31 H12       15.8634    4.2604    2.3445 H         1 RES1    0.0000
     32 H13       16.1259    3.8754    3.8437 H         1 RES1    0.0000
     33 C13       17.0664    5.6058    3.3015 C.3       1 RES1    0.0000
     34 H14       17.6377    5.6136    4.0990 H         1 RES1    0.0000
     35 C14       15.9008    6.5866    3.4621 C.3       1 RES1    0.0000
     36 H15       15.1074    6.2925    2.9876 H         1 RES1    0.0000
     37 H16       15.6860    6.7502    4.3930 H         1 RES1    0.0000
     38 C15       16.5390    7.7744    2.8126 C.2       1 RES1    0.0000
     39 C16       16.1463    9.1688    3.0228 C.ar      1 RES1    0.0000
     40 C17       15.0146    9.4914    3.7517 C.ar      1 RES1    0.0000
     41 H17       14.5028    8.8085    4.1215 H         1 RES1    0.0000
     42 C18       14.6265   10.8003    3.9438 C.ar      1 RES1    0.0000
     43 H18       13.8581   10.9952    4.4300 H         1 RES1    0.0000
     44 C19       15.3856   11.8162    3.4116 C.ar      1 RES1    0.0000
     45 C20       16.5256   11.5086    2.6692 C.ar      1 RES1    0.0000
     46 H19       17.0418   12.1921    2.3048 H         1 RES1    0.0000
     47 C21       16.8854   10.2111    2.4771 C.ar      1 RES1    0.0000
     48 H20       17.6404   10.0178    1.9710 H         1 RES1    0.0000
     49 C22       13.8749   13.4973    4.1874 C.3       1 RES1    0.0000
     50 H21       13.7815   14.4530    4.2000 H         1 RES1    0.0000
     51 H22       13.8937   13.1664    5.0876 H         1 RES1    0.0000
     52 H23       13.1338   13.1092    3.7174 H         1 RES1    0.0000
     53 C23       17.1620    4.4012    3.4982 Du        2 SUP2    0.0000
     54 C24       16.4170    5.3074    2.5582 Du        2 SUP2    0.0000
     55 C25       15.8979    6.5538    3.4197 Du        2 SUP2    0.0000
     56 H24       16.5663    4.0439    4.1774 Du        2 SUP2    0.0000
     57 H25       17.8880    4.8728    3.9330 Du        2 SUP2    0.0000
     58 H26       15.6965    4.8496    2.0765 Du        2 SUP2    0.0000
     59 H27       14.9315    6.6188    3.3746 Du        2 SUP2    0.0000
     60 H28       16.1590    6.4579    4.3488 Du        2 SUP2    0.0000
     61 H29       18.1286    3.6728    1.8059 Du        2 SUP2    0.0000
     62 N4        17.2519    7.3208    1.8086 Du        2 SUP2    0.0000
     63 O5        17.3798    5.9229    1.6760 Du        2 SUP2    0.0000
@<TRIPOS>BOND
     1    1   25 2
     2    2   22 2
     3    3    7 1
     4    4   44 1
     5    5   17 1
     6    6    8 1
     7    7   38 2
     8    8    9 ar
     9    9   10 1
    10   11    9 ar
    11   12   11 1
    12   13   11 ar
    13   14   13 1
    14   15   13 ar
    15   16   15 1
    16   17    8 ar
    17   18    6 1
    18   19   18 1
    19   20   18 1
    20   21   18 1
    21   22    6 1
    22   23   22 1
    23   24   23 1
    24   25    5 1
    25   26    5 1
    26   27   26 1
    27   28   26 1
    28   29   26 1
    29   30   23 1
    30   31   30 1
    31   32   30 1
    32   33    3 1
    33   34   33 1
    34   35   33 1
    35   36   35 1
    36   37   35 1
    37   38   35 1
    38   39   38 1
    39   40   39 ar
    40   41   40 1
    41   42   40 ar
    42   43   42 1
    43   44   42 ar
    44   45   44 ar
    45   46   45 1
    46   47   39 ar
    47   48   47 1
    48   49    4 1
    49   50   49 1
    50   51   49 1
    51   52   49 1
    52   15   17 ar
    53   23   25 1
    54   30   33 1
    55   45   47 ar
@<TRIPOS>SUBSTRUCTURE
     1 RES1 1
     2 SUP2 53

@<TRIPOS>CRYSIN
  28.0041   15.4644    9.0350  90.0000  93.2350  90.0000  15 1

