# MOL2 file generated by ConQuest
# Please check atom types

@<TRIPOS>MOLECULE
EVETUV
    86    92     2
SMALL
NO_CHARGES
****
Generated from CSD

@<TRIPOS>ATOM
      1 O1        -2.0892    1.8818    7.5134 O.2       1 RES1    0.0000
      2 O2        -1.3629    1.5914    9.4687 O.2       1 RES1    0.0000
      3 N1        -1.1918    1.7630    8.2865 N.pl3     1 RES1    0.0000
      4 N2         1.6976    1.5428   -1.8511 N.3       1 RES1    0.0000
      5 N3         1.0539    1.7994    3.6571 N.2       1 RES1    0.0000
      6 C1         2.5632    0.8254    0.3656 C.ar      1 RES1    0.0000
      7 C2         2.3730    0.9200    1.7142 C.ar      1 RES1    0.0000
      8 C3         1.3490    1.7224    2.2633 C.ar      1 RES1    0.0000
      9 C4         0.5240    2.4371    1.3953 C.ar      1 RES1    0.0000
     10 C5         0.7226    2.3668    0.0296 C.ar      1 RES1    0.0000
     11 C6         0.0356    2.9396   -1.1029 C.ar      1 RES1    0.0000
     12 C7        -1.0173    3.7948   -1.2771 C.ar      1 RES1    0.0000
     13 C8        -1.5012    4.0758   -2.5480 C.ar      1 RES1    0.0000
     14 C9        -0.8850    3.5219   -3.6571 C.ar      1 RES1    0.0000
     15 C10        0.2127    2.6938   -3.5389 C.ar      1 RES1    0.0000
     16 C11        0.6785    2.3938   -2.2540 C.ar      1 RES1    0.0000
     17 C12        1.7398    1.5347   -0.4791 C.ar      1 RES1    0.0000
     18 C13        1.9759    1.6697    4.4987 C.2       1 RES1    0.0000
     19 C14        2.6647    0.9024   -2.7471 C.3       1 RES1    0.0000
     20 C15        3.8911    1.7332   -2.9245 C.3       1 RES1    0.0000
     21 C16        1.7012    1.7035    5.9547 C.ar      1 RES1    0.0000
     22 C17        0.4063    1.7562    6.4354 C.ar      1 RES1    0.0000
     23 C18        0.1965    1.7738    7.7840 C.ar      1 RES1    0.0000
     24 C19        1.2369    1.7522    8.6847 C.ar      1 RES1    0.0000
     25 C20        2.5264    1.7495    8.1962 C.ar      1 RES1    0.0000
     26 C21        2.7538    1.7089    6.8554 C.ar      1 RES1    0.0000
     27 O3         2.0657   11.9449    6.4494 O.2       2 RES2    0.0000
     28 O4         2.8208   11.8504    8.4467 O.2       2 RES2    0.0000
     29 N4         2.9784   11.9206    7.2427 N.pl3     2 RES2    0.0000
     30 N5         5.7649   12.2854   -2.9400 N.3       2 RES2    0.0000
     31 N6         5.1951   12.0949    2.5822 N.2       2 RES2    0.0000
     32 C22        6.6532   13.0729   -0.7233 C.ar      2 RES2    0.0000
     33 C23        6.4501   12.9838    0.6347 C.ar      2 RES2    0.0000
     34 C24        5.4629   12.1476    1.1869 C.ar      2 RES2    0.0000
     35 C25        4.6567   11.4100    0.3749 C.ar      2 RES2    0.0000
     36 C26        4.8300   11.4707   -1.0142 C.ar      2 RES2    0.0000
     37 C27        4.1268   10.8885   -2.1405 C.ar      2 RES2    0.0000
     38 C28        3.0703   10.0117   -2.2867 C.ar      2 RES2    0.0000
     39 C29        2.5875    9.7416   -3.5389 C.ar      2 RES2    0.0000
     40 C30        3.1576   10.3292   -4.6729 C.ar      2 RES2    0.0000
     41 C31        4.2233   11.1627   -4.5702 C.ar      2 RES2    0.0000
     42 C32        4.7222   11.4532   -3.3040 C.ar      2 RES2    0.0000
     43 C33        5.8220   12.3178   -1.5462 C.ar      2 RES2    0.0000
     44 C34        6.1025   12.2827    3.4269 C.2       2 RES2    0.0000
     45 C35        6.7161   12.9595   -3.8313 C.3       2 RES2    0.0000
     46 C36        7.9934   12.1935   -3.9869 C.3       2 RES2    0.0000
     47 C37        5.8448   12.2232    4.8705 C.ar      2 RES2    0.0000
     48 C38        4.5531   12.1111    5.3745 C.ar      2 RES2    0.0000
     49 C39        4.3630   12.0125    6.7325 C.ar      2 RES2    0.0000
     50 C40        5.3995   11.9706    7.6254 C.ar      2 RES2    0.0000
     51 C41        6.6969   12.0827    7.1447 C.ar      2 RES2    0.0000
     52 C42        6.9059   12.2057    5.7727 C.ar      2 RES2    0.0000
     53 H1         3.2413    0.2894    0.0218 H         1 RES1    0.0000
     54 H2         2.9305    0.4427    2.2859 H         1 RES1    0.0000
     55 H3        -0.1628    2.9634    1.7362 H         1 RES1    0.0000
     56 H4        -1.4137    4.1926   -0.5360 H         1 RES1    0.0000
     57 H5        -2.2364    4.6357   -2.6535 H         1 RES1    0.0000
     58 H6        -1.2202    3.7115   -4.5037 H         1 RES1    0.0000
     59 H7         0.6310    2.3447   -4.2918 H         1 RES1    0.0000
     60 H8         2.8490    1.5513    4.2034 H         1 RES1    0.0000
     61 H9         2.2498    0.7546   -3.6108 H         1 RES1    0.0000
     62 H10        2.9130    0.0385   -2.3827 H         1 RES1    0.0000
     63 H11        3.6472    2.5953   -3.2698 H         1 RES1    0.0000
     64 H12        4.4855    1.2986   -3.5408 H         1 RES1    0.0000
     65 H13        4.3311    1.8406   -2.0779 H         1 RES1    0.0000
     66 H14       -0.3136    1.7793    5.8463 H         1 RES1    0.0000
     67 H15        1.0745    1.7384    9.6005 H         1 RES1    0.0000
     68 H16        3.2444    1.7762    8.7866 H         1 RES1    0.0000
     69 H17        3.6283    1.6845    6.5383 H         1 RES1    0.0000
     70 H18        7.3193   13.6159   -1.0766 H         2 RES2    0.0000
     71 H19        6.9817   13.4907    1.2051 H         2 RES2    0.0000
     72 H20        3.9949   10.8680    0.7406 H         2 RES2    0.0000
     73 H21        2.6893    9.6085   -1.5395 H         2 RES2    0.0000
     74 H22        1.8698    9.1586   -3.6375 H         2 RES2    0.0000
     75 H23        2.7996   10.1451   -5.5110 H         2 RES2    0.0000
     76 H24        4.6121   11.5310   -5.3309 H         2 RES2    0.0000
     77 H25        6.9649   12.4637    3.1298 H         2 RES2    0.0000
     78 H26        6.9154   13.8391   -3.4751 H         2 RES2    0.0000
     79 H27        6.3073   13.0758   -4.7023 H         2 RES2    0.0000
     80 H28        8.4665   12.1853   -3.1516 H         2 RES2    0.0000
     81 H29        8.5372   12.6109   -4.6586 H         2 RES2    0.0000
     82 H30        7.7957   11.2912   -4.2509 H         2 RES2    0.0000
     83 H31        3.8235   12.1027    4.7977 H         2 RES2    0.0000
     84 H32        5.2383   11.8701    8.5349 H         2 RES2    0.0000
     85 H33        7.4185   12.0754    7.7316 H         2 RES2    0.0000
     86 H34        7.7755   12.2766    5.4515 H         2 RES2    0.0000
@<TRIPOS>BOND
     1    1    3 2
     2    2    3 2
     3    3   23 1
     4    4   16 1
     5    5    8 1
     6    6    7 ar
     7    7    8 ar
     8    8    9 ar
     9    9   10 ar
    10   10   11 1
    11   11   12 ar
    12   12   13 ar
    13   13   14 ar
    14   14   15 ar
    15   15   16 ar
    16   16   11 ar
    17   17    4 1
    18   18    5 2
    19   19    4 1
    20   20   19 1
    21   21   18 1
    22   22   21 ar
    23   23   22 ar
    24   24   23 ar
    25   25   24 ar
    26   26   21 ar
    27   27   29 2
    28   28   29 2
    29   29   49 1
    30   30   42 1
    31   31   34 1
    32   32   33 ar
    33   33   34 ar
    34   34   35 ar
    35   35   36 ar
    36   36   37 1
    37   37   38 ar
    38   38   39 ar
    39   39   40 ar
    40   40   41 ar
    41   41   42 ar
    42   42   37 ar
    43   43   30 1
    44   44   31 2
    45   45   30 1
    46   46   45 1
    47   47   44 1
    48   48   47 ar
    49   49   48 ar
    50   50   49 ar
    51   51   50 ar
    52   52   47 ar
    53   53    6 1
    54   54    7 1
    55   55    9 1
    56   56   12 1
    57   57   13 1
    58   58   14 1
    59   59   15 1
    60   60   18 1
    61   61   19 1
    62   62   19 1
    63   63   20 1
    64   64   20 1
    65   65   20 1
    66   66   22 1
    67   67   24 1
    68   68   25 1
    69   69   26 1
    70   70   32 1
    71   71   33 1
    72   72   35 1
    73   73   38 1
    74   74   39 1
    75   75   40 1
    76   76   41 1
    77   77   44 1
    78   78   45 1
    79   79   45 1
    80   80   46 1
    81   81   46 1
    82   82   46 1
    83   83   48 1
    84   84   50 1
    85   85   51 1
    86   86   52 1
    87    6   17 ar
    88   10   17 ar
    89   25   26 ar
    90   32   43 ar
    91   36   43 ar
    92   51   52 ar
@<TRIPOS>SUBSTRUCTURE
     1 RES1 1
     2 RES2 27

@<TRIPOS>CRYSIN
   8.1550   13.5093   16.0248  90.0000 103.8990  90.0000   4 1

