# MOL2 file generated by ConQuest
# Please check atom types

@<TRIPOS>MOLECULE
EVEXAE
    35    36     1
SMALL
NO_CHARGES
****
Generated from CSD

@<TRIPOS>ATOM
      1 O1        -2.5176   15.5601    8.5350 O.2       1 RES1    0.0000
      2 O2        -2.6526   17.9821    8.3398 O.3       1 RES1    0.0000
      3 O3        -1.4540   24.0416    8.5676 O.2       1 RES1    0.0000
      4 O4        -2.3581   22.6040    7.2179 O.2       1 RES1    0.0000
      5 O5        -0.2045   10.9046   12.1115 O.3       1 RES1    0.0000
      6 N1        -1.7773   22.8951    8.2633 N.pl3     1 RES1    0.0000
      7 C1        -1.7618   15.6744    9.5760 C.2       1 RES1    0.0000
      8 C2        -1.3795   16.9626   10.0299 C.2       1 RES1    0.0000
      9 C3        -1.8511   18.0876    9.3667 C.2       1 RES1    0.0000
     10 C4        -1.4705   19.4743    9.7376 C.ar      1 RES1    0.0000
     11 C5        -0.7682   19.7657   10.9101 C.ar      1 RES1    0.0000
     12 C6        -0.4076   21.0757   11.2105 C.ar      1 RES1    0.0000
     13 C7        -0.7410   22.1098   10.3486 C.ar      1 RES1    0.0000
     14 C8        -1.4431   21.8047    9.1962 C.ar      1 RES1    0.0000
     15 C9        -1.8180   20.5148    8.8675 C.ar      1 RES1    0.0000
     16 C10       -1.3349   14.4333   10.2367 C.ar      1 RES1    0.0000
     17 C11       -1.6408   13.2062    9.6283 C.ar      1 RES1    0.0000
     18 C12       -1.2787   12.0022   10.2178 C.ar      1 RES1    0.0000
     19 C13       -0.5974   12.0196   11.4353 C.ar      1 RES1    0.0000
     20 C14       -0.2758   13.2342   12.0513 C.ar      1 RES1    0.0000
     21 C15       -0.6452   14.4293   11.4605 C.ar      1 RES1    0.0000
     22 C16       -0.4711    9.6379   11.5044 C.3       1 RES1    0.0000
     23 H1        -2.7478   16.8338    8.2700 H         1 RES1    0.0000
     24 H2        -0.8003   17.0448   10.7811 H         1 RES1    0.0000
     25 H3        -0.5337   19.0619   11.5549 H         1 RES1    0.0000
     26 H4         0.0652   21.2948   12.0054 H         1 RES1    0.0000
     27 H5        -0.4867   23.0434   10.5059 H         1 RES1    0.0000
     28 H6        -2.3111   20.3294    8.0609 H         1 RES1    0.0000
     29 H7        -2.0867   13.1928    8.7818 H         1 RES1    0.0000
     30 H8        -1.4914   11.1517    9.7394 H         1 RES1    0.0000
     31 H9         0.1951   13.2375   12.9318 H         1 RES1    0.0000
     32 H10       -0.4298   15.2674   11.9333 H         1 RES1    0.0000
     33 H11       -1.4226    9.4878   11.3830 H         1 RES1    0.0000
     34 H12       -0.0264    9.5693   10.6357 H         1 RES1    0.0000
     35 H13       -0.0902    8.9731   12.1160 H         1 RES1    0.0000
@<TRIPOS>BOND
     1    1    7 2
     2    2    9 1
     3    3    6 2
     4    4    6 2
     5    5   19 1
     6    6   14 1
     7    7    8 1
     8    8    9 2
     9    9   10 1
    10   10   11 ar
    11   11   12 ar
    12   12   13 ar
    13   13   14 ar
    14   14   15 ar
    15   15   10 ar
    16   16    7 1
    17   17   16 ar
    18   18   17 ar
    19   19   18 ar
    20   20   19 ar
    21   21   16 ar
    22   22    5 1
    23   23    2 1
    24   24    8 1
    25   25   11 1
    26   26   12 1
    27   27   13 1
    28   28   15 1
    29   29   17 1
    30   30   18 1
    31   31   20 1
    32   32   21 1
    33   33   22 1
    34   34   22 1
    35   35   22 1
    36   20   21 ar
@<TRIPOS>SUBSTRUCTURE
     1 RES1 1

@<TRIPOS>CRYSIN
   7.1177   15.9835   12.2135  90.0000 100.3430  90.0000 231 1

