# MOL2 file generated by ConQuest
# Please check atom types

@<TRIPOS>MOLECULE
EVEXAE02
    35    36     1
SMALL
NO_CHARGES
****
Generated from CSD

@<TRIPOS>ATOM
      1 O1        -2.7003   15.6263    8.5906 O.2       1 RES1    0.0000
      2 O2        -2.7931   18.0626    8.3718 O.3       1 RES1    0.0000
      3 O3        -1.5970   24.1021    8.6337 O.2       1 RES1    0.0000
      4 O4        -2.4684   22.6806    7.2705 O.2       1 RES1    0.0000
      5 O5        -0.4317   10.9879   12.1849 O.3       1 RES1    0.0000
      6 N1        -1.9057   22.9618    8.3203 N.pl3     1 RES1    0.0000
      7 C1        -1.9503   15.7489    9.6308 C.2       1 RES1    0.0000
      8 C2        -1.5703   17.0313   10.0654 C.2       1 RES1    0.0000
      9 C3        -2.0022   18.1595    9.4011 C.2       1 RES1    0.0000
     10 C4        -1.6115   19.5409    9.7707 C.ar      1 RES1    0.0000
     11 C5        -0.9064   19.8309   10.9342 C.ar      1 RES1    0.0000
     12 C6        -0.5387   21.1280   11.2367 C.ar      1 RES1    0.0000
     13 C7        -0.8681   22.1600   10.3908 C.ar      1 RES1    0.0000
     14 C8        -1.5709   21.8655    9.2452 C.ar      1 RES1    0.0000
     15 C9        -1.9484   20.5874    8.9150 C.ar      1 RES1    0.0000
     16 C10       -1.5416   14.5099   10.3017 C.ar      1 RES1    0.0000
     17 C11       -1.8472   13.2815    9.7060 C.ar      1 RES1    0.0000
     18 C12       -1.4940   12.0904   10.2971 C.ar      1 RES1    0.0000
     19 C13       -0.8205   12.1005   11.5091 C.ar      1 RES1    0.0000
     20 C14       -0.5031   13.3105   12.1149 C.ar      1 RES1    0.0000
     21 C15       -0.8615   14.4998   11.5206 C.ar      1 RES1    0.0000
     22 C16       -0.6990    9.7196   11.5910 C.3       1 RES1    0.0000
     23 H1        -2.9008   16.8428    8.2611 H         1 RES1    0.0000
     24 H2        -1.0153   17.1187   10.7999 H         1 RES1    0.0000
     25 H3        -0.6590   19.1335   11.5365 H         1 RES1    0.0000
     26 H4        -0.0609   21.3808   12.0107 H         1 RES1    0.0000
     27 H5        -0.6441   23.0843   10.5471 H         1 RES1    0.0000
     28 H6        -2.4247   20.4183    8.1039 H         1 RES1    0.0000
     29 H7        -2.2936   13.2689    8.9094 H         1 RES1    0.0000
     30 H8        -1.7066   11.2606    9.8420 H         1 RES1    0.0000
     31 H9        -0.0392   13.3331   12.9626 H         1 RES1    0.0000
     32 H10       -0.6454   15.3398   11.9804 H         1 RES1    0.0000
     33 H11       -1.6633    9.6068   11.5269 H         1 RES1    0.0000
     34 H12       -0.2598    9.6197   10.7044 H         1 RES1    0.0000
     35 H13       -0.3110    9.0149   12.1679 H         1 RES1    0.0000
@<TRIPOS>BOND
     1    1    7 2
     2    2    9 1
     3    3    6 2
     4    4    6 2
     5    5   19 1
     6    6   14 1
     7    7    8 1
     8    8    9 2
     9    9   10 1
    10   10   11 ar
    11   11   12 ar
    12   12   13 ar
    13   13   14 ar
    14   14   15 ar
    15   15   10 ar
    16   16    7 1
    17   17   16 ar
    18   18   17 ar
    19   19   18 ar
    20   20   19 ar
    21   21   16 ar
    22   22    5 1
    23   23    2 1
    24   24    8 1
    25   25   11 1
    26   26   12 1
    27   27   13 1
    28   28   15 1
    29   29   17 1
    30   30   18 1
    31   31   20 1
    32   32   21 1
    33   33   22 1
    34   34   22 1
    35   35   22 1
    36   20   21 ar
@<TRIPOS>SUBSTRUCTURE
     1 RES1 1

@<TRIPOS>CRYSIN
   7.2913   16.0408   12.3333  90.0000 101.2730  90.0000 231 1

