# MOL2 file generated by ConQuest
# Please check atom types

@<TRIPOS>MOLECULE
EVEXAE01
    35    36     1
SMALL
NO_CHARGES
****
Generated from CSD

@<TRIPOS>ATOM
      1 O1        -2.5829   15.5842    8.5537 O.2       1 RES1    0.0000
      2 O2        -2.7029   18.0118    8.3505 O.3       1 RES1    0.0000
      3 O3        -1.5028   24.0653    8.5918 O.2       1 RES1    0.0000
      4 O4        -2.3963   22.6325    7.2370 O.2       1 RES1    0.0000
      5 O5        -0.2842   10.9358   12.1353 O.3       1 RES1    0.0000
      6 N1        -1.8210   22.9206    8.2834 N.pl3     1 RES1    0.0000
      7 C1        -1.8277   15.7018    9.5951 C.2       1 RES1    0.0000
      8 C2        -1.4454   16.9873   10.0419 C.2       1 RES1    0.0000
      9 C3        -1.9043   18.1160    9.3772 C.2       1 RES1    0.0000
     10 C4        -1.5188   19.4983    9.7494 C.ar      1 RES1    0.0000
     11 C5        -0.8162   19.7888   10.9176 C.ar      1 RES1    0.0000
     12 C6        -0.4512   21.0961   11.2194 C.ar      1 RES1    0.0000
     13 C7        -0.7862   22.1295   10.3631 C.ar      1 RES1    0.0000
     14 C8        -1.4866   21.8281    9.2130 C.ar      1 RES1    0.0000
     15 C9        -1.8641   20.5423    8.8837 C.ar      1 RES1    0.0000
     16 C10       -1.4074   14.4610   10.2605 C.ar      1 RES1    0.0000
     17 C11       -1.7141   13.2345    9.6564 C.ar      1 RES1    0.0000
     18 C12       -1.3548   12.0342   10.2447 C.ar      1 RES1    0.0000
     19 C13       -0.6765   12.0515   11.4598 C.ar      1 RES1    0.0000
     20 C14       -0.3548   13.2637   12.0731 C.ar      1 RES1    0.0000
     21 C15       -0.7222   14.4543   11.4817 C.ar      1 RES1    0.0000
     22 C16       -0.5507    9.6679   11.5341 C.3       1 RES1    0.0000
     23 H1        -2.7873   16.8130    8.2767 H         1 RES1    0.0000
     24 H2        -0.8691   17.0627   10.7852 H         1 RES1    0.0000
     25 H3        -0.5498   19.0937   11.5294 H         1 RES1    0.0000
     26 H4         0.0568   21.2960   12.0063 H         1 RES1    0.0000
     27 H5        -0.5229   23.0613   10.5106 H         1 RES1    0.0000
     28 H6        -2.3471   20.3677    8.0744 H         1 RES1    0.0000
     29 H7        -2.1897   13.2264    8.8391 H         1 RES1    0.0000
     30 H8        -1.5755   11.1890    9.7712 H         1 RES1    0.0000
     31 H9         0.1163   13.2568   12.9480 H         1 RES1    0.0000
     32 H10       -0.5136   15.2862   11.9472 H         1 RES1    0.0000
     33 H11       -1.5097    9.5117   11.4415 H         1 RES1    0.0000
     34 H12       -0.0932    9.5837   10.6683 H         1 RES1    0.0000
     35 H13       -0.1634    8.9883   12.1459 H         1 RES1    0.0000
@<TRIPOS>BOND
     1    1    7 2
     2    2    9 1
     3    3    6 2
     4    4    6 2
     5    5   19 1
     6    6   14 1
     7    7    8 1
     8    8    9 2
     9    9   10 1
    10   10   11 ar
    11   11   12 ar
    12   12   13 ar
    13   13   14 ar
    14   14   15 ar
    15   15   10 ar
    16   16    7 1
    17   17   16 ar
    18   18   17 ar
    19   19   18 ar
    20   20   19 ar
    21   21   16 ar
    22   22    5 1
    23   23    2 1
    24   24    8 1
    25   25   11 1
    26   26   12 1
    27   27   13 1
    28   28   15 1
    29   29   17 1
    30   30   18 1
    31   31   20 1
    32   32   21 1
    33   33   22 1
    34   34   22 1
    35   35   22 1
    36   20   21 ar
@<TRIPOS>SUBSTRUCTURE
     1 RES1 1

@<TRIPOS>CRYSIN
   7.1800   16.0048   12.2543  90.0000 100.6710  90.0000 231 1

