# MOL2 file generated by ConQuest
# Please check atom types

@<TRIPOS>MOLECULE
EVEZEK
   126   130     2
SMALL
NO_CHARGES
****
Generated from CSD

@<TRIPOS>ATOM
      1 C1         0.1152   14.1594    3.3540 C.ar      1 RES1    0.0000
      2 C2        -0.0615   15.2368    4.2120 C.ar      1 RES1    0.0000
      3 C3         0.0647   16.5382    3.6934 C.ar      1 RES1    0.0000
      4 H1        -0.0377   17.2620    4.2677 H         1 RES1    0.0000
      5 C4         0.3313   16.7725    2.3741 C.ar      1 RES1    0.0000
      6 C5         0.4865   15.6825    1.5177 C.ar      1 RES1    0.0000
      7 H2         0.6637   15.8293    0.6161 H         1 RES1    0.0000
      8 C6         0.3791   14.3781    1.9946 C.ar      1 RES1    0.0000
      9 C7        -0.3861   15.0735    5.6810 C.3       1 RES1    0.0000
     10 H3        -0.7580   14.1878    5.8203 H         1 RES1    0.0000
     11 H4        -1.0688   15.7181    5.9212 H         1 RES1    0.0000
     12 C8         0.7919   15.2499    6.6087 C.3       1 RES1    0.0000
     13 H5         1.4555   14.5701    6.4173 H         1 RES1    0.0000
     14 H6         1.1979   16.1173    6.4486 H         1 RES1    0.0000
     15 C9         0.3842   15.1539    8.0429 C.3       1 RES1    0.0000
     16 H7        -0.3153   15.8024    8.2170 H         1 RES1    0.0000
     17 H8         0.0151   14.2704    8.2065 H         1 RES1    0.0000
     18 C10        1.4659   15.3815    8.9532 C.3       1 RES1    0.0000
     19 H9         2.0814   14.6462    8.9097 H         1 RES1    0.0000
     20 H10        1.1226   15.4566    9.8478 H         1 RES1    0.0000
     21 H11        1.9184   16.1924    8.7165 H         1 RES1    0.0000
     22 C11        0.4110   18.1890    1.8328 C.3       1 RES1    0.0000
     23 H12       -0.4394   18.4375    1.4620 H         1 RES1    0.0000
     24 H13        1.0833   18.2316    1.1470 H         1 RES1    0.0000
     25 H14        0.6399   18.7911    2.5429 H         1 RES1    0.0000
     26 C12        0.6840   13.2692    0.8076 C.3       1 RES1    0.0000
     27 H15       -0.0183   12.5992    0.7867 H         1 RES1    0.0000
     28 H16        0.7172   13.7062   -0.0574 H         1 RES1    0.0000
     29 C13        0.0275   12.7483    3.8361 C.ar      1 RES1    0.0000
     30 C14       -1.1833   12.0340    3.7943 C.ar      1 RES1    0.0000
     31 H17       -1.9542   12.4541    3.4845 H         1 RES1    0.0000
     32 C15       -1.2400   10.7247    4.2033 C.ar      1 RES1    0.0000
     33 H18       -2.0509   10.2716    4.1563 H         1 RES1    0.0000
     34 C16       -0.1181   10.0539    4.6855 C.ar      1 RES1    0.0000
     35 C17        1.0822   10.7614    4.7168 C.ar      1 RES1    0.0000
     36 H19        1.8532   10.3397    5.0196 H         1 RES1    0.0000
     37 C18        1.1479   12.0898    4.3043 C.ar      1 RES1    0.0000
     38 H20        1.9594   12.5411    4.3461 H         1 RES1    0.0000
     39 C19       -0.1840    8.6257    5.0718 C.2       1 RES1    0.0000
     40 C20        1.0053    7.9594    5.6932 C.3       1 RES1    0.0000
     41 H21        0.7400    7.5232    6.5060 H         1 RES1    0.0000
     42 H22        1.6761    8.6190    5.8864 H         1 RES1    0.0000
     43 H23        1.3616    7.3094    5.0823 H         1 RES1    0.0000
     44 C21       -2.5746    6.0631    5.1154 C.ar      1 RES1    0.0000
     45 C22       -2.7449    4.6961    5.4112 C.ar      1 RES1    0.0000
     46 C23       -3.9870    4.0965    5.4321 C.ar      1 RES1    0.0000
     47 H24       -4.0762    3.1969    5.6549 H         1 RES1    0.0000
     48 C24       -5.0821    4.8489    5.1206 C.ar      1 RES1    0.0000
     49 C25       -4.9691    6.1957    4.7707 C.ar      1 RES1    0.0000
     50 H25       -5.7231    6.6880    4.5358 H         1 RES1    0.0000
     51 C26       -3.7414    6.7750    4.7794 C.ar      1 RES1    0.0000
     52 H26       -3.6683    7.6750    4.5549 H         1 RES1    0.0000
     53 N1        -1.3064    8.0343    4.8473 N.2       1 RES1    0.0000
     54 N2        -1.3725    6.6929    5.1658 N.pl3     1 RES1    0.0000
     55 H27       -0.6648    6.2629    5.3956 H         1 RES1    0.0000
     56 N3        -1.5988    3.8362    5.7037 N.pl3     1 RES1    0.0000
     57 N4        -6.4003    4.2321    5.1223 N.pl3     1 RES1    0.0000
     58 N5         7.0965    5.0249    2.0190 N.2       2 RES2    0.0000
     59 N6         7.1837    6.3415    1.6326 N.pl3     2 RES2    0.0000
     60 H28        6.4912    6.7593    1.3402 H         2 RES2    0.0000
     61 N7         7.4630    9.1849    1.0025 N.pl3     2 RES2    0.0000
     62 N8        12.2025    8.8162    1.9737 N.pl3     2 RES2    0.0000
     63 O1         1.8401   12.7069    1.0756 O.3       1 RES1    0.0000
     64 H29        1.7934   12.3143    1.7945 H         1 RES1    0.0000
     65 O2        -0.4670    4.2899    5.5749 O.2       1 RES1    0.0000
     66 O3        -1.8166    2.6872    6.0587 O.2       1 RES1    0.0000
     67 O4        -6.5164    3.1097    5.6201 O.2       1 RES1    0.0000
     68 O5        -7.3359    4.8508    4.6124 O.2       1 RES1    0.0000
     69 C27        5.6557   -1.0525    3.6429 C.ar      2 RES2    0.0000
     70 C28        5.5776   -1.3331    4.9987 C.ar      2 RES2    0.0000
     71 C29        5.5169   -2.6520    5.3956 C.ar      2 RES2    0.0000
     72 H30        5.4672   -2.8374    6.3059 H         2 RES2    0.0000
     73 C30        5.5241   -3.6946    4.5253 C.ar      2 RES2    0.0000
     74 C31        5.5938   -3.4010    3.1799 C.ar      2 RES2    0.0000
     75 H31        5.5907   -4.0969    2.5620 H         2 RES2    0.0000
     76 C32        5.6703   -2.0828    2.7239 C.ar      2 RES2    0.0000
     77 C33        5.6071   -0.1748    5.9891 C.3       2 RES2    0.0000
     78 H32        6.1670    0.5181    5.6079 H         2 RES2    0.0000
     79 H33        4.7077    0.1858    6.0396 H         2 RES2    0.0000
     80 C34        6.0593   -0.3965    7.3415 C.3       2 RES2    0.0000
     81 H34        6.9621   -0.7479    7.2980 H         2 RES2    0.0000
     82 H35        5.5008   -1.0882    7.7313 H         2 RES2    0.0000
     83 C35        6.0665    0.7558    8.2761 C.3       2 RES2    0.0000
     84 H36        6.6564    1.4333    7.9089 H         2 RES2    0.0000
     85 H37        5.1728    1.1336    8.2901 H         2 RES2    0.0000
     86 C36        6.4701    0.5138    9.6511 C.3       2 RES2    0.0000
     87 H38        5.7542    0.0825   10.1228 H         2 RES2    0.0000
     88 H39        6.6775    1.3487   10.0758 H         2 RES2    0.0000
     89 H40        7.2455   -0.0529    9.6616 H         2 RES2    0.0000
     90 C37        5.4782   -5.1233    5.0179 C.3       2 RES2    0.0000
     91 H41        6.3455   -5.3771    5.3434 H         2 RES2    0.0000
     92 H42        5.2239   -5.7032    4.2973 H         2 RES2    0.0000
     93 H43        4.8366   -5.1957    5.7280 H         2 RES2    0.0000
     94 C38        5.7885   -1.8006    1.2358 C.3       2 RES2    0.0000
     95 H44        6.5484   -1.2177    1.0756 H         2 RES2    0.0000
     96 H45        5.9404   -2.6316    0.7589 H         2 RES2    0.0000
     97 C39        5.7182    0.3769    3.1677 C.ar      2 RES2    0.0000
     98 C40        6.9480    1.0016    2.9502 C.ar      2 RES2    0.0000
     99 H46        7.7339    0.5192    3.0772 H         2 RES2    0.0000
    100 C41        7.0174    2.3109    2.5551 C.ar      2 RES2    0.0000
    101 H47        7.8492    2.7114    2.4454 H         2 RES2    0.0000
    102 C42        5.8691    3.0495    2.3131 C.ar      2 RES2    0.0000
    103 C43        4.6254    2.4168    2.5464 C.ar      2 RES2    0.0000
    104 H48        3.8361    2.8877    2.4089 H         2 RES2    0.0000
    105 C44        4.5756    1.1163    2.9711 C.ar      2 RES2    0.0000
    106 H49        3.7474    0.7234    3.1294 H         2 RES2    0.0000
    107 C45        5.9425    4.4617    1.8745 C.2       2 RES2    0.0000
    108 C46        4.7419    5.1528    1.2793 C.3       2 RES2    0.0000
    109 H50        4.4356    5.8354    1.8815 H         2 RES2    0.0000
    110 H51        4.0413    4.5120    1.1400 H         2 RES2    0.0000
    111 H52        4.9848    5.5504    0.4403 H         2 RES2    0.0000
    112 C47        8.3767    6.9663    1.7196 C.ar      2 RES2    0.0000
    113 C48        8.5633    8.3432    1.4063 C.ar      2 RES2    0.0000
    114 C49        9.8177    8.9394    1.4777 C.ar      2 RES2    0.0000
    115 H53        9.9273    9.8333    1.2462 H         2 RES2    0.0000
    116 C50       10.8840    8.1953    1.8902 C.ar      2 RES2    0.0000
    117 C51       10.7484    6.8523    2.2226 C.ar      2 RES2    0.0000
    118 H54       11.4894    6.3653    2.5029 H         2 RES2    0.0000
    119 C52        9.5309    6.2512    2.1391 C.ar      2 RES2    0.0000
    120 H55        9.4519    5.3520    2.3601 H         2 RES2    0.0000
    121 O6         4.5886   -1.1731    0.7415 O.3       2 RES2    0.0000
    122 H56        4.4927   -1.3560   -0.0522 H         2 RES2    0.0000
    123 O7         6.3424    8.6897    0.8894 O.2       2 RES2    0.0000
    124 O8         7.6693   10.3618    0.7571 O.2       2 RES2    0.0000
    125 O9        12.3297    9.9539    1.5386 O.2       2 RES2    0.0000
    126 O10       13.1026    8.1799    2.5081 O.2       2 RES2    0.0000
@<TRIPOS>BOND
     1    1    2 ar
     2    2    3 ar
     3    3    4 1
     4    5    3 ar
     5    6    5 ar
     6    7    6 1
     7    8    1 ar
     8    9    2 1
     9   10    9 1
    10   11    9 1
    11   12    9 1
    12   13   12 1
    13   14   12 1
    14   15   12 1
    15   16   15 1
    16   17   15 1
    17   18   15 1
    18   19   18 1
    19   20   18 1
    20   21   18 1
    21   22    5 1
    22   23   22 1
    23   24   22 1
    24   25   22 1
    25   26    8 1
    26   27   26 1
    27   28   26 1
    28   29    1 1
    29   30   29 ar
    30   31   30 1
    31   32   30 ar
    32   33   32 1
    33   34   32 ar
    34   35   34 ar
    35   36   35 1
    36   37   29 ar
    37   38   37 1
    38   39   34 1
    39   40   39 1
    40   41   40 1
    41   42   40 1
    42   43   40 1
    43   44   45 ar
    44   45   46 ar
    45   46   47 1
    46   48   46 ar
    47   49   48 ar
    48   50   49 1
    49   51   44 ar
    50   52   51 1
    51   53   39 2
    52   54   44 1
    53   55   54 1
    54   56   45 1
    55   57   48 1
    56   58   59 1
    57   59   60 1
    58   61  113 1
    59   62  116 1
    60   63   26 1
    61   64   63 1
    62   65   56 2
    63   66   56 2
    64   67   57 2
    65   68   57 2
    66   69   70 ar
    67   70   71 ar
    68   71   72 1
    69   73   71 ar
    70   74   73 ar
    71   75   74 1
    72   76   69 ar
    73   77   70 1
    74   78   77 1
    75   79   77 1
    76   80   77 1
    77   81   80 1
    78   82   80 1
    79   83   80 1
    80   84   83 1
    81   85   83 1
    82   86   83 1
    83   87   86 1
    84   88   86 1
    85   89   86 1
    86   90   73 1
    87   91   90 1
    88   92   90 1
    89   93   90 1
    90   94   76 1
    91   95   94 1
    92   96   94 1
    93   97   69 1
    94   98   97 ar
    95   99   98 1
    96  100   98 ar
    97  101  100 1
    98  102  100 ar
    99  103  102 ar
   100  104  103 1
   101  105   97 ar
   102  106  105 1
   103  107   58 2
   104  108  107 1
   105  109  108 1
   106  110  108 1
   107  111  108 1
   108  112   59 1
   109  113  112 ar
   110  114  113 ar
   111  115  114 1
   112  116  114 ar
   113  117  116 ar
   114  118  117 1
   115  119  112 ar
   116  120  119 1
   117  121   94 1
   118  122  121 1
   119  123   61 2
   120  124   61 2
   121  125   62 2
   122  126   62 2
   123    6    8 ar
   124   35   37 ar
   125   49   51 ar
   126   53   54 1
   127   74   76 ar
   128  102  107 1
   129  103  105 ar
   130  117  119 ar
@<TRIPOS>SUBSTRUCTURE
     1 RES1 1
     2 RES2 58

@<TRIPOS>CRYSIN
   9.7951   15.3104   18.4426 101.3620 104.8920  92.4280   2 1

