# MOL2 file generated by ConQuest
# Please check atom types

@<TRIPOS>MOLECULE
EVIGIZ
    19    20     1
SMALL
NO_CHARGES
****
Generated from CSD

@<TRIPOS>ATOM
      1 C1         3.2144    0.0525    2.6517 C.2       1 RES1    0.0000
      2 C2         2.3234    0.5524    1.5437 C.2       1 RES1    0.0000
      3 C3         1.0709   -0.2554    1.4812 C.3       1 RES1    0.0000
      4 H1         0.9578   -0.7790    0.6340 H         1 RES1    0.0000
      5 H2         0.2981    0.2921    1.6323 H         1 RES1    0.0000
      6 C4         1.2639   -1.2481    2.5966 C.ar      1 RES1    0.0000
      7 C5         2.4804   -1.0696    3.2515 C.ar      1 RES1    0.0000
      8 C6         2.8476   -1.9032    4.3067 C.ar      1 RES1    0.0000
      9 H3         3.6468   -1.7582    4.7103 H         1 RES1    0.0000
     10 C7         1.9919   -2.9008    4.6961 C.ar      1 RES1    0.0000
     11 H4         2.2092   -3.4894    5.4207 H         1 RES1    0.0000
     12 C8         0.7816   -3.0756    4.0470 C.ar      1 RES1    0.0000
     13 H5         0.2115   -3.7978    4.3483 H         1 RES1    0.0000
     14 C9         0.4076   -2.2543    3.0045 C.ar      1 RES1    0.0000
     15 H6        -0.4256   -2.3966    2.5361 H         1 RES1    0.0000
     16 N1         2.6879    1.5310    0.8134 N.2       1 RES1    0.0000
     17 O1         1.7323    1.8302   -0.1657 O.3       1 RES1    0.0000
     18 H7         2.1927    2.6401   -0.6160 H         1 RES1    0.0000
     19 O2         4.2973    0.5020    2.9617 O.2       1 RES1    0.0000
@<TRIPOS>BOND
     1    1    2 1
     2    2    3 1
     3    3    4 1
     4    5    3 1
     5    6    3 1
     6    7    1 1
     7    8    7 ar
     8    9    8 1
     9   10    8 ar
    10   11   10 1
    11   12   10 ar
    12   13   12 1
    13   14    6 ar
    14   15   14 1
    15   16    2 2
    16   17   16 1
    17   18   17 1
    18   19    1 2
    19    6    7 ar
    20   12   14 ar
@<TRIPOS>SUBSTRUCTURE
     1 RES1 1

@<TRIPOS>CRYSIN
   6.1690    5.4100   22.6060  90.0000  95.9700  90.0000 231 1

