# MOL2 file generated by ConQuest
# Please check atom types

@<TRIPOS>MOLECULE
EVIKIE
    37    35     2
SMALL
NO_CHARGES
****
Generated from CSD

@<TRIPOS>ATOM
      1 O1         4.6274   -0.0619   21.9222 O.3       1 RES1    0.0000
      2 O2         3.2322    1.3106   20.7806 O.3       1 RES1    0.0000
      3 O3         2.3962    3.4669   23.5895 O.3       1 RES1    0.0000
      4 O4         5.0003    1.8393   23.1844 O.3       1 RES1    0.0000
      5 O5         5.6746    3.8366   24.8652 O.3       1 RES1    0.0000
      6 H1         6.0272    3.1282   24.5378 H         1 RES1    0.0000
      7 O6         6.2751    5.5119   21.8701 O.2       1 RES1    0.0000
      8 O7         6.7736    6.5465   23.6739 O.2       1 RES1    0.0000
      9 N1         6.0120    5.9042   22.9885 N.pl3     1 RES1    0.0000
     10 C1         4.0844    0.8389   22.8366 C.3       1 RES1    0.0000
     11 H2         3.7701    0.3680   23.6360 H         1 RES1    0.0000
     12 C2         2.9466    1.5080   22.1442 C.3       1 RES1    0.0000
     13 H3         2.0735    1.1501   22.4091 H         1 RES1    0.0000
     14 C3         3.1116    2.9667   22.4792 C.3       1 RES1    0.0000
     15 H4         2.8840    3.5012   21.6903 H         1 RES1    0.0000
     16 C4         4.5683    3.1148   22.7589 C.3       1 RES1    0.0000
     17 H5         5.0702    3.4460   21.9849 H         1 RES1    0.0000
     18 C5         4.6195    4.0850   23.9642 C.3       1 RES1    0.0000
     19 C6         3.2778    3.8207   24.6355 C.3       1 RES1    0.0000
     20 H6         3.3533    3.0980   25.2795 H         1 RES1    0.0000
     21 H7         2.9623    4.6153   25.0940 H         1 RES1    0.0000
     22 C7         4.0946    0.1966   20.6237 C.3       1 RES1    0.0000
     23 C8         5.2076    0.5796   19.7115 C.3       1 RES1    0.0000
     24 H8         5.8740   -0.1112   19.7140 H         1 RES1    0.0000
     25 H9         5.5991    1.4027   20.0138 H         1 RES1    0.0000
     26 H10        4.8668    0.6942   18.8224 H         1 RES1    0.0000
     27 C9         3.3504   -1.0179   20.1662 C.3       1 RES1    0.0000
     28 H11        2.5725   -1.1425   20.7148 H         1 RES1    0.0000
     29 H12        3.9194   -1.7882   20.2373 H         1 RES1    0.0000
     30 H13        3.0818   -0.9033   19.2517 H         1 RES1    0.0000
     31 C10        4.6781    5.5587   23.5491 C.3       1 RES1    0.0000
     32 H14        3.9937    5.7344   22.8841 H         1 RES1    0.0000
     33 H15        4.4979    6.1183   24.3218 H         1 RES1    0.0000
     34 H16        2.7004    3.6175   21.8731 Du        2 SUP2    0.0000
     35 H17        3.4068    3.4460   25.5208 Du        2 SUP2    0.0000
     36 H18        2.7686    4.6420   24.7156 Du        2 SUP2    0.0000
     37 O8         2.6086    2.9007   23.7996 Du        2 SUP2    0.0000
@<TRIPOS>BOND
     1    1   10 1
     2    2   12 1
     3    3   14 1
     4    4   10 1
     5    5    6 1
     6    7    9 2
     7    8    9 2
     8    9   31 1
     9   10   11 1
    10   12   10 1
    11   13   12 1
    12   14   12 1
    13   15   14 1
    14   16    4 1
    15   17   16 1
    16   18    5 1
    17   19    3 1
    18   20   19 1
    19   21   19 1
    20   22    1 1
    21   23   22 1
    22   24   23 1
    23   25   23 1
    24   26   23 1
    25   27   22 1
    26   28   27 1
    27   29   27 1
    28   30   27 1
    29   31   18 1
    30   32   31 1
    31   33   31 1
    32    2   22 1
    33   14   16 1
    34   16   18 1
    35   18   19 1
@<TRIPOS>SUBSTRUCTURE
     1 RES1 1
     2 SUP2 34

@<TRIPOS>CRYSIN
   5.6329    8.3641   25.4014  90.0000  90.0000  90.0000  19 1

