# MOL2 file generated by ConQuest
# Please check atom types

@<TRIPOS>MOLECULE
EVIKUQ
    64    68     2
SMALL
NO_CHARGES
****
Generated from CSD

@<TRIPOS>ATOM
      1 O1         1.3462    8.7445    6.6346 O.2       1 RES1    0.0000
      2 O2         5.2349    5.1649    3.9363 O.2       1 RES1    0.0000
      3 N1         3.8192    6.0039    5.2542 N.3       1 RES1    0.0000
      4 N2         4.8341    5.2276    4.9636 N.2       1 RES1    0.0000
      5 N3         5.1203    8.4415    5.8464 N.3       1 RES1    0.0000
      6 H1         5.8958    8.1775    5.5842 H         1 RES1    0.0000
      7 C1         3.3840    5.9907    6.6476 C.3       1 RES1    0.0000
      8 H2         4.0930    5.5553    7.1649 H         1 RES1    0.0000
      9 C2         4.6132    8.2331    7.1994 C.3       1 RES1    0.0000
     10 H3         4.4111    9.1163    7.5715 H         1 RES1    0.0000
     11 C3         4.1777    9.1410    4.9887 C.3       1 RES1    0.0000
     12 H4         3.9288    9.9747    5.4390 H         1 RES1    0.0000
     13 C4         3.1823    6.8853    4.2381 C.3       1 RES1    0.0000
     14 H5         3.8457    7.0311    3.5327 H         1 RES1    0.0000
     15 C5         2.8847    8.2614    4.8624 C.3       1 RES1    0.0000
     16 H6         2.2395    8.7321    4.2940 H         1 RES1    0.0000
     17 C6         3.2793    7.4382    7.1549 C.3       1 RES1    0.0000
     18 H7         2.8978    7.4223    8.0576 H         1 RES1    0.0000
     19 C7         2.3342    8.1845    6.2530 C.2       1 RES1    0.0000
     20 C8         2.1261    5.1605    6.8310 C.ar      1 RES1    0.0000
     21 C9         1.1237    5.4908    7.7167 C.ar      1 RES1    0.0000
     22 H8         1.1861    6.2777    8.2089 H         1 RES1    0.0000
     23 C10        0.0318    4.6712    7.8849 C.ar      1 RES1    0.0000
     24 H9        -0.6295    4.9123    8.4917 H         1 RES1    0.0000
     25 C11       -0.1017    3.5177    7.1817 C.ar      1 RES1    0.0000
     26 H10       -0.8474    2.9737    7.2979 H         1 RES1    0.0000
     27 C12        0.8839    3.1742    6.3027 C.ar      1 RES1    0.0000
     28 H11        0.8076    2.3855    5.8166 H         1 RES1    0.0000
     29 C13        1.9834    3.9717    6.1238 C.ar      1 RES1    0.0000
     30 H12        2.6437    3.7156    5.5200 H         1 RES1    0.0000
     31 C14        1.9945    6.1876    3.5893 C.ar      1 RES1    0.0000
     32 C15        0.6895    6.4128    3.9424 C.ar      1 RES1    0.0000
     33 H13        0.4943    7.0390    4.6013 H         1 RES1    0.0000
     34 C16       -0.3397    5.7213    3.3294 C.ar      1 RES1    0.0000
     35 H14       -1.2185    5.8688    3.5954 H         1 RES1    0.0000
     36 C17       -0.0696    4.8240    2.3373 C.ar      1 RES1    0.0000
     37 H15       -0.7663    4.3797    1.9108 H         1 RES1    0.0000
     38 C18        1.2187    4.5785    1.9735 C.ar      1 RES1    0.0000
     39 H16        1.4060    3.9593    1.3040 H         1 RES1    0.0000
     40 C19        2.2438    5.2550    2.6033 C.ar      1 RES1    0.0000
     41 H17        3.1227    5.0766    2.3587 H         1 RES1    0.0000
     42 C20        4.7742    9.5022    3.6495 C.ar      1 RES1    0.0000
     43 C21        4.2192   10.5559    2.9412 C.ar      1 RES1    0.0000
     44 H18        3.4869   11.0116    3.2882 H         1 RES1    0.0000
     45 C22        4.7516   10.9339    1.7182 C.ar      1 RES1    0.0000
     46 H19        4.3684   11.6325    1.2382 H         1 RES1    0.0000
     47 C23        5.8389   10.2768    1.2183 C.ar      1 RES1    0.0000
     48 H20        6.2069   10.5382    0.4051 H         1 RES1    0.0000
     49 C24        6.3922    9.2267    1.9188 C.ar      1 RES1    0.0000
     50 H21        7.1359    8.7824    1.5791 H         1 RES1    0.0000
     51 C25        5.8444    8.8328    3.1232 C.ar      1 RES1    0.0000
     52 H22        6.2055    8.1077    3.5801 H         1 RES1    0.0000
     53 C26        5.6350    7.5884    8.1071 C.ar      1 RES1    0.0000
     54 C27        5.5243    7.7880    9.4793 C.ar      1 RES1    0.0000
     55 H23        4.8613    8.3523    9.8049 H         1 RES1    0.0000
     56 C28        6.3705    7.1697   10.3598 C.ar      1 RES1    0.0000
     57 H24        6.2702    7.3022   11.2754 H         1 RES1    0.0000
     58 C29        7.3608    6.3599    9.8889 C.ar      1 RES1    0.0000
     59 H25        7.9425    5.9430   10.4836 H         1 RES1    0.0000
     60 C30        7.5025    6.1567    8.5422 C.ar      1 RES1    0.0000
     61 H26        8.1822    5.6056    8.2258 H         1 RES1    0.0000
     62 C31        6.6388    6.7688    7.6510 C.ar      1 RES1    0.0000
     63 H27        6.7383    6.6248    6.7384 H         1 RES1    0.0000
     64 O3         5.4327    4.6209    5.2877 Du        2 SUP2    0.0000
@<TRIPOS>BOND
     1    1   19 2
     2    2    4 2
     3    3    4 1
     4    5    6 1
     5    7    3 1
     6    8    7 1
     7    9    5 1
     8   10    9 1
     9   11    5 1
    10   12   11 1
    11   13    3 1
    12   14   13 1
    13   15   11 1
    14   16   15 1
    15   17    7 1
    16   18   17 1
    17   19   15 1
    18   20    7 1
    19   21   20 ar
    20   22   21 1
    21   23   21 ar
    22   24   23 1
    23   25   23 ar
    24   26   25 1
    25   27   25 ar
    26   28   27 1
    27   29   20 ar
    28   30   29 1
    29   31   13 1
    30   32   31 ar
    31   33   32 1
    32   34   32 ar
    33   35   34 1
    34   36   34 ar
    35   37   36 1
    36   38   36 ar
    37   39   38 1
    38   40   31 ar
    39   41   40 1
    40   42   11 1
    41   43   42 ar
    42   44   43 1
    43   45   43 ar
    44   46   45 1
    45   47   45 ar
    46   48   47 1
    47   49   47 ar
    48   50   49 1
    49   51   42 ar
    50   52   51 1
    51   53    9 1
    52   54   53 ar
    53   55   54 1
    54   56   54 ar
    55   57   56 1
    56   58   56 ar
    57   59   58 1
    58   60   58 ar
    59   61   60 1
    60   62   53 ar
    61   63   62 1
    62    9   17 1
    63   13   15 1
    64   17   19 1
    65   27   29 ar
    66   38   40 ar
    67   49   51 ar
    68   60   62 ar
@<TRIPOS>SUBSTRUCTURE
     1 RES1 1
     2 SUP2 64

@<TRIPOS>CRYSIN
  18.7230    8.8319   15.8060  90.0000 104.7280  90.0000  14 1

