# MOL2 file generated by ConQuest
# Please check atom types

@<TRIPOS>MOLECULE
EVINOM01
    34    36     1
SMALL
NO_CHARGES
****
Generated from CSD

@<TRIPOS>ATOM
      1 O1         4.0792   -0.1309    1.6904 O.2       1 RES1    0.0000
      2 O2        -0.1277    5.3624   -2.8488 O.2       1 RES1    0.0000
      3 O3         0.3193    6.9868   -1.5198 O.2       1 RES1    0.0000
      4 N1         3.2026    2.2579    1.4624 N.pl3     1 RES1    0.0000
      5 H1         3.4632    1.1829    1.2476 H         1 RES1    0.0000
      6 N2         0.3973    5.8134   -1.8464 N.pl3     1 RES1    0.0000
      7 C1         4.4479    1.5216    3.3798 C.2       1 RES1    0.0000
      8 C2         4.5750    0.2092    2.8354 C.2       1 RES1    0.0000
      9 C3         5.2520   -0.7911    3.6135 C.2       1 RES1    0.0000
     10 H2         5.3115   -1.6606    3.2891 H         1 RES1    0.0000
     11 C4         5.8038   -0.4887    4.8089 C.2       1 RES1    0.0000
     12 H3         6.2524   -1.1548    5.2784 H         1 RES1    0.0000
     13 C5         5.7221    0.8133    5.3737 C.ar      1 RES1    0.0000
     14 C6         6.3055    1.0846    6.6236 C.ar      1 RES1    0.0000
     15 H4         6.7227    0.4000    7.0954 H         1 RES1    0.0000
     16 C7         6.2671    2.3578    7.1589 C.ar      1 RES1    0.0000
     17 H5         6.6668    2.5308    7.9800 H         1 RES1    0.0000
     18 C8         5.6365    3.3662    6.4738 C.ar      1 RES1    0.0000
     19 H6         5.6104    4.2231    6.8345 H         1 RES1    0.0000
     20 C9         5.0412    3.1230    5.2535 C.ar      1 RES1    0.0000
     21 H7         4.6227    3.8231    4.8066 H         1 RES1    0.0000
     22 C10        5.0504    1.8410    4.6637 C.ar      1 RES1    0.0000
     23 C11        3.7451    2.4834    2.6494 C.2       1 RES1    0.0000
     24 H8         3.6537    3.3322    3.0169 H         1 RES1    0.0000
     25 C12        2.5218    3.1895    0.6782 C.ar      1 RES1    0.0000
     26 C13        1.9339    2.7141   -0.4990 C.ar      1 RES1    0.0000
     27 H9         2.0131    1.8158   -0.7259 H         1 RES1    0.0000
     28 C14        1.2431    3.5666   -1.3202 C.ar      1 RES1    0.0000
     29 H10        0.8367    3.2472   -2.0914 H         1 RES1    0.0000
     30 C15        1.1559    4.9085   -0.9867 C.ar      1 RES1    0.0000
     31 C16        1.7456    5.4031    0.1565 C.ar      1 RES1    0.0000
     32 H11        1.6759    6.3058    0.3697 H         1 RES1    0.0000
     33 C17        2.4348    4.5521    0.9777 C.ar      1 RES1    0.0000
     34 H12        2.8487    4.8833    1.7421 H         1 RES1    0.0000
@<TRIPOS>BOND
     1    1    8 2
     2    2    6 2
     3    3    6 2
     4    4    5 1
     5    6   30 1
     6    7    8 1
     7    8    9 1
     8    9   10 1
     9   11    9 2
    10   12   11 1
    11   13   11 1
    12   14   13 ar
    13   15   14 1
    14   16   14 ar
    15   17   16 1
    16   18   16 ar
    17   19   18 1
    18   20   18 ar
    19   21   20 1
    20   22    7 1
    21   23    4 1
    22   24   23 1
    23   25    4 1
    24   26   25 ar
    25   27   26 1
    26   28   26 ar
    27   29   28 1
    28   30   28 ar
    29   31   30 ar
    30   32   31 1
    31   33   25 ar
    32   34   33 1
    33    7   23 2
    34   13   22 ar
    35   20   22 ar
    36   31   33 ar
@<TRIPOS>SUBSTRUCTURE
     1 RES1 1

@<TRIPOS>CRYSIN
   8.0192    7.3934   22.7144  90.0000  92.9940  90.0000  14 1

