# MOL2 file generated by ConQuest
# Please check atom types

@<TRIPOS>MOLECULE
EVIQEF
    44    45     1
SMALL
USER_CHARGES
****
Generated from CSD

@<TRIPOS>ATOM
      1 O1        -0.7881    5.2364    2.0771 O.3       1 RES1    0.0000
      2 N1        -0.7286    6.2178    1.0119 N.pl3     1 RES1    1.0000
      3 O2        -0.3670    5.8558   -0.0893 O.2       1 RES1   -1.0000
      4 N2        -1.2260    5.8750    3.2339 N.2       1 RES1    0.0000
      5 O3        -2.6004    6.8142    5.4648 O.2       1 RES1    0.0000
      6 N3        -1.8825    8.0998    3.7171 N.am      1 RES1    0.0000
      7 H1        -1.8941    8.9292    3.5533 H         1 RES1    0.0000
      8 O4        -2.4465   10.6520    4.0195 O.2       1 RES1    0.0000
      9 N4        -3.0654    9.0192    5.4931 N.am      1 RES1    0.0000
     10 H2        -3.6027    8.8168    6.2348 H         1 RES1    0.0000
     11 O5        -3.7548   11.0764    5.7872 O.3       1 RES1    0.0000
     12 N5        -1.2835    8.5933    0.9083 N.2       1 RES1    0.0000
     13 N6        -0.9493    8.6159   -0.3119 N.2       1 RES1    0.0000
     14 C1        -1.1440    7.3727    1.5291 C.2       1 RES1    0.0000
     15 C2        -1.4304    7.1076    2.8988 C.2       1 RES1    0.0000
     16 C3        -1.0768    9.8080   -1.0075 C.ar      1 RES1    0.0000
     17 C4        -0.6858    9.6918   -2.3719 C.ar      1 RES1    0.0000
     18 C5        -0.7432   10.7820   -3.1674 C.ar      1 RES1    0.0000
     19 H3        -0.4580   10.6956   -4.0485 H         1 RES1    0.0000
     20 C6        -1.2028   12.0295   -2.7499 C.ar      1 RES1    0.0000
     21 C7        -1.5786   12.1086   -1.4171 C.ar      1 RES1    0.0000
     22 H4        -1.8803   12.9291   -1.1010 H         1 RES1    0.0000
     23 C8        -1.5351   11.0507   -0.5268 C.ar      1 RES1    0.0000
     24 C9        -0.1929    8.3737   -2.9093 C.3       1 RES1    0.0000
     25 H5         0.0255    8.4695   -3.8404 H         1 RES1    0.0000
     26 H6        -0.8796    7.7098   -2.8092 H         1 RES1    0.0000
     27 H7         0.5888    8.1016   -2.4233 H         1 RES1    0.0000
     28 C10       -1.2926   13.2169   -3.6666 C.3       1 RES1    0.0000
     29 H8        -1.6438   13.9685   -3.1832 H         1 RES1    0.0000
     30 H9        -1.8728   13.0092   -4.4028 H         1 RES1    0.0000
     31 H10       -0.4174   13.4302   -3.9985 H         1 RES1    0.0000
     32 C11       -1.9581   11.2854    0.8982 C.3       1 RES1    0.0000
     33 H11       -2.2326   12.1991    1.0049 H         1 RES1    0.0000
     34 H12       -1.2204   11.1027    1.4843 H         1 RES1    0.0000
     35 H13       -2.6901   10.7039    1.1142 H         1 RES1    0.0000
     36 C12       -2.5146    7.8801    4.9283 C.2       1 RES1    0.0000
     37 C13       -3.0197   10.2975    5.0350 C.2       1 RES1    0.0000
     38 C14       -3.8702   12.4815    5.4301 C.3       1 RES1    0.0000
     39 H14       -3.4924   12.6265    4.5490 H         1 RES1    0.0000
     40 H15       -4.8057   12.7365    5.4037 H         1 RES1    0.0000
     41 C15       -3.1677   13.2983    6.4033 C.3       1 RES1    0.0000
     42 H16       -3.2580   14.2243    6.1702 H         1 RES1    0.0000
     43 H17       -2.2377   13.0589    6.4112 H         1 RES1    0.0000
     44 H18       -3.5419   13.1499    7.2752 H         1 RES1    0.0000
@<TRIPOS>BOND
     1    1    2 1
     2    2    3 1
     3    4    1 1
     4    5   36 2
     5    6    7 1
     6    8   37 2
     7    9   10 1
     8   11   37 1
     9   12   13 2
    10   13   16 1
    11   14    2 2
    12   15    4 2
    13   16   17 ar
    14   17   18 ar
    15   18   19 1
    16   20   18 ar
    17   21   20 ar
    18   22   21 1
    19   23   16 ar
    20   24   17 1
    21   25   24 1
    22   26   24 1
    23   27   24 1
    24   28   20 1
    25   29   28 1
    26   30   28 1
    27   31   28 1
    28   32   23 1
    29   33   32 1
    30   34   32 1
    31   35   32 1
    32   36    6 1
    33   37    9 1
    34   38   11 1
    35   39   38 1
    36   40   38 1
    37   41   38 1
    38   42   41 1
    39   43   41 1
    40   44   41 1
    41    6   15 1
    42    9   36 1
    43   12   14 1
    44   14   15 1
    45   21   23 ar
@<TRIPOS>SUBSTRUCTURE
     1 RES1 1

@<TRIPOS>CRYSIN
   7.3000    9.4480   13.5550  99.7000  96.0000 108.3700   2 1

