# MOL2 file generated by ConQuest
# Please check atom types

@<TRIPOS>MOLECULE
EVIXEM
    34    34     2
SMALL
NO_CHARGES
****
Generated from CSD

@<TRIPOS>ATOM
      1 N1         2.5980   -1.3987    1.1041 N.3       1 RES1    0.0000
      2 N2         1.4008    4.1645    0.1328 N.3       2 RES2    0.0000
      3 N3         2.5019   -2.1111    2.2538 N.2       1 RES1    0.0000
      4 N4         1.2369    5.2908   -0.6117 N.2       2 RES2    0.0000
      5 N5         0.7278   -3.3984    3.2036 N.pl3     1 RES1    0.0000
      6 N6         2.0744    7.5145   -0.3729 N.pl3     2 RES2    0.0000
      7 N7         0.5674   -2.2250    1.0692 N.2       1 RES1    0.0000
      8 N8         2.5811    5.6915    1.1765 N.2       2 RES2    0.0000
      9 N9         1.1763   -0.8761   -0.7781 N.am      1 RES1    0.0000
     10 N10        2.5210    3.5464    2.1827 N.am      2 RES2    0.0000
     11 C1         1.2770   -2.5629    2.1545 C.2       1 RES1    0.0000
     12 C2         1.9680    6.1329    0.0711 C.2       2 RES2    0.0000
     13 C3         1.4502   -1.4733    0.4159 C.2       1 RES1    0.0000
     14 C4         2.1870    4.4291    1.1859 C.2       2 RES2    0.0000
     15 C5         2.0720   -0.1545   -1.5092 C.2       1 RES1    0.0000
     16 C6         2.0850    2.2551    2.2578 C.2       2 RES2    0.0000
     17 C7         1.6058    0.3156   -2.8414 C.3       1 RES1    0.0000
     18 C8         2.4813    1.4995    3.4732 C.3       2 RES2    0.0000
     19 O1         1.5139   -3.8437    4.0219 O.2       1 RES1    0.0000
     20 O2         1.6047    7.7960   -1.4462 O.2       2 RES2    0.0000
     21 O3        -0.4736   -3.5922    3.1982 O.2       1 RES1    0.0000
     22 O4         2.6176    8.3016    0.3662 O.2       2 RES2    0.0000
     23 O5         3.1828    0.0629   -1.0692 O.2       1 RES1    0.0000
     24 O6         1.4022    1.7784    1.3657 O.2       2 RES2    0.0000
     25 H1         3.3189   -1.0215    0.8586 H         1 RES1    0.0000
     26 H2         0.9868    3.4442   -0.0537 H         2 RES2    0.0000
     27 H3         0.4579   -1.0739   -1.1269 H         1 RES1    0.0000
     28 H4         3.0248    3.8371    2.8172 H         2 RES2    0.0000
     29 H5         0.7402   -0.4020   -3.0225 H         1 RES1    0.0000
     30 H6         2.8413    2.0849    4.0997 H         2 RES2    0.0000
     31 H7         2.2204    0.0288   -3.5135 H         1 RES1    0.0000
     32 H8         3.1165    0.8591    3.2465 H         2 RES2    0.0000
     33 H9         1.5557    1.2703   -2.8414 H         1 RES1    0.0000
     34 H10        1.7336    1.0804    3.8354 H         2 RES2    0.0000
@<TRIPOS>BOND
     1    1    3 1
     2    2    4 1
     3    3   11 2
     4    4   12 2
     5    5   11 1
     6    6   12 1
     7    7   11 1
     8    8   12 1
     9    9   13 1
    10   10   14 1
    11   13    1 1
    12   14    2 1
    13   15    9 1
    14   16   10 1
    15   17   15 1
    16   18   16 1
    17   19    5 2
    18   20    6 2
    19   21    5 2
    20   22    6 2
    21   23   15 2
    22   24   16 2
    23   25    1 1
    24   26    2 1
    25   27    9 1
    26   28   10 1
    27   29   17 1
    28   30   18 1
    29   31   17 1
    30   32   18 1
    31   33   17 1
    32   34   18 1
    33    7   13 2
    34    8   14 2
@<TRIPOS>SUBSTRUCTURE
     1 RES1 1
     2 RES2 2

@<TRIPOS>CRYSIN
   8.2079   13.0960   13.6500  90.0000 100.6400  90.0000  14 1

