# MOL2 file generated by ConQuest
# Please check atom types

@<TRIPOS>MOLECULE
EVIYEN
    15    17     1
SMALL
NO_CHARGES
****
Generated from CSD

@<TRIPOS>ATOM
      1 O1         0.2720    2.0294    0.8858 O.3       1 RES1    0.0000
      2 C1        -0.6992    0.5929    2.4962 C.ar      1 RES1    0.0000
      3 N1        -1.8579    1.4547    2.5897 N.pl3     1 RES1    0.0000
      4 C2        -0.6713   -0.5261    3.3163 C.ar      1 RES1    0.0000
      5 C3         0.3558   -1.4270    3.1988 C.ar      1 RES1    0.0000
      6 C4         0.3403    0.8719    1.5905 C.ar      1 RES1    0.0000
      7 C5         1.3825   -1.1771    2.2832 C.ar      1 RES1    0.0000
      8 C6         1.3864   -0.0356    1.5009 C.ar      1 RES1    0.0000
      9 C7         2.3877   -2.2452    2.3329 C.3       1 RES1    0.0000
     10 O2        -2.2488    2.0585    1.6123 O.2       1 RES1    0.0000
     11 C8         0.5425   -2.7771    3.8696 C.3       1 RES1    0.0000
     12 C9         1.8872   -3.2464    3.3640 C.3       1 RES1    0.0000
     13 C10        1.3582    2.3208    0.0020 C.3       1 RES1    0.0000
     14 O3        -2.4484    1.5128    3.6387 O.2       1 RES1    0.0000
     15 C11        3.0530   -2.4145    3.6686 C.3       1 RES1    0.0000
@<TRIPOS>BOND
     1    1    6 1
     2    2    3 1
     3    3   10 2
     4    4    2 ar
     5    5    4 ar
     6    6    2 ar
     7    7    5 ar
     8    8    6 ar
     9    9    7 1
    10   11    5 1
    11   12    9 1
    12   13    1 1
    13   14    3 2
    14   15    9 1
    15    7    8 ar
    16   11   12 1
    17   12   15 1
@<TRIPOS>SUBSTRUCTURE
     1 RES1 1

@<TRIPOS>CRYSIN
   6.8090    7.2660   19.9660  90.0000  94.4600  90.0000 231 1

