# MOL2 file generated by ConQuest
# Please check atom types

@<TRIPOS>MOLECULE
EVODUQ
    43    46     1
SMALL
USER_CHARGES
****
Generated from CSD

@<TRIPOS>ATOM
      1 C1         5.6739    7.3293    7.8934 C.ar      1 RES1    0.0000
      2 C2         5.7707    6.2951    6.9709 C.ar      1 RES1    0.0000
      3 H1         6.2946    6.3872    6.2090 H         1 RES1    0.0000
      4 C3         5.0727    5.1267    7.2081 C.ar      1 RES1    0.0000
      5 H2         5.1074    4.4234    6.6008 H         1 RES1    0.0000
      6 C4         4.3272    5.0214    8.3568 C.ar      1 RES1    0.0000
      7 H3         3.8662    4.2384    8.5529 H         1 RES1    0.0000
      8 C5         4.2765    6.1007    9.2145 C.ar      1 RES1    0.0000
      9 H4         3.7624    6.0256    9.9862 H         1 RES1    0.0000
     10 C6         6.4872    8.6045    7.7552 C.3       1 RES1    0.0000
     11 H5         6.4555    9.0737    8.6148 H         1 RES1    0.0000
     12 C7         7.9456    8.3199    7.4364 C.ar      1 RES1    0.0000
     13 C8         8.8287    8.0977    8.4785 C.ar      1 RES1    0.0000
     14 H6         8.5458    8.1518    9.3625 H         1 RES1    0.0000
     15 C9        10.1415    7.7926    8.1719 C.ar      1 RES1    0.0000
     16 H7        10.7579    7.6333    8.8497 H         1 RES1    0.0000
     17 C10       10.5255    7.7276    6.8573 C.ar      1 RES1    0.0000
     18 H8        11.4029    7.5243    6.6258 H         1 RES1    0.0000
     19 C11        9.5787    7.9701    5.8896 C.ar      1 RES1    0.0000
     20 H9         9.8434    7.9264    4.9996 H         1 RES1    0.0000
     21 C12        5.8482   11.2261    5.4689 C.2       1 RES1    0.0000
     22 H10        5.9928   12.0659    5.0965 H         1 RES1    0.0000
     23 C13        4.9913   10.2370    4.9886 C.2       1 RES1    0.0000
     24 C14        4.1174   10.3017    3.8144 C.ar      1 RES1    0.0000
     25 C15        4.1320   11.4200    3.0004 C.ar      1 RES1    0.0000
     26 H11        4.7183   12.1167    3.1875 H         1 RES1    0.0000
     27 C16        3.2859   11.5131    1.9130 C.ar      1 RES1    0.0000
     28 H12        3.3059   12.2809    1.3893 H         1 RES1    0.0000
     29 C17        2.4145   10.5024    1.5825 C.ar      1 RES1    0.0000
     30 C18        2.4208    9.3701    2.3846 C.ar      1 RES1    0.0000
     31 H13        1.8506    8.6643    2.1789 H         1 RES1    0.0000
     32 C19        3.2557    9.2677    3.4824 C.ar      1 RES1    0.0000
     33 H14        3.2388    8.4977    4.0031 H         1 RES1    0.0000
     34 C20        1.4929   10.6256    0.3983 C.3       1 RES1    0.0000
     35 H15        0.6756   11.0489    0.6717 H         1 RES1    0.0000
     36 H16        1.3001    9.7517    0.0510 H         1 RES1    0.0000
     37 H17        1.9157   11.1544   -0.2829 H         1 RES1    0.0000
     38 O1         7.2826   11.2132    7.3766 O.2       1 RES1   -1.0000
     39 N1         4.9282    7.2527    8.9962 N.ar      1 RES1    0.0000
     40 N2         8.2961    8.2663    6.1517 N.ar      1 RES1    0.0000
     41 N3         5.9046    9.4852    6.7449 N.pl3     1 RES1    0.0000
     42 N4         5.0505    9.1532    5.7745 N.2       1 RES1    0.0000
     43 N5         6.4206   10.7298    6.5704 N.pl3     1 RES1    1.0000
@<TRIPOS>BOND
     1    1    2 ar
     2    2    3 1
     3    4    2 ar
     4    5    4 1
     5    6    4 ar
     6    7    6 1
     7    8    6 ar
     8    9    8 1
     9   10    1 1
    10   11   10 1
    11   12   10 1
    12   13   12 ar
    13   14   13 1
    14   15   13 ar
    15   16   15 1
    16   17   15 ar
    17   18   17 1
    18   19   17 ar
    19   20   19 1
    20   21   22 1
    21   23   21 1
    22   24   23 1
    23   25   24 ar
    24   26   25 1
    25   27   25 ar
    26   28   27 1
    27   29   27 ar
    28   30   29 ar
    29   31   30 1
    30   32   24 ar
    31   33   32 1
    32   34   29 1
    33   35   34 1
    34   36   34 1
    35   37   34 1
    36   38   43 1
    37   39    1 ar
    38   40   12 ar
    39   41   10 1
    40   42   23 2
    41   43   21 2
    42    8   39 ar
    43   19   40 ar
    44   30   32 ar
    45   41   42 1
    46   41   43 1
@<TRIPOS>SUBSTRUCTURE
     1 RES1 1

@<TRIPOS>CRYSIN
   8.9288    9.9399   10.6983  70.0030  89.5420  72.2760   2 1

