# MOL2 file generated by ConQuest
# Please check atom types

@<TRIPOS>MOLECULE
EVOPIO
    33    35     1
SMALL
NO_CHARGES
****
Generated from CSD

@<TRIPOS>ATOM
      1 N1         6.3714    2.1787   13.1667 N.3       1 RES1    0.0000
      2 N2         7.5881    2.5198   13.6699 N.2       1 RES1    0.0000
      3 C1         7.6171    2.0560   14.9113 C.2       1 RES1    0.0000
      4 H1         8.3374    2.1526   15.4917 H         1 RES1    0.0000
      5 C2         6.4052    1.3927   15.2417 C.2       1 RES1    0.0000
      6 C3         5.8278    0.7591   16.3577 C.2       1 RES1    0.0000
      7 N3         6.5650    0.7269   17.6192 N.pl3     1 RES1    0.0000
      8 C4         4.5707    0.2238   16.3048 C.2       1 RES1    0.0000
      9 H2         4.2024   -0.1851   17.0541 H         1 RES1    0.0000
     10 C5         3.8396    0.2990   15.1037 C.2       1 RES1    0.0000
     11 H3         2.9965   -0.0902   15.0637 H         1 RES1    0.0000
     12 C6         4.3360    0.9318   13.9872 C.2       1 RES1    0.0000
     13 H4         3.8355    0.9949   13.2055 H         1 RES1    0.0000
     14 C7         5.6262    1.4786   14.0711 C.2       1 RES1    0.0000
     15 C8         6.0652    2.4608   11.7786 C.3       1 RES1    0.0000
     16 H5         5.1203    2.2592   11.6117 H         1 RES1    0.0000
     17 C9         6.3519    3.9053   11.3607 C.3       1 RES1    0.0000
     18 H6         5.5533    4.4528   11.4166 H         1 RES1    0.0000
     19 H7         7.0472    4.2993   11.9106 H         1 RES1    0.0000
     20 O1         5.6484    3.6380    9.1031 O.3       1 RES1    0.0000
     21 H8         5.8879    3.4568    8.3390 H         1 RES1    0.0000
     22 C10        6.8105    3.7434    9.9228 C.3       1 RES1    0.0000
     23 H9         7.3871    4.4845    9.6402 H         1 RES1    0.0000
     24 O2         6.8739    1.6292   10.9487 O.3       1 RES1    0.0000
     25 C11        7.5787    2.4235    9.9875 C.3       1 RES1    0.0000
     26 H10        7.5308    1.9839    9.1131 H         1 RES1    0.0000
     27 O3         9.7922    2.7186    9.2064 O.3       1 RES1    0.0000
     28 H11       10.5415    3.0115    9.3617 H         1 RES1    0.0000
     29 C12        9.0429    2.5775   10.3857 C.3       1 RES1    0.0000
     30 H12        9.1562    3.3584   10.9493 H         1 RES1    0.0000
     31 H13        9.3396    1.7964   10.8801 H         1 RES1    0.0000
     32 O4         6.0086    0.3180   18.6239 O.2       1 RES1    0.0000
     33 O5         7.7237    1.0968   17.6037 O.2       1 RES1    0.0000
@<TRIPOS>BOND
     1    1    2 1
     2    2    3 2
     3    3    4 1
     4    5    3 1
     5    6    5 1
     6    7    6 1
     7    8    6 2
     8    9    8 1
     9   10    8 1
    10   11   10 1
    11   12   10 2
    12   13   12 1
    13   14    1 1
    14   15    1 1
    15   16   15 1
    16   17   15 1
    17   18   17 1
    18   19   17 1
    19   20   21 1
    20   22   17 1
    21   23   22 1
    22   24   15 1
    23   25   22 1
    24   26   25 1
    25   27   28 1
    26   29   25 1
    27   30   29 1
    28   31   29 1
    29   32    7 2
    30   33    7 2
    31    5   14 2
    32   12   14 1
    33   20   22 1
    34   24   25 1
    35   27   29 1
@<TRIPOS>SUBSTRUCTURE
     1 RES1 1

@<TRIPOS>CRYSIN
   6.7444   11.7180   15.7340  90.0000  90.0000  90.0000  19 1

