# MOL2 file generated by ConQuest
# Please check atom types

@<TRIPOS>MOLECULE
EVOQUC
    59    63     1
SMALL
NO_CHARGES
****
Generated from CSD

@<TRIPOS>ATOM
      1 C1         3.8448    1.0705    6.1766 C.ar      1 RES1    0.0000
      2 H1         3.0876    1.6078    6.1285 H         1 RES1    0.0000
      3 C2         4.5974    0.8545    5.0341 C.ar      1 RES1    0.0000
      4 H2         4.3571    1.2580    4.2307 H         1 RES1    0.0000
      5 C3         5.7052    0.0384    5.0963 C.ar      1 RES1    0.0000
      6 H3         6.1996   -0.1268    4.3256 H         1 RES1    0.0000
      7 C4         6.0857   -0.5321    6.2841 C.ar      1 RES1    0.0000
      8 H4         6.8321   -1.0852    6.3195 H         1 RES1    0.0000
      9 C5         5.3458   -0.2770    7.4399 C.ar      1 RES1    0.0000
     10 C6         5.4638    0.0093    9.7382 C.3       1 RES1    0.0000
     11 H5         5.8311    0.8976    9.6083 H         1 RES1    0.0000
     12 H6         5.8572   -0.3646   10.5421 H         1 RES1    0.0000
     13 C7         3.9498    0.1047    9.9081 C.3       1 RES1    0.0000
     14 C8         3.2995    0.6271    8.6025 C.3       1 RES1    0.0000
     15 H7         2.4812    0.1132    8.4372 H         1 RES1    0.0000
     16 C9         4.1970    0.5025    7.3891 C.ar      1 RES1    0.0000
     17 C10        3.5463    1.2193   10.9107 C.3       1 RES1    0.0000
     18 H8         2.6203    1.0671   11.1948 H         1 RES1    0.0000
     19 C11        1.5314    2.3695    8.9261 C.ar      1 RES1    0.0000
     20 C12        0.6577    1.8408    7.9849 C.ar      1 RES1    0.0000
     21 H9         0.9684    1.2244    7.3621 H         1 RES1    0.0000
     22 C13       -0.6765    2.2264    7.9666 C.ar      1 RES1    0.0000
     23 H10       -1.2526    1.8617    7.3344 H         1 RES1    0.0000
     24 C14       -1.1527    3.1375    8.8702 C.ar      1 RES1    0.0000
     25 H11       -2.0486    3.3861    8.8630 H         1 RES1    0.0000
     26 C15       -0.2879    3.6773    9.7870 C.ar      1 RES1    0.0000
     27 H12       -0.6033    4.3045   10.3975 H         1 RES1    0.0000
     28 C16        1.0485    3.3085    9.8237 C.ar      1 RES1    0.0000
     29 H13        1.6204    3.6909   10.4495 H         1 RES1    0.0000
     30 C17        4.3982    1.4330   12.1341 C.ar      1 RES1    0.0000
     31 C18        5.5019    2.2683   12.1247 C.ar      1 RES1    0.0000
     32 H14        5.7522    2.6921   11.3360 H         1 RES1    0.0000
     33 C19        6.2365    2.4781   13.2803 C.ar      1 RES1    0.0000
     34 H15        6.9677    3.0533   13.2558 H         1 RES1    0.0000
     35 C20        5.9080    1.8527   14.4684 C.ar      1 RES1    0.0000
     36 C21        4.8029    1.0300   14.4660 C.ar      1 RES1    0.0000
     37 H16        4.5584    0.6002   15.2531 H         1 RES1    0.0000
     38 C22        4.0463    0.8250   13.3254 C.ar      1 RES1    0.0000
     39 H17        3.2969    0.2754   13.3599 H         1 RES1    0.0000
     40 C23        6.6832    2.0885   15.7616 C.3       1 RES1    0.0000
     41 H18        6.4916    1.3366   16.3605 H         1 RES1    0.0000
     42 C24        8.1849    2.1157   15.5308 C.3       1 RES1    0.0000
     43 H19        8.4488    1.3283   15.0494 H         1 RES1    0.0000
     44 H20        8.6389    2.1417   16.3756 H         1 RES1    0.0000
     45 H21        8.4156    2.8953   15.0193 H         1 RES1    0.0000
     46 C25        6.2099    3.3382   16.4439 C.3       1 RES1    0.0000
     47 H22        6.4234    4.1002   15.9000 H         1 RES1    0.0000
     48 H23        6.6442    3.4220   17.2956 H         1 RES1    0.0000
     49 H24        5.2596    3.2935   16.5723 H         1 RES1    0.0000
     50 C26        3.3433   -1.2259   10.3359 C.2       1 RES1    0.0000
     51 C27        3.6465   -3.1228   11.7079 C.3       1 RES1    0.0000
     52 H25        2.9768   -2.9344   12.3693 H         1 RES1    0.0000
     53 H26        4.3701   -3.6061   12.1136 H         1 RES1    0.0000
     54 H27        3.2618   -3.6517   11.0050 H         1 RES1    0.0000
     55 N1         2.9205    2.0454    8.8712 N.3       1 RES1    0.0000
     56 O1         5.7951   -0.8138    8.6180 O.3       1 RES1    0.0000
     57 O2         3.5905    2.3989   10.0899 O.3       1 RES1    0.0000
     58 O3         4.1450   -1.8789   11.1582 O.3       1 RES1    0.0000
     59 O4         2.2524   -1.6044   10.0251 O.2       1 RES1    0.0000
@<TRIPOS>BOND
     1    1    2 1
     2    3    1 ar
     3    4    3 1
     4    5    3 ar
     5    6    5 1
     6    7    5 ar
     7    8    7 1
     8    9    7 ar
     9   10   11 1
    10   12   10 1
    11   13   10 1
    12   14   13 1
    13   15   14 1
    14   16    1 ar
    15   17   13 1
    16   18   17 1
    17   19   20 ar
    18   20   21 1
    19   22   20 ar
    20   23   22 1
    21   24   22 ar
    22   25   24 1
    23   26   24 ar
    24   27   26 1
    25   28   19 ar
    26   29   28 1
    27   30   17 1
    28   31   30 ar
    29   32   31 1
    30   33   31 ar
    31   34   33 1
    32   35   33 ar
    33   36   35 ar
    34   37   36 1
    35   38   30 ar
    36   39   38 1
    37   40   35 1
    38   41   40 1
    39   42   40 1
    40   43   42 1
    41   44   42 1
    42   45   42 1
    43   46   40 1
    44   47   46 1
    45   48   46 1
    46   49   46 1
    47   50   13 1
    48   51   52 1
    49   53   51 1
    50   54   51 1
    51   55   14 1
    52   56    9 1
    53   57   17 1
    54   58   50 1
    55   59   50 2
    56    9   16 ar
    57   10   56 1
    58   14   16 1
    59   19   55 1
    60   26   28 ar
    61   36   38 ar
    62   51   58 1
    63   55   57 1
@<TRIPOS>SUBSTRUCTURE
     1 RES1 1

@<TRIPOS>CRYSIN
   9.3555   10.7247   12.0449  94.7070 104.7300  96.3850   2 1

