# MOL2 file generated by ConQuest
# Please check atom types

@<TRIPOS>MOLECULE
EVOQAI
    47    49     1
SMALL
NO_CHARGES
****
Generated from CSD

@<TRIPOS>ATOM
      1 C1        -4.1377    0.2614   15.8079 C.ar      1 RES1    0.0000
      2 C2        -5.4748   -0.0964   15.8205 C.ar      1 RES1    0.0000
      3 H1        -6.1407    0.5524   15.7985 H         1 RES1    0.0000
      4 C3        -5.7929   -1.4127   15.8670 C.ar      1 RES1    0.0000
      5 H2        -6.6852   -1.6723   15.8628 H         1 RES1    0.0000
      6 C4        -4.8209   -2.3524   15.9173 C.ar      1 RES1    0.0000
      7 H3        -5.0471   -3.2533   15.9509 H         1 RES1    0.0000
      8 C5        -3.4923   -1.9760   15.9169 C.ar      1 RES1    0.0000
      9 H4        -2.8373   -2.6341   15.9537 H         1 RES1    0.0000
     10 C6        -3.1126   -0.6590   15.8641 C.ar      1 RES1    0.0000
     11 C7        -1.6504   -0.3206   15.8888 C.3       1 RES1    0.0000
     12 H5        -1.5178    0.4762   16.4261 H         1 RES1    0.0000
     13 H6        -1.1633   -1.0464   16.3087 H         1 RES1    0.0000
     14 C8        -1.0975   -0.0863   14.5216 C.2       1 RES1    0.0000
     15 C9         1.5754   -0.1962   13.1082 C.2       1 RES1    0.0000
     16 C10        2.1583   -0.2199   11.7339 C.ar      1 RES1    0.0000
     17 C11        1.5336    0.3240   10.6268 C.ar      1 RES1    0.0000
     18 H7         0.7463    0.8087   10.7262 H         1 RES1    0.0000
     19 C12        2.0806    0.1438    9.3779 C.ar      1 RES1    0.0000
     20 H8         1.6637    0.5160    8.6352 H         1 RES1    0.0000
     21 C13        3.2299   -0.5777    9.2190 C.ar      1 RES1    0.0000
     22 H9         3.5914   -0.6979    8.3696 H         1 RES1    0.0000
     23 C14        3.8496   -1.1259   10.3115 C.ar      1 RES1    0.0000
     24 H10        4.6320   -1.6174   10.2062 H         1 RES1    0.0000
     25 C15        3.3122   -0.9466   11.5622 C.ar      1 RES1    0.0000
     26 H11        3.7343   -1.3213   12.3014 H         1 RES1    0.0000
     27 C16        0.6849    2.1757   12.9905 C.ar      1 RES1    0.0000
     28 C17       -0.5447    2.7864   12.8342 C.ar      1 RES1    0.0000
     29 H12       -1.3199    2.2848   12.9486 H         1 RES1    0.0000
     30 C18       -0.6488    4.1178   12.5140 C.ar      1 RES1    0.0000
     31 C19        0.5228    4.8157   12.3070 C.ar      1 RES1    0.0000
     32 H13        0.4836    5.7141   12.0680 H         1 RES1    0.0000
     33 C20        1.7493    4.2050   12.4483 C.ar      1 RES1    0.0000
     34 H14        2.5239    4.6956   12.2958 H         1 RES1    0.0000
     35 C21        1.8464    2.8854   12.8096 C.ar      1 RES1    0.0000
     36 H15        2.6758    2.4827   12.9290 H         1 RES1    0.0000
     37 C22       -1.9944    4.7760   12.4272 C.3       1 RES1    0.0000
     38 H16       -2.4960    4.3826   11.7088 H         1 RES1    0.0000
     39 H17       -1.8818    5.7149   12.2609 H         1 RES1    0.0000
     40 H18       -2.4660    4.6508   13.2533 H         1 RES1    0.0000
     41 N1         0.7116    0.8197   13.3946 N.am      1 RES1    0.0000
     42 N2        -3.8551    1.6859   15.7461 N.pl3     1 RES1    0.0000
     43 O1        -1.5376   -0.4703   13.4935 O.2       1 RES1    0.0000
     44 O2         0.0496    0.6485   14.6444 O.3       1 RES1    0.0000
     45 O3         1.7696   -1.0978   13.8862 O.2       1 RES1    0.0000
     46 O4        -2.8387    2.0598   15.2086 O.2       1 RES1    0.0000
     47 O5        -4.6397    2.4438   16.2570 O.2       1 RES1    0.0000
@<TRIPOS>BOND
     1    1    2 ar
     2    2    3 1
     3    4    2 ar
     4    5    4 1
     5    6    4 ar
     6    7    6 1
     7    8    6 ar
     8    9    8 1
     9   10    1 ar
    10   11   10 1
    11   12   11 1
    12   13   11 1
    13   14   11 1
    14   15   16 1
    15   16   17 ar
    16   17   18 1
    17   19   17 ar
    18   20   19 1
    19   21   19 ar
    20   22   21 1
    21   23   21 ar
    22   24   23 1
    23   25   16 ar
    24   26   25 1
    25   27   28 ar
    26   28   29 1
    27   30   28 ar
    28   31   30 ar
    29   32   31 1
    30   33   31 ar
    31   34   33 1
    32   35   27 ar
    33   36   35 1
    34   37   30 1
    35   38   37 1
    36   39   37 1
    37   40   37 1
    38   41   15 1
    39   42    1 1
    40   43   14 2
    41   44   14 1
    42   45   15 2
    43   46   42 2
    44   47   42 2
    45    8   10 ar
    46   23   25 ar
    47   27   41 1
    48   33   35 ar
    49   41   44 1
@<TRIPOS>SUBSTRUCTURE
     1 RES1 1

@<TRIPOS>CRYSIN
  16.3400    8.4590   14.8620  90.0000 109.8690  90.0000  14 1

