# MOL2 file generated by ConQuest
# Please check atom types

@<TRIPOS>MOLECULE
EVOSAJ
    15    15     1
SMALL
NO_CHARGES
****
Generated from CSD

@<TRIPOS>ATOM
      1 N1         4.9886    1.1135    1.2721 N.pl3     1 RES1    0.0000
      2 O1         5.5556    0.5417    0.3454 O.2       1 RES1    0.0000
      3 N2         0.9359   -1.6214    3.9721 N.1       1 RES1    0.0000
      4 C1         3.5219   -0.8409    1.4959 C.ar      1 RES1    0.0000
      5 O2         5.2653    2.2473    1.6462 O.2       1 RES1    0.0000
      6 C2         3.9234    0.3957    1.9811 C.ar      1 RES1    0.0000
      7 C3         2.3655    0.2992    3.7764 C.ar      1 RES1    0.0000
      8 C4         2.5179   -1.5183    2.1648 C.ar      1 RES1    0.0000
      9 C5         1.9555   -0.9440    3.2929 C.ar      1 RES1    0.0000
     10 C6         3.3705    0.9754    3.1081 C.ar      1 RES1    0.0000
     11 C7         0.0662   -2.1528    4.5149 C.1       1 RES1    0.0000
     12 H1         2.2357   -2.3525    1.8609 H         1 RES1    0.0000
     13 H2         3.8848   -1.1943    0.7256 H         1 RES1    0.0000
     14 H3         3.6693    1.8096    3.4210 H         1 RES1    0.0000
     15 H4         1.9299    0.6394    4.5498 H         1 RES1    0.0000
@<TRIPOS>BOND
     1    1    2 2
     2    3    9 1
     3    4    6 ar
     4    5    1 2
     5    6    1 1
     6    7    9 ar
     7    8    4 ar
     8    9    8 ar
     9   10    6 ar
    10   11    3 3
    11   12    8 1
    12   13    4 1
    13   14   10 1
    14   15    7 1
    15    7   10 ar
@<TRIPOS>SUBSTRUCTURE
     1 RES1 1

@<TRIPOS>CRYSIN
   5.0127    6.0320   21.7900  90.0000  90.0000  90.0000  19 1

