# MOL2 file generated by ConQuest
# Please check atom types

@<TRIPOS>MOLECULE
EVOWET
    43    43     1
SMALL
NO_CHARGES
****
Generated from CSD

@<TRIPOS>ATOM
      1 O1        -0.2713    6.1002    1.9102 O.2       1 RES1    0.0000
      2 O2         4.2432    3.0827    1.2696 O.3       1 RES1    0.0000
      3 O3         7.0423   -0.5871    1.6249 O.3       1 RES1    0.0000
      4 O4         6.4177    0.3261    3.5865 O.2       1 RES1    0.0000
      5 N1         0.7985    5.3943    1.7982 N.3       1 RES1    0.0000
      6 C1         0.7401    4.0233    2.4037 C.3       1 RES1    0.0000
      7 C2         1.9137    3.1881    1.8798 C.3       1 RES1    0.0000
      8 H1         1.9884    2.3642    2.4247 H         1 RES1    0.0000
      9 H2         1.7215    2.9162    0.9477 H         1 RES1    0.0000
     10 C3         3.2441    3.9188    1.9126 C.3       1 RES1    0.0000
     11 H3         3.5097    4.1241    2.8550 H         1 RES1    0.0000
     12 C4         4.8900    2.2075    2.0581 C.2       1 RES1    0.0000
     13 H4         4.8113    2.2765    3.0019 H         1 RES1    0.0000
     14 C5         5.6434    1.2408    1.5252 C.2       1 RES1    0.0000
     15 H5         5.6976    1.1540    0.5806 H         1 RES1    0.0000
     16 C6         6.3839    0.3178    2.3774 C.2       1 RES1    0.0000
     17 C7         7.8131   -1.6126    2.3055 C.3       1 RES1    0.0000
     18 H6         8.0568   -1.2993    3.2119 H         1 RES1    0.0000
     19 H7         8.6490   -1.7883    1.8049 H         1 RES1    0.0000
     20 C8         7.0072   -2.8794    2.4071 C.3       1 RES1    0.0000
     21 H8         6.2155   -2.7194    2.9626 H         1 RES1    0.0000
     22 H9         7.5550   -3.5836    2.8140 H         1 RES1    0.0000
     23 H10        6.7266   -3.1607    1.5112 H         1 RES1    0.0000
     24 C9         0.7466    4.1419    3.9342 C.3       1 RES1    0.0000
     25 H11        1.6228    4.4631    4.2330 H         1 RES1    0.0000
     26 H12        0.5683    3.2637    4.3303 H         1 RES1    0.0000
     27 H13        0.0534    4.7745    4.2159 H         1 RES1    0.0000
     28 C10        2.0771    6.1515    1.5979 C.3       1 RES1    0.0000
     29 C11        3.1601    5.1901    1.0923 C.3       1 RES1    0.0000
     30 H14        2.9682    4.9544    0.1503 H         1 RES1    0.0000
     31 H15        4.0375    5.6494    1.1167 H         1 RES1    0.0000
     32 C12        1.8207    7.2286    0.5398 C.3       1 RES1    0.0000
     33 H16        1.4952    6.8073   -0.2835 H         1 RES1    0.0000
     34 H17        2.6548    7.7076    0.3535 H         1 RES1    0.0000
     35 H18        1.1481    7.8599    0.8726 H         1 RES1    0.0000
     36 C13        2.4929    6.8275    2.9168 C.3       1 RES1    0.0000
     37 H19        1.7295    7.3171    3.2870 H         1 RES1    0.0000
     38 H20        3.2295    7.4508    2.7457 H         1 RES1    0.0000
     39 H21        2.7844    6.1446    3.5568 H         1 RES1    0.0000
     40 C14       -0.5705    3.3717    1.9538 C.3       1 RES1    0.0000
     41 H22       -1.3275    3.8726    2.3223 H         1 RES1    0.0000
     42 H23       -0.6027    2.4464    2.2762 H         1 RES1    0.0000
     43 H24       -0.6197    3.3791    0.9750 H         1 RES1    0.0000
@<TRIPOS>BOND
     1    1    5 1
     2    2   10 1
     3    3   16 1
     4    4   16 2
     5    5    6 1
     6    6    7 1
     7    7    8 1
     8    9    7 1
     9   10    7 1
    10   11   10 1
    11   12    2 1
    12   13   12 1
    13   14   12 2
    14   15   14 1
    15   16   14 1
    16   17    3 1
    17   18   17 1
    18   19   17 1
    19   20   17 1
    20   21   20 1
    21   22   20 1
    22   23   20 1
    23   24    6 1
    24   25   24 1
    25   26   24 1
    26   27   24 1
    27   28    5 1
    28   29   10 1
    29   30   29 1
    30   31   29 1
    31   32   28 1
    32   33   32 1
    33   34   32 1
    34   35   32 1
    35   36   28 1
    36   37   36 1
    37   38   36 1
    38   39   36 1
    39   40    6 1
    40   41   40 1
    41   42   40 1
    42   43   40 1
    43   28   29 1
@<TRIPOS>SUBSTRUCTURE
     1 RES1 1

@<TRIPOS>CRYSIN
  11.4629    7.6884   17.1044  90.0000  93.3370  90.0000  14 1

