# MOL2 file generated by ConQuest
# Please check atom types

@<TRIPOS>MOLECULE
EVULAK01
    50    52     1
SMALL
NO_CHARGES
****
Generated from CSD

@<TRIPOS>ATOM
      1 C1         4.2022   -0.6547    7.8671 C.2       1 RES1    0.0000
      2 C2         2.8964   -0.2383    9.9292 C.2       1 RES1    0.0000
      3 C3         4.1185    0.2663   10.5856 C.ar      1 RES1    0.0000
      4 C4         4.0106    0.7746   11.8653 C.ar      1 RES1    0.0000
      5 H1         3.1956    0.7624   12.3149 H         1 RES1    0.0000
      6 C5         5.1421    1.3037   12.4675 C.ar      1 RES1    0.0000
      7 H2         5.0711    1.6756   13.3170 H         1 RES1    0.0000
      8 C6         6.3593    1.2944   11.8471 C.ar      1 RES1    0.0000
      9 H3         7.0933    1.6735   12.2751 H         1 RES1    0.0000
     10 C7         6.5259    0.7215   10.5703 C.ar      1 RES1    0.0000
     11 C8         5.3555    0.2513    9.9161 C.ar      1 RES1    0.0000
     12 C9         5.4081   -0.1874    8.5576 C.ar      1 RES1    0.0000
     13 C10        6.5864   -0.1264    7.8916 C.ar      1 RES1    0.0000
     14 H4         6.6114   -0.3640    6.9928 H         1 RES1    0.0000
     15 C11        7.7607    0.2800    8.5124 C.ar      1 RES1    0.0000
     16 C12        7.8017    0.6468    9.8944 C.ar      1 RES1    0.0000
     17 C13        9.3344    0.7294   11.9333 C.3       1 RES1    0.0000
     18 H5         8.6502    0.2161   12.3896 H         1 RES1    0.0000
     19 H6         9.3912    1.6002   12.3564 H         1 RES1    0.0000
     20 C14       10.6483    0.0287   12.0462 C.3       1 RES1    0.0000
     21 H7        11.3227    0.5377   11.5684 H         1 RES1    0.0000
     22 H8        10.5810   -0.8428   11.6264 H         1 RES1    0.0000
     23 C15       11.0864   -0.1472   13.4912 C.3       1 RES1    0.0000
     24 H9        11.2098    0.7273   13.8910 H         1 RES1    0.0000
     25 H10       10.3829   -0.6016   13.9806 H         1 RES1    0.0000
     26 C16       12.3808   -0.9419   13.6322 C.3       1 RES1    0.0000
     27 H11       12.2328   -1.8458   13.3452 H         1 RES1    0.0000
     28 H12       12.6595   -0.9398   14.5513 H         1 RES1    0.0000
     29 H13       13.0627   -0.5399   13.0913 H         1 RES1    0.0000
     30 C17        1.7972   -1.1279    7.9169 C.3       1 RES1    0.0000
     31 H14        1.1950   -1.5378    8.5572 H         1 RES1    0.0000
     32 H15        2.0168   -1.7826    7.2367 H         1 RES1    0.0000
     33 C18        1.0776    0.2175    7.2217 C.3       1 RES1    0.0000
     34 H16        0.8005    0.8407    7.9102 H         1 RES1    0.0000
     35 H17        1.7081    0.6684    6.6377 H         1 RES1    0.0000
     36 C19        0.0867   -0.1651    6.5664 C.3       1 RES1    0.0000
     37 H18       -0.5083   -0.7222    7.0873 H         1 RES1    0.0000
     38 H19        0.3392   -0.6210    5.7469 H         1 RES1    0.0000
     39 C20       -0.5530    1.3956    6.2777 C.3       1 RES1    0.0000
     40 H20       -0.5514    1.8982    7.0956 H         1 RES1    0.0000
     41 H21       -1.4538    1.3167    5.9526 H         1 RES1    0.0000
     42 H22       -0.0146    1.8465    5.6241 H         1 RES1    0.0000
     43 N1         3.0138   -0.6591    8.5859 N.am      1 RES1    0.0000
     44 N2         8.9524    0.2175    7.7038 N.pl3     1 RES1    0.0000
     45 N3         8.9694    0.8909   10.5144 N.3       1 RES1    0.0000
     46 H23        9.8668    0.9254    9.8297 H         1 RES1    0.0000
     47 O1         4.2298   -1.0532    6.7136 O.2       1 RES1    0.0000
     48 O2         1.8218   -0.3001   10.5026 O.2       1 RES1    0.0000
     49 O3        10.0187    0.7057    8.1279 O.2       1 RES1    0.0000
     50 O4         8.8901   -0.3188    6.5951 O.2       1 RES1    0.0000
@<TRIPOS>BOND
     1    1   12 1
     2    2    3 1
     3    3    4 ar
     4    4    5 1
     5    6    4 ar
     6    7    6 1
     7    8    6 ar
     8    9    8 1
     9   10    8 ar
    10   11    3 ar
    11   12   11 ar
    12   13   12 ar
    13   14   13 1
    14   15   13 ar
    15   16   10 ar
    16   17   18 1
    17   19   17 1
    18   20   17 1
    19   21   20 1
    20   22   20 1
    21   23   20 1
    22   24   23 1
    23   25   23 1
    24   26   23 1
    25   27   26 1
    26   28   26 1
    27   29   26 1
    28   30   31 1
    29   32   30 1
    30   33   30 1
    31   34   33 1
    32   35   33 1
    33   36   33 1
    34   37   36 1
    35   38   36 1
    36   39   36 1
    37   40   39 1
    38   41   39 1
    39   42   39 1
    40   43    1 1
    41   44   15 1
    42   45   16 1
    43   46   45 1
    44   47    1 2
    45   48    2 2
    46   49   44 2
    47   50   44 2
    48    2   43 1
    49   10   11 ar
    50   15   16 ar
    51   17   45 1
    52   30   43 1
@<TRIPOS>SUBSTRUCTURE
     1 RES1 1

@<TRIPOS>CRYSIN
  32.1350    7.1792   16.7887  90.0000  98.8190  90.0000  15 1

