# MOL2 file generated by ConQuest
# Please check atom types

@<TRIPOS>MOLECULE
EVULUC
    38    39     1
SMALL
NO_CHARGES
****
Generated from CSD

@<TRIPOS>ATOM
      1 C1         0.0000    6.3470    5.2471 C.2       1 RES1    0.0000
      2 C2         0.0000    4.9880    5.2471 C.2       1 RES1    0.0000
      3 C3         0.2152    7.1092    4.0079 C.ar      1 RES1    0.0000
      4 C4        -0.4925    8.2859    3.7793 C.ar      1 RES1    0.0000
      5 H1        -1.1250    8.5637    4.4012 H         1 RES1    0.0000
      6 C5        -0.2777    9.0485    2.6535 C.ar      1 RES1    0.0000
      7 H2        -0.7726    9.8224    2.5102 H         1 RES1    0.0000
      8 C6         0.6800    8.6539    1.7380 C.ar      1 RES1    0.0000
      9 C7         1.4018    7.4907    1.9517 C.ar      1 RES1    0.0000
     10 H3         2.0456    7.2270    1.3348 H         1 RES1    0.0000
     11 C8         1.1739    6.7259    3.0655 C.ar      1 RES1    0.0000
     12 H4         1.6617    5.9444    3.1965 H         1 RES1    0.0000
     13 C9         0.2834   10.5617    0.3631 C.3       1 RES1    0.0000
     14 H5         0.5982   10.9568   -0.4533 H         1 RES1    0.0000
     15 H6         0.4272   11.1719    1.0893 H         1 RES1    0.0000
     16 H7        -0.6546   10.3721    0.2854 H         1 RES1    0.0000
     17 N1         0.1081    4.1550    6.4392 N.pl3     1 RES1    0.0000
     18 O1         0.8924    4.4605    7.3047 O.2       1 RES1    0.0000
     19 O2        -0.5959    3.1816    6.4971 O.2       1 RES1    0.0000
     20 O3         0.9967    9.3486    0.6122 O.3       1 RES1    0.0000
     21 N1F       -0.1081    4.1550    4.0549 N.pl3     1 RES1    0.0000
     22 O1F       -0.8924    4.4605    3.1894 O.2       1 RES1    0.0000
     23 O2F        0.5959    3.1816    3.9970 O.2       1 RES1    0.0000
     24 C3F       -0.2152    7.1092    6.4862 C.ar      1 RES1    0.0000
     25 C4F        0.4925    8.2859    6.7148 C.ar      1 RES1    0.0000
     26 H1F        1.1250    8.5637    6.0929 H         1 RES1    0.0000
     27 C5F        0.2777    9.0485    7.8406 C.ar      1 RES1    0.0000
     28 H2F        0.7726    9.8224    7.9839 H         1 RES1    0.0000
     29 C6F       -0.6800    8.6539    8.7561 C.ar      1 RES1    0.0000
     30 C7F       -1.4018    7.4907    8.5424 C.ar      1 RES1    0.0000
     31 H3F       -2.0456    7.2270    9.1593 H         1 RES1    0.0000
     32 C8F       -1.1739    6.7259    7.4286 C.ar      1 RES1    0.0000
     33 H4F       -1.6617    5.9444    7.2976 H         1 RES1    0.0000
     34 O3F       -0.9967    9.3486    9.8819 O.3       1 RES1    0.0000
     35 C9F       -0.2834   10.5617   10.1310 C.3       1 RES1    0.0000
     36 H5F       -0.5982   10.9568   10.9474 H         1 RES1    0.0000
     37 H6F       -0.4272   11.1719    9.4048 H         1 RES1    0.0000
     38 H7F        0.6546   10.3721   10.2087 H         1 RES1    0.0000
@<TRIPOS>BOND
     1    1    2 2
     2    2   17 1
     3    3    1 1
     4    4    3 ar
     5    5    4 1
     6    6    4 ar
     7    7    6 1
     8    8    6 ar
     9    9    8 ar
    10   10    9 1
    11   11    3 ar
    12   12   11 1
    13   13   14 1
    14   15   13 1
    15   16   13 1
    16   17   18 2
    17   19   17 2
    18   20    8 1
    19   21    2 1
    20   22   21 2
    21   23   21 2
    22   24    1 1
    23   25   24 ar
    24   26   25 1
    25   27   25 ar
    26   28   27 1
    27   29   27 ar
    28   30   29 ar
    29   31   30 1
    30   32   24 ar
    31   33   32 1
    32   34   29 1
    33   35   34 1
    34   36   35 1
    35   37   35 1
    36   38   35 1
    37    9   11 ar
    38   13   20 1
    39   30   32 ar
@<TRIPOS>SUBSTRUCTURE
     1 RES1 1

@<TRIPOS>CRYSIN
   4.6993   15.9325   20.9882  90.0000  90.0000  90.0000  60 1

