# MOL2 file generated by ConQuest
# Please check atom types

@<TRIPOS>MOLECULE
EWACEK
    54    60     1
SMALL
NO_CHARGES
****
Generated from CSD

@<TRIPOS>ATOM
      1 C1         4.4103    2.7430   16.3516 C.ar      1 RES1    0.0000
      2 H1         3.9631    2.1482   15.7944 H         1 RES1    0.0000
      3 C2         4.4006    4.0794   16.0739 C.ar      1 RES1    0.0000
      4 C3         4.9943    5.0093   16.8934 C.ar      1 RES1    0.0000
      5 H2         4.9725    5.9137   16.6790 H         1 RES1    0.0000
      6 C4         5.6255    4.5667   18.0423 C.ar      1 RES1    0.0000
      7 H3         5.9963    5.1796   18.6377 H         1 RES1    0.0000
      8 C5         5.7060    3.2058   18.3065 C.ar      1 RES1    0.0000
      9 N1         6.4126    2.7760   19.4649 N.3       1 RES1    0.0000
     10 C6         7.8841    2.9345   19.3232 C.3       1 RES1    0.0000
     11 H4         8.3041    2.8356   20.1905 H         1 RES1    0.0000
     12 H5         8.0834    3.8240   18.9919 H         1 RES1    0.0000
     13 C7         8.4491    1.8971   18.3639 C.ar      1 RES1    0.0000
     14 C8         9.7297    2.0642   17.8125 C.ar      1 RES1    0.0000
     15 C9        10.6203    3.2133   18.2529 C.3       1 RES1    0.0000
     16 H6        10.1053    4.0358   18.2299 H         1 RES1    0.0000
     17 H7        10.8973    3.0643   19.1700 H         1 RES1    0.0000
     18 N2        11.8222    3.3761   17.4066 N.3       1 RES1    0.0000
     19 C10       11.5451    4.0666   16.1888 C.ar      1 RES1    0.0000
     20 C11       11.4663    5.4487   16.1984 C.ar      1 RES1    0.0000
     21 H8        11.5795    5.9020   17.0026 H         1 RES1    0.0000
     22 C12       11.2240    6.1733   15.0496 C.ar      1 RES1    0.0000
     23 H9        11.1861    7.1022   15.0649 H         1 RES1    0.0000
     24 C13       11.0433    5.4690   13.8701 C.ar      1 RES1    0.0000
     25 C14       11.1141    4.0900   13.8222 C.ar      1 RES1    0.0000
     26 H10       10.9907    3.6431   13.0162 H         1 RES1    0.0000
     27 C15       11.3667    3.3835   14.9711 C.ar      1 RES1    0.0000
     28 C16       11.4741    1.8716   14.9309 C.3       1 RES1    0.0000
     29 H11       10.7183    1.5151   14.4388 H         1 RES1    0.0000
     30 H12       12.2811    1.6269   14.4522 H         1 RES1    0.0000
     31 N3        11.5071    1.2502   16.2712 N.3       1 RES1    0.0000
     32 C17       10.1761    1.1672   16.8398 C.ar      1 RES1    0.0000
     33 C18        9.3751    0.1085   16.4473 C.ar      1 RES1    0.0000
     34 H13        9.6764   -0.4831   15.7963 H         1 RES1    0.0000
     35 C19        8.1345   -0.0713   17.0179 C.ar      1 RES1    0.0000
     36 H14        7.6100   -0.7895   16.7479 H         1 RES1    0.0000
     37 C20        7.6531    0.8065   17.9906 C.ar      1 RES1    0.0000
     38 N4         6.3799    0.5299   18.5899 N.3       1 RES1    0.0000
     39 C21        5.2630    0.7927   17.6785 C.3       1 RES1    0.0000
     40 H15        4.4480    0.4235   18.0518 H         1 RES1    0.0000
     41 H16        5.4304    0.3564   16.8283 H         1 RES1    0.0000
     42 C22        5.0875    2.2780   17.4544 C.ar      1 RES1    0.0000
     43 C23        6.1636    1.3683   19.7674 C.3       1 RES1    0.0000
     44 H17        5.2517    1.2608   20.0776 H         1 RES1    0.0000
     45 H18        6.7578    1.0821   20.4797 H         1 RES1    0.0000
     46 C24       12.3641    2.0652   17.1251 C.3       1 RES1    0.0000
     47 H19       12.5082    1.5992   17.9637 H         1 RES1    0.0000
     48 H20       13.2279    2.1684   16.6943 H         1 RES1    0.0000
     49 N5        10.7228    6.2052   12.6543 N.pl3     1 RES1    0.0000
     50 N6         3.7828    4.5369   14.8428 N.pl3     1 RES1    0.0000
     51 O1        10.7012    7.4299   12.7060 O.2       1 RES1    0.0000
     52 O2        10.4605    5.5839   11.6318 O.2       1 RES1    0.0000
     53 O3         4.0314    5.6956   14.4790 O.2       1 RES1    0.0000
     54 O4         3.0920    3.7804   14.1975 O.2       1 RES1    0.0000
@<TRIPOS>BOND
     1    1    2 1
     2    3    1 ar
     3    4    3 ar
     4    5    4 1
     5    6    4 ar
     6    7    6 1
     7    8    6 ar
     8    9    8 1
     9   10    9 1
    10   11   10 1
    11   12   10 1
    12   13   10 1
    13   14   13 ar
    14   15   14 1
    15   16   15 1
    16   17   15 1
    17   18   15 1
    18   19   18 1
    19   20   19 ar
    20   21   20 1
    21   22   20 ar
    22   23   22 1
    23   24   22 ar
    24   25   24 ar
    25   26   25 1
    26   27   19 ar
    27   28   27 1
    28   29   28 1
    29   30   28 1
    30   31   28 1
    31   32   14 ar
    32   33   32 ar
    33   34   33 1
    34   35   33 ar
    35   36   35 1
    36   37   13 ar
    37   38   37 1
    38   39   38 1
    39   40   39 1
    40   41   39 1
    41   42    1 ar
    42   43    9 1
    43   44   43 1
    44   45   43 1
    45   46   18 1
    46   47   46 1
    47   48   46 1
    48   49   24 1
    49   50    3 1
    50   51   49 2
    51   52   49 2
    52   53   50 2
    53   54   50 2
    54    8   42 ar
    55   25   27 ar
    56   31   32 1
    57   31   46 1
    58   35   37 ar
    59   38   43 1
    60   39   42 1
@<TRIPOS>SUBSTRUCTURE
     1 RES1 1

@<TRIPOS>CRYSIN
  20.5740   10.6400   19.1830  90.0000  93.5090  90.0000  15 1

