# MOL2 file generated by ConQuest
# Please check atom types

@<TRIPOS>MOLECULE
EWEFAP
    64    66     1
SMALL
NO_CHARGES
****
Generated from CSD

@<TRIPOS>ATOM
      1 N1         6.6669    5.4066    6.5838 N.pl3     1 RES1    0.0000
      2 N2         2.8314    2.5508    5.5149 N.pl3     1 RES1    0.0000
      3 O1         3.0361    8.4996    5.3569 O.3       1 RES1    0.0000
      4 O2         1.4737    7.3593    4.2048 O.2       1 RES1    0.0000
      5 O3         7.0468    6.5362    6.8197 O.2       1 RES1    0.0000
      6 O4         7.3383    4.3964    6.7275 O.2       1 RES1    0.0000
      7 O5         3.3783    1.6423    6.0831 O.2       1 RES1    0.0000
      8 O6         1.7768    2.4432    4.9403 O.2       1 RES1    0.0000
      9 O7         2.0026    4.3433    8.5779 O.3       1 RES1    0.0000
     10 C1         2.4968    7.3987    4.8416 C.2       1 RES1    0.0000
     11 C2         3.3170    6.2131    5.1922 C.ar      1 RES1    0.0000
     12 C3         4.5985    6.3546    5.6875 C.ar      1 RES1    0.0000
     13 H1         4.9860    7.1974    5.7561 H         1 RES1    0.0000
     14 C4         5.2940    5.2392    6.0778 C.ar      1 RES1    0.0000
     15 C5         4.7457    3.9769    6.0274 C.ar      1 RES1    0.0000
     16 H2         5.2165    3.2287    6.3158 H         1 RES1    0.0000
     17 C6         3.4744    3.8755    5.5331 C.ar      1 RES1    0.0000
     18 C7         2.7599    4.9577    5.0904 C.ar      1 RES1    0.0000
     19 H3         1.9110    4.8456    4.7280 H         1 RES1    0.0000
     20 C8         2.3119    9.7480    5.2415 C.3       1 RES1    0.0000
     21 H4         1.3523    9.5516    5.2319 H         1 RES1    0.0000
     22 C9         2.6365   10.5546    6.5270 C.3       1 RES1    0.0000
     23 C10        1.7882   10.0125    7.7588 C.3       1 RES1    0.0000
     24 C11        1.8912    8.4869    7.9711 C.ar      1 RES1    0.0000
     25 C12        2.9643    7.8927    8.6379 C.ar      1 RES1    0.0000
     26 H5         3.6505    8.4355    8.9521 H         1 RES1    0.0000
     27 C13        3.0486    6.5285    8.8534 C.ar      1 RES1    0.0000
     28 H6         3.7856    6.1685    9.2930 H         1 RES1    0.0000
     29 C14        2.0390    5.7063    8.4139 C.ar      1 RES1    0.0000
     30 C15        0.9612    6.2589    7.7481 C.ar      1 RES1    0.0000
     31 H7         0.2778    5.7101    7.4404 H         1 RES1    0.0000
     32 C16        0.8918    7.6162    7.5390 C.ar      1 RES1    0.0000
     33 H8         0.1540    7.9647    7.0930 H         1 RES1    0.0000
     34 C17        2.6804   10.3927    3.9260 C.ar      1 RES1    0.0000
     35 C18        1.7308   11.1132    3.2260 C.ar      1 RES1    0.0000
     36 H9         0.8598   11.1710    3.5465 H         1 RES1    0.0000
     37 C19        2.0780   11.7487    2.0509 C.ar      1 RES1    0.0000
     38 H10        1.4393   12.2447    1.5921 H         1 RES1    0.0000
     39 C20        3.3442   11.6603    1.5546 C.ar      1 RES1    0.0000
     40 H11        3.5692   12.1052    0.7698 H         1 RES1    0.0000
     41 C21        4.2775   10.9179    2.2118 C.ar      1 RES1    0.0000
     42 H12        5.1385   10.8421    1.8687 H         1 RES1    0.0000
     43 C22        3.9414   10.2771    3.3932 C.ar      1 RES1    0.0000
     44 H13        4.5784    9.7609    3.8328 H         1 RES1    0.0000
     45 C23        4.1372   10.4901    6.8014 C.3       1 RES1    0.0000
     46 H14        4.6180   10.7475    6.0102 H         1 RES1    0.0000
     47 H15        4.3789    9.5940    7.0469 H         1 RES1    0.0000
     48 H16        4.3574   11.0888    7.5176 H         1 RES1    0.0000
     49 C24        2.2831   12.0360    6.2557 C.3       1 RES1    0.0000
     50 H17        2.3705   12.5387    7.0684 H         1 RES1    0.0000
     51 H18        1.3794   12.0953    5.9373 H         1 RES1    0.0000
     52 H19        2.8800   12.3917    5.5932 H         1 RES1    0.0000
     53 C25        0.3059   10.4007    7.5894 C.3       1 RES1    0.0000
     54 H20        0.0101   10.1570    6.7092 H         1 RES1    0.0000
     55 H21        0.2074   11.3479    7.7106 H         1 RES1    0.0000
     56 H22       -0.2228    9.9378    8.2434 H         1 RES1    0.0000
     57 C26        2.2477   10.6929    9.0818 C.3       1 RES1    0.0000
     58 H23        1.7368   10.3439    9.8151 H         1 RES1    0.0000
     59 H24        2.1112   11.6418    9.0185 H         1 RES1    0.0000
     60 H25        3.1795   10.5133    9.2265 H         1 RES1    0.0000
     61 C27        3.0051    3.7317    9.3702 C.3       1 RES1    0.0000
     62 H26        3.8480    3.7793    8.9124 H         1 RES1    0.0000
     63 H27        2.7755    2.8127    9.5235 H         1 RES1    0.0000
     64 H28        3.0727    4.1904   10.2118 H         1 RES1    0.0000
@<TRIPOS>BOND
     1    1    5 2
     2    2    7 2
     3    3   10 1
     4    4   10 2
     5    6    1 2
     6    8    2 2
     7    9   29 1
     8   10   11 1
     9   11   12 ar
    10   12   13 1
    11   14    1 1
    12   15   14 ar
    13   16   15 1
    14   17    2 1
    15   18   11 ar
    16   19   18 1
    17   20    3 1
    18   21   20 1
    19   22   20 1
    20   23   22 1
    21   24   23 1
    22   25   24 ar
    23   26   25 1
    24   27   25 ar
    25   28   27 1
    26   29   27 ar
    27   30   29 ar
    28   31   30 1
    29   32   24 ar
    30   33   32 1
    31   34   20 1
    32   35   34 ar
    33   36   35 1
    34   37   35 ar
    35   38   37 1
    36   39   37 ar
    37   40   39 1
    38   41   39 ar
    39   42   41 1
    40   43   34 ar
    41   44   43 1
    42   45   22 1
    43   46   45 1
    44   47   45 1
    45   48   45 1
    46   49   22 1
    47   50   49 1
    48   51   49 1
    49   52   49 1
    50   53   23 1
    51   54   53 1
    52   55   53 1
    53   56   53 1
    54   57   23 1
    55   58   57 1
    56   59   57 1
    57   60   57 1
    58   61    9 1
    59   62   61 1
    60   63   61 1
    61   64   61 1
    62   12   14 ar
    63   15   17 ar
    64   17   18 ar
    65   30   32 ar
    66   41   43 ar
@<TRIPOS>SUBSTRUCTURE
     1 RES1 1

@<TRIPOS>CRYSIN
   9.3355   24.9130   10.7218  90.0000  90.6790  90.0000 231 1

