# MOL2 file generated by ConQuest
# Please check atom types

@<TRIPOS>MOLECULE
EWEHIY
    42    43     1
SMALL
NO_CHARGES
****
Generated from CSD

@<TRIPOS>ATOM
      1 O1        19.3979    1.6751    7.0205 O.3       1 RES1    0.0000
      2 C1        20.4584    0.8956    7.6710 C.3       1 RES1    0.0000
      3 C2        21.6132    0.7722    6.6690 C.3       1 RES1    0.0000
      4 N1        21.1189    0.3315    5.3547 N.3       1 RES1    0.0000
      5 C3        20.9528   -0.9816    5.1368 C.2       1 RES1    0.0000
      6 C4        21.3750   -1.9627    5.9748 C.2       1 RES1    0.0000
      7 C5        22.2549   -1.6693    7.0569 C.2       1 RES1    0.0000
      8 C6        22.6645   -0.2142    7.1860 C.3       1 RES1    0.0000
      9 O2        22.7481   -2.5235    7.8022 O.2       1 RES1    0.0000
     10 C7        20.8219    1.3089    4.3110 C.3       1 RES1    0.0000
     11 C8        22.0280    1.8707    3.6238 C.2       1 RES1    0.0000
     12 C9        23.2765    1.5200    3.8278 C.2       1 RES1    0.0000
     13 C10       20.8402    1.6632    8.9152 C.3       1 RES1    0.0000
     14 C11       18.2768    1.0557    6.6577 C.2       1 RES1    0.0000
     15 O3        18.0294   -0.1070    6.8520 O.2       1 RES1    0.0000
     16 C12       17.3366    1.9973    5.9686 C.ar      1 RES1    0.0000
     17 C13       17.5993    3.3588    5.8643 C.ar      1 RES1    0.0000
     18 C14       16.6829    4.1946    5.2417 C.ar      1 RES1    0.0000
     19 C15       15.5226    3.6342    4.7385 C.ar      1 RES1    0.0000
     20 N2        14.5258    4.5198    4.1066 N.pl3     1 RES1    0.0000
     21 O4        13.4735    4.0229    3.7316 O.2       1 RES1    0.0000
     22 O5        14.7928    5.7061    3.9883 O.2       1 RES1    0.0000
     23 C16       15.2395    2.2893    4.8231 C.ar      1 RES1    0.0000
     24 C17       16.1631    1.4674    5.4471 C.ar      1 RES1    0.0000
     25 H1        20.1160   -0.0131    7.8916 H         1 RES1    0.0000
     26 H2        22.0139    1.6777    6.5472 H         1 RES1    0.0000
     27 H3        20.4888   -1.2273    4.3060 H         1 RES1    0.0000
     28 H4        21.1183   -2.8870    5.8084 H         1 RES1    0.0000
     29 H5        23.4786   -0.1100    6.6359 H         1 RES1    0.0000
     30 H6        22.8718   -0.0208    8.1448 H         1 RES1    0.0000
     31 H7        20.2853    2.0540    4.7250 H         1 RES1    0.0000
     32 H8        20.2446    0.8523    3.6221 H         1 RES1    0.0000
     33 H9        21.8428    2.5584    2.9577 H         1 RES1    0.0000
     34 H10       23.9881    1.9274    3.3349 H         1 RES1    0.0000
     35 H11       23.4934    0.8191    4.4914 H         1 RES1    0.0000
     36 H12       21.5352    1.1720    9.4331 H         1 RES1    0.0000
     37 H13       21.1988    2.5439    8.6434 H         1 RES1    0.0000
     38 H14       20.0260    1.7739    9.4618 H         1 RES1    0.0000
     39 H15       18.4096    3.7117    6.2417 H         1 RES1    0.0000
     40 H16       16.8229    5.1583    5.1793 H         1 RES1    0.0000
     41 H17       14.4254    1.9420    4.4340 H         1 RES1    0.0000
     42 H18       15.9980    0.5140    5.5134 H         1 RES1    0.0000
@<TRIPOS>BOND
     1    1    2 1
     2    2    3 1
     3    3    4 1
     4    4    5 1
     5    5    6 2
     6    6    7 1
     7    7    8 1
     8    8    3 1
     9    9    7 2
    10   10    4 1
    11   11   10 1
    12   12   11 2
    13   13    2 1
    14   14    1 1
    15   15   14 2
    16   16   14 1
    17   17   16 ar
    18   18   17 ar
    19   19   18 ar
    20   20   19 1
    21   21   20 2
    22   22   20 2
    23   23   19 ar
    24   24   16 ar
    25   25    2 1
    26   26    3 1
    27   27    5 1
    28   28    6 1
    29   29    8 1
    30   30    8 1
    31   31   10 1
    32   32   10 1
    33   33   11 1
    34   34   12 1
    35   35   12 1
    36   36   13 1
    37   37   13 1
    38   38   13 1
    39   39   17 1
    40   40   18 1
    41   41   23 1
    42   42   24 1
    43   23   24 ar
@<TRIPOS>SUBSTRUCTURE
     1 RES1 1

@<TRIPOS>CRYSIN
  35.6530    6.9183   14.1033  90.0000 112.2564  90.0000  15 1

