# MOL2 file generated by ConQuest
# Please check atom types

@<TRIPOS>MOLECULE
EWEVIM
    19    19     1
SMALL
NO_CHARGES
****
Generated from CSD

@<TRIPOS>ATOM
      1 O1         2.9675    1.7106    0.1111 O.3       1 RES1    0.0000
      2 H1         3.0856    1.0595   -0.4215 H         1 RES1    0.0000
      3 O2         3.8858    0.2923    1.5802 O.2       1 RES1    0.0000
      4 O3         1.8060    6.4420    4.8504 O.2       1 RES1    0.0000
      5 O4         2.9657    5.3611    6.3065 O.2       1 RES1    0.0000
      6 N1         4.0275    1.0511    4.1553 N.pl3     1 RES1    0.0000
      7 H2         4.2074    0.4045    3.5867 H         1 RES1    0.0000
      8 H3         4.2567    1.0131    5.0076 H         1 RES1    0.0000
      9 N2         2.5044    5.4952    5.1793 N.pl3     1 RES1    0.0000
     10 C1         3.3841    1.3952    1.3276 C.2       1 RES1    0.0000
     11 C2         3.2028    2.4531    2.3307 C.ar      1 RES1    0.0000
     12 C3         3.5284    2.2149    3.6972 C.ar      1 RES1    0.0000
     13 C4         3.2962    3.2656    4.6166 C.ar      1 RES1    0.0000
     14 H4         3.4953    3.1469    5.5377 H         1 RES1    0.0000
     15 C5         2.7836    4.4536    4.1712 C.ar      1 RES1    0.0000
     16 C6         2.4854    4.7278    2.8365 C.ar      1 RES1    0.0000
     17 H5         2.1473    5.5723    2.5608 H         1 RES1    0.0000
     18 C7         2.7088    3.7053    1.9368 C.ar      1 RES1    0.0000
     19 H6         2.5212    3.8546    1.0179 H         1 RES1    0.0000
@<TRIPOS>BOND
     1    1    2 1
     2    3   10 2
     3    4    9 2
     4    5    9 2
     5    6    7 1
     6    8    6 1
     7    9   15 1
     8   10    1 1
     9   11   10 1
    10   12    6 1
    11   13   12 ar
    12   14   13 1
    13   15   13 ar
    14   16   15 ar
    15   17   16 1
    16   18   11 ar
    17   19   18 1
    18   11   12 ar
    19   16   18 ar
@<TRIPOS>SUBSTRUCTURE
     1 RES1 1

@<TRIPOS>CRYSIN
   3.6291    7.7339   26.5606  90.0000  93.5690  90.0000 231 1

