# MOL2 file generated by ConQuest
# Please check atom types

@<TRIPOS>MOLECULE
EWEVIM03
    39    38     3
SMALL
NO_CHARGES
****
Generated from CSD

@<TRIPOS>ATOM
      1 O1         1.4611    8.4073    1.4446 O.2       1 RES1    0.0000
      2 O2         1.8516    6.7301    0.0068 O.3       1 RES1    0.0000
      3 H1         2.1080    7.4048   -0.4556 H         1 RES1    0.0000
      4 O3        -1.1995    3.4977    5.6716 O.2       1 RES1    0.0000
      5 O4        -0.6701    2.0228    4.2611 O.2       1 RES1    0.0000
      6 N1         0.3679    7.7976    3.8465 N.pl3     1 RES1    0.0000
      7 H2         0.7369    8.4169    3.3526 H         1 RES1    0.0000
      8 H3        -0.0747    7.9026    4.5781 H         1 RES1    0.0000
      9 N2        -0.7065    3.1693    4.6213 N.pl3     1 RES1    0.0000
     10 C1         0.8671    6.1763    2.0795 C.ar      1 RES1    0.0000
     11 C2         0.3730    6.5376    3.3662 C.ar      1 RES1    0.0000
     12 C3        -0.1413    5.4965    4.1822 C.ar      1 RES1    0.0000
     13 H4        -0.4757    5.6910    5.0289 H         1 RES1    0.0000
     14 C4        -0.1445    4.2131    3.7280 C.ar      1 RES1    0.0000
     15 C5         0.3354    3.8354    2.4798 C.ar      1 RES1    0.0000
     16 H5         0.3204    2.9479    2.2026 H         1 RES1    0.0000
     17 C6         0.8352    4.8339    1.6692 C.ar      1 RES1    0.0000
     18 H6         1.1602    4.6113    0.8260 H         1 RES1    0.0000
     19 C7         1.4141    7.2019    1.1727 C.2       1 RES1    0.0000
     20 O5         3.5394    4.3376   10.7548 O.2       2 RES2    0.0000
     21 O6         2.9213    2.6871   12.1341 O.3       2 RES2    0.0000
     22 H7         2.6958    3.3732   12.5965 H         2 RES2    0.0000
     23 O7         5.9042   -0.7329    6.5456 O.2       2 RES2    0.0000
     24 O8         5.3935   -2.2174    8.0209 O.2       2 RES2    0.0000
     25 N3         4.6214    3.6536    8.3676 N.pl3     2 RES2    0.0000
     26 H8         5.0555    3.7915    7.6042 H         2 RES2    0.0000
     27 H9         4.3297    4.2708    8.9321 H         2 RES2    0.0000
     28 N4         5.3256   -1.0358    7.5665 N.pl3     2 RES2    0.0000
     29 C8         3.9204    2.0673   10.0975 C.ar      2 RES2    0.0000
     30 C9         4.4978    2.3994    8.8244 C.ar      2 RES2    0.0000
     31 C10        4.9349    1.3251    8.0075 C.ar      2 RES2    0.0000
     32 H10        5.2973    1.4991    7.1681 H         2 RES2    0.0000
     33 C11        4.8252    0.0423    8.4458 C.ar      2 RES2    0.0000
     34 C12        4.2690   -0.3126    9.6855 C.ar      2 RES2    0.0000
     35 H11        4.1944   -1.2005    9.9530 H         2 RES2    0.0000
     36 C13        3.8392    0.7254   10.4844 C.ar      2 RES2    0.0000
     37 H12        3.4795    0.5248   11.3174 H         2 RES2    0.0000
     38 C14        3.4583    3.1246   11.0046 C.2       2 RES2    0.0000
     39 O9         4.7939   -2.0957    7.6944 Du        3 SUP3    0.0000
@<TRIPOS>BOND
     1    1   19 2
     2    2    3 1
     3    4    9 2
     4    5    9 2
     5    6    7 1
     6    8    6 1
     7    9   14 1
     8   10   11 ar
     9   11    6 1
    10   12   11 ar
    11   13   12 1
    12   14   12 ar
    13   15   14 ar
    14   16   15 1
    15   17   10 ar
    16   18   17 1
    17   19    2 1
    18   20   38 2
    19   21   22 1
    20   23   28 2
    21   24   28 2
    22   25   26 1
    23   27   25 1
    24   28   33 1
    25   29   30 ar
    26   30   25 1
    27   31   30 ar
    28   32   31 1
    29   33   31 ar
    30   34   33 ar
    31   35   34 1
    32   36   29 ar
    33   37   36 1
    34   38   21 1
    35   10   19 1
    36   15   17 ar
    37   29   38 1
    38   34   36 ar
@<TRIPOS>SUBSTRUCTURE
     1 RES1 1
     2 RES2 20
     3 SUP3 39

@<TRIPOS>CRYSIN
   3.7522    8.5536   24.4118  88.7380  86.6250  87.7690   2 1

