# MOL2 file generated by ConQuest
# Please check atom types

@<TRIPOS>MOLECULE
EWEVIM02
    57    57     3
SMALL
NO_CHARGES
****
Generated from CSD

@<TRIPOS>ATOM
      1 O1         1.6123    6.6581    0.2810 O.3       1 RES1    0.0000
      2 H1         1.3161    7.3295   -0.1653 H         1 RES1    0.0000
      3 O2         2.2454    8.3204    1.6240 O.2       1 RES1    0.0000
      4 C1         3.5914    5.3595    4.4205 C.ar      1 RES1    0.0000
      5 H2         3.9573    5.5452    5.2658 H         1 RES1    0.0000
      6 O3         4.5730    3.3190    5.8894 O.2       1 RES1    0.0000
      7 C2         2.6137    6.0699    2.3207 C.ar      1 RES1    0.0000
      8 C3         2.5241    4.7265    1.9429 C.ar      1 RES1    0.0000
      9 H3         2.1627    4.5152    1.1013 H         1 RES1    0.0000
     10 N1         3.2858    7.6720    4.0310 N.pl3     1 RES1    0.0000
     11 H4         3.7136    7.8079    4.7990 H         1 RES1    0.0000
     12 H5         3.0023    8.3369    3.4911 H         1 RES1    0.0000
     13 C4         2.1494    7.1162    1.3950 C.2       1 RES1    0.0000
     14 C5         3.1604    6.4141    3.5883 C.ar      1 RES1    0.0000
     15 N2         3.9542    3.0080    4.8946 N.pl3     1 RES1    0.0000
     16 C6         3.4749    4.0707    3.9904 C.ar      1 RES1    0.0000
     17 C7         2.9460    3.7063    2.7581 C.ar      1 RES1    0.0000
     18 H6         2.8802    2.8068    2.4968 H         1 RES1    0.0000
     19 O4         3.6926    1.8592    4.6174 O.2       1 RES1    0.0000
     20 O5        -0.0781    4.0437   10.9478 O.2       2 RES2    0.0000
     21 O6         0.6978    2.3674   12.1993 O.3       2 RES2    0.0000
     22 H7         0.9138    3.0371   12.6904 H         2 RES2    0.0000
     23 O7        -2.2096   -0.8605    6.4940 O.2       2 RES2    0.0000
     24 C8        -1.3300    1.1501    8.0511 C.ar      2 RES2    0.0000
     25 H8        -1.7313    1.3566    7.2253 H         2 RES2    0.0000
     26 C9        -0.1391    0.4558   10.4596 C.ar      2 RES2    0.0000
     27 H9         0.2654    0.2253   11.2755 H         2 RES2    0.0000
     28 N3        -1.1715    3.4537    8.5651 N.pl3     2 RES2    0.0000
     29 H10       -1.6513    3.5635    7.8598 H         2 RES2    0.0000
     30 H11       -0.9556    4.1026    9.1191 H         2 RES2    0.0000
     31 N4        -1.5762   -1.1923    7.4708 N.pl3     2 RES2    0.0000
     32 C10       -0.3267    1.8109   10.1565 C.ar      2 RES2    0.0000
     33 C11       -1.1205   -0.1501    8.4085 C.ar      2 RES2    0.0000
     34 C12       -0.5249   -0.5444    9.6046 C.ar      2 RES2    0.0000
     35 H12       -0.3943   -1.4502    9.8144 H         2 RES2    0.0000
     36 C13        0.1011    2.8372   11.1197 C.2       2 RES2    0.0000
     37 C14       -0.9401    2.1829    8.9290 C.ar      2 RES2    0.0000
     38 O8        -1.3214   -2.3396    7.7178 O.2       2 RES2    0.0000
     39 O9         0.4287   12.4552   10.7095 O.2       3 RES3    0.0000
     40 O10        0.5805   10.8885   12.2868 O.3       3 RES3    0.0000
     41 H13        0.9470   11.5511   12.6928 H         3 RES3    0.0000
     42 O11       -2.4547    7.5032    6.7376 O.2       3 RES3    0.0000
     43 N5        -2.1086    7.2298    7.8629 N.pl3     3 RES3    0.0000
     44 C15       -1.1050    7.9597    9.9873 C.ar      3 RES3    0.0000
     45 H14       -1.2169    7.0942   10.3347 H         3 RES3    0.0000
     46 N6        -0.6446   11.7711    8.3382 N.pl3     3 RES3    0.0000
     47 H15       -0.9462   11.8979    7.5510 H         3 RES3    0.0000
     48 H16       -0.3160   12.4243    8.8493 H         3 RES3    0.0000
     49 C16        0.2384   11.2988   11.0776 C.2       3 RES3    0.0000
     50 C17       -0.5472    8.9711   10.7356 C.ar      3 RES3    0.0000
     51 H17       -0.2736    8.7874   11.6159 H         3 RES3    0.0000
     52 C18       -0.3735   10.2641   10.2316 C.ar      3 RES3    0.0000
     53 C19       -1.4937    8.2832    8.6958 C.ar      3 RES3    0.0000
     54 C20       -0.7830   10.5636    8.9022 C.ar      3 RES3    0.0000
     55 C21       -1.3568    9.5190    8.1437 C.ar      3 RES3    0.0000
     56 H18       -1.6422    9.6782    7.2617 H         3 RES3    0.0000
     57 O12       -2.2995    6.1382    8.3633 O.2       3 RES3    0.0000
@<TRIPOS>BOND
     1    1    2 1
     2    3   13 2
     3    4    5 1
     4    6   15 2
     5    7    8 ar
     6    8    9 1
     7   10   11 1
     8   12   10 1
     9   13    1 1
    10   14    4 ar
    11   15   16 1
    12   16    4 ar
    13   17    8 ar
    14   18   17 1
    15   19   15 2
    16   20   36 2
    17   21   22 1
    18   23   31 2
    19   24   25 1
    20   26   27 1
    21   28   29 1
    22   30   28 1
    23   31   33 1
    24   32   26 ar
    25   33   24 ar
    26   34   26 ar
    27   35   34 1
    28   36   21 1
    29   37   24 ar
    30   38   31 2
    31   39   49 2
    32   40   41 1
    33   42   43 2
    34   43   53 1
    35   44   45 1
    36   46   47 1
    37   48   46 1
    38   49   40 1
    39   50   44 ar
    40   51   50 1
    41   52   49 1
    42   53   44 ar
    43   54   46 1
    44   55   53 ar
    45   56   55 1
    46   57   43 2
    47    7   13 1
    48    7   14 ar
    49   10   14 1
    50   16   17 ar
    51   28   37 1
    52   32   36 1
    53   32   37 ar
    54   33   34 ar
    55   50   52 ar
    56   52   54 ar
    57   54   55 ar
@<TRIPOS>SUBSTRUCTURE
     1 RES1 1
     2 RES2 20
     3 RES3 39

@<TRIPOS>CRYSIN
   3.7105   25.3092   24.3555  90.0000  93.4590  90.0000  14 1

