# MOL2 file generated by ConQuest
# Please check atom types

@<TRIPOS>MOLECULE
EWEVIM01
    19    19     1
SMALL
NO_CHARGES
****
Generated from CSD

@<TRIPOS>ATOM
      1 O1         3.6178    0.1195    1.8616 O.3       1 RES1    0.0000
      2 H1         4.1243   -0.3948    2.3290 H         1 RES1    0.0000
      3 O2         4.7180    1.5992    3.1550 O.2       1 RES1    0.0000
      4 O3         2.6586    6.4472   -1.1504 O.2       1 RES1    0.0000
      5 O4         1.2545    4.9902   -2.1175 O.2       1 RES1    0.0000
      6 N1         4.5478    4.2005    2.5842 N.pl3     1 RES1    0.0000
      7 H2         4.8296    5.0512    2.5990 H         1 RES1    0.0000
      8 H3         4.8592    3.6270    3.1564 H         1 RES1    0.0000
      9 N2         2.1579    5.3071   -1.2901 N.pl3     1 RES1    0.0000
     10 C1         3.5670    2.3824    1.2834 C.ar      1 RES1    0.0000
     11 C2         3.8517    3.7588    1.5500 C.ar      1 RES1    0.0000
     12 C3         3.3731    4.7075    0.6508 C.ar      1 RES1    0.0000
     13 H4         3.5421    5.6339    0.7810 H         1 RES1    0.0000
     14 C4         2.6682    4.2784   -0.4029 C.ar      1 RES1    0.0000
     15 C5         2.4052    2.9368   -0.7038 C.ar      1 RES1    0.0000
     16 H5         1.9287    2.6876   -1.4869 H         1 RES1    0.0000
     17 C6         2.8584    2.0120    0.1692 C.ar      1 RES1    0.0000
     18 H6         2.6847    1.0919    0.0087 H         1 RES1    0.0000
     19 C7         4.0217    1.3590    2.1886 C.2       1 RES1    0.0000
@<TRIPOS>BOND
     1    1    2 1
     2    3   19 2
     3    4    9 2
     4    5    9 2
     5    6    7 1
     6    8    6 1
     7    9   14 1
     8   10   11 ar
     9   11    6 1
    10   12   11 ar
    11   13   12 1
    12   14   12 ar
    13   15   14 ar
    14   16   15 1
    15   17   10 ar
    16   18   17 1
    17   19    1 1
    18   10   19 1
    19   15   17 ar
@<TRIPOS>SUBSTRUCTURE
     1 RES1 1

@<TRIPOS>CRYSIN
   4.0390   27.2300    7.2840  90.0000 112.7830  90.0000  14 1

