# MOL2 file generated by ConQuest
# Please check atom types

@<TRIPOS>MOLECULE
EWIFIZ
    53    57     1
SMALL
NO_CHARGES
****
Generated from CSD

@<TRIPOS>ATOM
      1 C1        -1.8896   -0.3049    5.7772 C.3       1 RES1    0.0000
      2 H1        -2.7572   -0.6703    6.0141 H         1 RES1    0.0000
      3 H2        -1.2397   -1.0212    5.8419 H         1 RES1    0.0000
      4 C2        -1.9396    0.2019    4.3071 C.3       1 RES1    0.0000
      5 H3        -2.4064   -0.4778    3.7774 H         1 RES1    0.0000
      6 C3        -2.8046    1.4760    4.2850 C.3       1 RES1    0.0000
      7 H4        -2.6703    1.9138    3.4301 H         1 RES1    0.0000
      8 H5        -3.7354    1.2069    4.3277 H         1 RES1    0.0000
      9 C4        -1.3781    3.3089    5.1709 C.3       1 RES1    0.0000
     10 H6        -1.3961    3.7228    4.2939 H         1 RES1    0.0000
     11 H7        -0.5805    2.7612    5.2356 H         1 RES1    0.0000
     12 C5        -1.3656    4.3513    6.2245 C.3       1 RES1    0.0000
     13 H8        -0.5835    4.9135    6.1053 H         1 RES1    0.0000
     14 H9        -2.1509    4.9118    6.1259 H         1 RES1    0.0000
     15 C6        -1.4024    4.8130    8.5804 C.3       1 RES1    0.0000
     16 H10       -2.2115    5.3333    8.4553 H         1 RES1    0.0000
     17 H11       -0.6464    5.4083    8.4641 H         1 RES1    0.0000
     18 C7        -1.3839    4.2619    9.9960 C.3       1 RES1    0.0000
     19 H12       -1.5219    4.9859   10.6273 H         1 RES1    0.0000
     20 H13       -0.5168    3.8650   10.1770 H         1 RES1    0.0000
     21 C8        -2.4849    3.1998   10.1814 C.3       1 RES1    0.0000
     22 H14       -2.3562    2.7459   11.0290 H         1 RES1    0.0000
     23 H15       -3.3528    3.6342   10.2020 H         1 RES1    0.0000
     24 C9        -1.3380    1.2520    9.1543 C.3       1 RES1    0.0000
     25 H16       -1.3097    0.8415   10.0328 H         1 RES1    0.0000
     26 H17       -0.4976    1.7153    9.0101 H         1 RES1    0.0000
     27 C10       -1.5132    0.2036    8.1183 C.3       1 RES1    0.0000
     28 H18       -0.7868   -0.4369    8.1890 H         1 RES1    0.0000
     29 H19       -2.3448   -0.2691    8.2831 H         1 RES1    0.0000
     30 C11       -2.5867    1.8329    6.6630 C.3       1 RES1    0.0000
     31 H20       -3.4584    1.3942    6.7557 H         1 RES1    0.0000
     32 C12       -2.4831    2.8694    7.7843 C.3       1 RES1    0.0000
     33 H21       -3.2977    3.4119    7.7505 H         1 RES1    0.0000
     34 C13       -0.5700    0.3143    3.7730 C.3       1 RES1    0.0000
     35 H22       -0.1834   -0.5749    3.7332 H         1 RES1    0.0000
     36 H23       -0.0410    0.8338    4.3984 H         1 RES1    0.0000
     37 C14       -0.4507    0.9488    2.4015 C.ar      1 RES1    0.0000
     38 C15        0.5695    1.8618    2.0851 C.ar      1 RES1    0.0000
     39 H24        1.1774    2.0892    2.7517 H         1 RES1    0.0000
     40 C16        0.7187    2.4333    0.8520 C.ar      1 RES1    0.0000
     41 H25        1.4197    3.0150    0.6607 H         1 RES1    0.0000
     42 C17       -0.2332    2.0986   -0.0927 C.ar      1 RES1    0.0000
     43 C18       -1.2542    1.2409    0.1486 C.ar      1 RES1    0.0000
     44 H26       -1.8809    1.0604   -0.5150 H         1 RES1    0.0000
     45 C19       -1.3555    0.6396    1.3773 C.ar      1 RES1    0.0000
     46 H27       -2.0326    0.0213    1.5333 H         1 RES1    0.0000
     47 N1        -1.5356    0.7589    6.7528 N.3       1 RES1    0.0000
     48 N2        -2.5667    2.4836    5.3592 N.3       1 RES1    0.0000
     49 N3        -1.3470    3.7841    7.5783 N.3       1 RES1    0.0000
     50 N4        -2.4546    2.2195    9.0910 N.3       1 RES1    0.0000
     51 N5        -0.1117    2.6905   -1.4097 N.pl3     1 RES1    0.0000
     52 O1        -0.9776    2.4784   -2.2529 O.2       1 RES1    0.0000
     53 O2         0.8617    3.4008   -1.6613 O.2       1 RES1    0.0000
@<TRIPOS>BOND
     1    1    2 1
     2    3    1 1
     3    4    1 1
     4    5    4 1
     5    6    4 1
     6    7    6 1
     7    8    6 1
     8    9   10 1
     9   11    9 1
    10   12    9 1
    11   13   12 1
    12   14   12 1
    13   15   16 1
    14   17   15 1
    15   18   15 1
    16   19   18 1
    17   20   18 1
    18   21   18 1
    19   22   21 1
    20   23   21 1
    21   24   25 1
    22   26   24 1
    23   27   24 1
    24   28   27 1
    25   29   27 1
    26   30   31 1
    27   32   30 1
    28   33   32 1
    29   34    4 1
    30   35   34 1
    31   36   34 1
    32   37   34 1
    33   38   37 ar
    34   39   38 1
    35   40   38 ar
    36   41   40 1
    37   42   40 ar
    38   43   42 ar
    39   44   43 1
    40   45   37 ar
    41   46   45 1
    42   47    1 1
    43   48    6 1
    44   49   12 1
    45   50   21 1
    46   51   42 1
    47   52   51 2
    48   53   51 2
    49    9   48 1
    50   15   49 1
    51   24   50 1
    52   27   47 1
    53   30   47 1
    54   30   48 1
    55   32   49 1
    56   32   50 1
    57   43   45 ar
@<TRIPOS>SUBSTRUCTURE
     1 RES1 1

@<TRIPOS>CRYSIN
  14.6350    8.5170   20.0520  90.0000 132.7900  90.0000  14 1

