# MOL2 file generated by ConQuest
# Please check atom types

@<TRIPOS>MOLECULE
EWIFEV
    59    63     1
SMALL
NO_CHARGES
****
Generated from CSD

@<TRIPOS>ATOM
      1 C1         4.8149    7.6613    3.3921 C.3       1 RES1    0.0000
      2 H1         5.4689    7.0707    2.9889 H         1 RES1    0.0000
      3 H2         5.2694    8.1672    4.0834 H         1 RES1    0.0000
      4 C2         4.3367    8.6358    2.3291 C.3       1 RES1    0.0000
      5 H3         5.1163    8.8233    1.7669 H         1 RES1    0.0000
      6 C3         3.3236    7.9727    1.4267 C.3       1 RES1    0.0000
      7 H4         2.8424    8.6570    0.9354 H         1 RES1    0.0000
      8 H5         3.7903    7.4184    0.7827 H         1 RES1    0.0000
      9 C4         1.4390    6.5285    1.2126 C.3       1 RES1    0.0000
     10 H6         1.9359    5.9531    0.6094 H         1 RES1    0.0000
     11 H7         1.0102    7.2209    0.6850 H         1 RES1    0.0000
     12 C5         0.3849    5.7132    1.9496 C.3       1 RES1    0.0000
     13 H8        -0.1280    6.2947    2.5338 H         1 RES1    0.0000
     14 H9        -0.2257    5.3131    1.3102 H         1 RES1    0.0000
     15 C6        -0.0282    3.8125    3.3842 C.3       1 RES1    0.0000
     16 H10        0.3883    3.0305    3.7779 H         1 RES1    0.0000
     17 H11       -0.6454    3.5082    2.7007 H         1 RES1    0.0000
     18 C7        -0.8060    4.5563    4.4613 C.3       1 RES1    0.0000
     19 H12       -1.3979    5.2002    4.0409 H         1 RES1    0.0000
     20 H13       -1.3538    3.9244    4.9542 H         1 RES1    0.0000
     21 C8         0.1027    5.2698    5.4141 C.3       1 RES1    0.0000
     22 H14       -0.4250    5.8714    5.9605 H         1 RES1    0.0000
     23 H15        0.5139    4.6187    6.0030 H         1 RES1    0.0000
     24 C9         2.0281    6.7180    5.7023 C.3       1 RES1    0.0000
     25 H16        2.5378    6.0609    6.2015 H         1 RES1    0.0000
     26 H17        1.4876    7.2229    6.3306 H         1 RES1    0.0000
     27 C10        2.9662    7.6452    4.9826 C.3       1 RES1    0.0000
     28 H18        2.4660    8.3184    4.4960 H         1 RES1    0.0000
     29 H19        3.5479    8.0926    5.6172 H         1 RES1    0.0000
     30 C11        3.0155    6.1184    3.0566 C.3       1 RES1    0.0000
     31 C12        1.9371    5.2224    3.7732 C.3       1 RES1    0.0000
     32 C13        3.9325    5.1771    2.2425 C.3       1 RES1    0.0000
     33 H20        4.6027    5.6961    1.7889 H         1 RES1    0.0000
     34 H21        3.4085    4.6984    1.5968 H         1 RES1    0.0000
     35 H22        4.3593    4.5532    2.8346 H         1 RES1    0.0000
     36 C14        2.6745    4.0483    4.4645 C.3       1 RES1    0.0000
     37 H23        3.1934    3.5686    3.8141 H         1 RES1    0.0000
     38 H24        2.0312    3.4557    4.8613 H         1 RES1    0.0000
     39 H25        3.2552    4.3920    5.1464 H         1 RES1    0.0000
     40 C15        3.8469    9.9913    2.8283 C.3       1 RES1    0.0000
     41 H26        2.9446    9.8956    3.1716 H         1 RES1    0.0000
     42 H27        4.4142   10.2856    3.5574 H         1 RES1    0.0000
     43 C16        3.8527   11.0213    1.7637 C.ar      1 RES1    0.0000
     44 C17        2.7217   11.5151    1.1716 C.ar      1 RES1    0.0000
     45 H28        1.8995   11.1916    1.4630 H         1 RES1    0.0000
     46 C18        2.7231   12.4725    0.1606 C.ar      1 RES1    0.0000
     47 H29        1.9316   12.7779   -0.2220 H         1 RES1    0.0000
     48 C19        3.9486   12.9452   -0.2488 C.ar      1 RES1    0.0000
     49 C20        5.1053   12.5290    0.3244 C.ar      1 RES1    0.0000
     50 H30        5.9171   12.8877    0.0472 H         1 RES1    0.0000
     51 C21        5.0781   11.5736    1.3165 C.ar      1 RES1    0.0000
     52 H31        5.8767   11.2884    1.7008 H         1 RES1    0.0000
     53 N1         3.7681    6.8218    4.0424 N.3       1 RES1    0.0000
     54 N2         2.3434    7.1312    2.1700 N.3       1 RES1    0.0000
     55 N3         1.0307    4.6601    2.7448 N.3       1 RES1    0.0000
     56 N4         1.1560    6.0367    4.7416 N.3       1 RES1    0.0000
     57 N5         3.9714   14.0044   -1.2740 N.pl3     1 RES1    0.0000
     58 O1         5.0583   14.5395   -1.5181 O.2       1 RES1    0.0000
     59 O2         2.9369   14.3339   -1.8063 O.2       1 RES1    0.0000
@<TRIPOS>BOND
     1    1    2 1
     2    3    1 1
     3    4    1 1
     4    5    4 1
     5    6    4 1
     6    7    6 1
     7    8    6 1
     8    9   10 1
     9   11    9 1
    10   12    9 1
    11   13   12 1
    12   14   12 1
    13   15   16 1
    14   17   15 1
    15   18   15 1
    16   19   18 1
    17   20   18 1
    18   21   18 1
    19   22   21 1
    20   23   21 1
    21   24   25 1
    22   26   24 1
    23   27   24 1
    24   28   27 1
    25   29   27 1
    26   30   31 1
    27   31   36 1
    28   32   30 1
    29   33   32 1
    30   34   32 1
    31   35   32 1
    32   36   37 1
    33   38   36 1
    34   39   36 1
    35   40    4 1
    36   41   40 1
    37   42   40 1
    38   43   40 1
    39   44   43 ar
    40   45   44 1
    41   46   44 ar
    42   47   46 1
    43   48   46 ar
    44   49   48 ar
    45   50   49 1
    46   51   43 ar
    47   52   51 1
    48   53    1 1
    49   54    6 1
    50   55   12 1
    51   56   21 1
    52   57   48 1
    53   58   57 2
    54   59   57 2
    55    9   54 1
    56   15   55 1
    57   24   56 1
    58   27   53 1
    59   30   53 1
    60   30   54 1
    61   31   55 1
    62   31   56 1
    63   49   51 ar
@<TRIPOS>SUBSTRUCTURE
     1 RES1 1

@<TRIPOS>CRYSIN
  12.2480   10.0780   15.8750  90.0000  97.2600  90.0000  14 1

