# MOL2 file generated by ConQuest
# Please check atom types

@<TRIPOS>MOLECULE
EWIHAV
    38    39     1
SMALL
NO_CHARGES
****
Generated from CSD

@<TRIPOS>ATOM
      1 O1         4.0335    2.3925    6.9881 O.2       1 RES1    0.0000
      2 O2         3.5663    4.5155    7.0100 O.2       1 RES1    0.0000
      3 N1         4.7648    3.6911    5.3360 N.3       1 RES1    0.0000
      4 N2         4.1024    3.5267    6.5019 N.pl3     1 RES1    0.0000
      5 C1         5.4526    2.5153    4.7666 C.3       1 RES1    0.0000
      6 H1         5.0913    1.7268    5.2212 H         1 RES1    0.0000
      7 C2         5.1605    2.3434    3.2816 C.3       1 RES1    0.0000
      8 H2         5.5392    3.0838    2.7832 H         1 RES1    0.0000
      9 H3         4.2020    2.3344    3.1327 H         1 RES1    0.0000
     10 C3         5.7715    1.0304    2.8023 C.3       1 RES1    0.0000
     11 H4         5.3302    0.2894    3.2471 H         1 RES1    0.0000
     12 H5         5.6232    0.9372    1.8478 H         1 RES1    0.0000
     13 C4         7.2638    0.9698    3.0868 C.3       1 RES1    0.0000
     14 H6         7.6018    0.0958    2.8376 H         1 RES1    0.0000
     15 H7         7.7201    1.6329    2.5447 H         1 RES1    0.0000
     16 C5         7.5666    1.2257    4.5485 C.3       1 RES1    0.0000
     17 H8         8.5282    1.2592    4.6746 H         1 RES1    0.0000
     18 H9         7.2207    0.4926    5.0797 H         1 RES1    0.0000
     19 C6         6.9504    2.5324    5.0337 C.3       1 RES1    0.0000
     20 H10        7.1134    2.6391    5.9835 H         1 RES1    0.0000
     21 H11        7.3584    3.2793    4.5701 H         1 RES1    0.0000
     22 C7         5.0272    5.0536    4.8243 C.3       1 RES1    0.0000
     23 H12        5.5957    4.9294    4.0354 H         1 RES1    0.0000
     24 C8         3.7701    5.7587    4.3119 C.3       1 RES1    0.0000
     25 H13        3.3234    5.1958    3.6598 H         1 RES1    0.0000
     26 H14        3.1584    5.9107    5.0492 H         1 RES1    0.0000
     27 C9         4.1397    7.0894    3.6709 C.3       1 RES1    0.0000
     28 H15        4.6681    6.9265    2.8736 H         1 RES1    0.0000
     29 H16        3.3299    7.5513    3.4028 H         1 RES1    0.0000
     30 C10        4.9279    7.9688    4.6233 C.3       1 RES1    0.0000
     31 H17        4.3717    8.2030    5.3824 H         1 RES1    0.0000
     32 H18        5.1803    8.7894    4.1715 H         1 RES1    0.0000
     33 C11        6.1782    7.2548    5.1127 C.3       1 RES1    0.0000
     34 H19        6.6432    7.8216    5.7483 H         1 RES1    0.0000
     35 H20        6.7725    7.0971    4.3621 H         1 RES1    0.0000
     36 C12        5.8397    5.9222    5.7771 C.3       1 RES1    0.0000
     37 H21        6.6580    5.4623    6.0205 H         1 RES1    0.0000
     38 H22        5.3304    6.0813    6.5867 H         1 RES1    0.0000
@<TRIPOS>BOND
     1    1    4 2
     2    2    4 2
     3    3    4 1
     4    5    3 1
     5    6    5 1
     6    7    5 1
     7    8    7 1
     8    9    7 1
     9   10    7 1
    10   11   10 1
    11   12   10 1
    12   13   10 1
    13   14   13 1
    14   15   13 1
    15   16   13 1
    16   17   16 1
    17   18   16 1
    18   19    5 1
    19   20   19 1
    20   21   19 1
    21   22    3 1
    22   23   22 1
    23   24   22 1
    24   25   24 1
    25   26   24 1
    26   27   24 1
    27   28   27 1
    28   29   27 1
    29   30   27 1
    30   31   30 1
    31   32   30 1
    32   33   30 1
    33   34   33 1
    34   35   33 1
    35   36   22 1
    36   37   36 1
    37   38   36 1
    38   16   19 1
    39   33   36 1
@<TRIPOS>SUBSTRUCTURE
     1 RES1 1

@<TRIPOS>CRYSIN
   5.9136   19.1658   10.8946  90.0000  91.8520  90.0000 231 1

