# MOL2 file generated by ConQuest
# Please check atom types

@<TRIPOS>MOLECULE
EWIJIE
    46    49     1
SMALL
NO_CHARGES
****
Generated from CSD

@<TRIPOS>ATOM
      1 O1         6.4386    3.9798   13.0569 O.3       1 RES1    0.0000
      2 O2         1.3279    6.5971   15.6266 O.3       1 RES1    0.0000
      3 O3         3.2944    7.1322   14.1437 O.2       1 RES1    0.0000
      4 O4         6.1395    7.4357   12.8413 O.3       1 RES1    0.0000
      5 N1         6.9201    5.2614   12.6031 N.2       1 RES1    0.0000
      6 N2         3.8466    2.2830   13.0612 N.3       1 RES1    0.0000
      7 C1         5.2896    4.1710   13.7210 C.2       1 RES1    0.0000
      8 C2         4.4615    3.0076   14.1820 C.3       1 RES1    0.0000
      9 H1         5.0748    2.3704   14.6506 H         1 RES1    0.0000
     10 C3         3.4473    3.5396   15.2389 C.3       1 RES1    0.0000
     11 H2         3.9339    3.5483   16.1135 H         1 RES1    0.0000
     12 C4         2.2727    2.5751   15.4145 C.3       1 RES1    0.0000
     13 H3         1.8217    2.4427   14.5430 H         1 RES1    0.0000
     14 H4         2.6105    1.6970   15.7219 H         1 RES1    0.0000
     15 C5         1.2846    3.1103   16.4149 C.2       1 RES1    0.0000
     16 H5         0.8160    2.5063   16.9783 H         1 RES1    0.0000
     17 C6         1.0561    4.4180   16.5205 C.2       1 RES1    0.0000
     18 H6         0.4122    4.7421   17.1396 H         1 RES1    0.0000
     19 C7         1.7971    5.3463   15.6858 C.2       1 RES1    0.0000
     20 C8         2.9379    4.9583   15.0212 C.2       1 RES1    0.0000
     21 C9         3.6912    5.9438   14.3020 C.2       1 RES1    0.0000
     22 C10        4.9583    5.4843   13.7440 C.2       1 RES1    0.0000
     23 C11        6.0319    6.1207   13.0368 C.2       1 RES1    0.0000
     24 C12        7.2498    7.8359   11.9829 C.3       1 RES1    0.0000
     25 H7         7.0447    7.6145   11.0406 H         1 RES1    0.0000
     26 H8         8.0717    7.3500   12.2454 H         1 RES1    0.0000
     27 C13        7.4595    9.3122   12.1266 C.ar      1 RES1    0.0000
     28 C14        7.0867   10.1875   11.1241 C.ar      1 RES1    0.0000
     29 H9         6.6719    9.8514   10.3393 H         1 RES1    0.0000
     30 C15        7.3100   11.5470   11.2506 C.ar      1 RES1    0.0000
     31 H10        7.0317   12.1386   10.5609 H         1 RES1    0.0000
     32 C16        7.9377   12.0498   12.3790 C.ar      1 RES1    0.0000
     33 H11        8.0878   12.9834   12.4670 H         1 RES1    0.0000
     34 C17        8.3434   11.1808   13.3752 C.ar      1 RES1    0.0000
     35 H12        8.7854   11.5154   14.1471 H         1 RES1    0.0000
     36 C18        8.1053    9.8227   13.2483 C.ar      1 RES1    0.0000
     37 H13        8.3868    9.2319   13.9363 H         1 RES1    0.0000
     38 C19        3.2512    3.1453   12.0419 C.3       1 RES1    0.0000
     39 H14        3.9585    3.6475   11.5849 H         1 RES1    0.0000
     40 H15        2.6280    3.7711   12.4670 H         1 RES1    0.0000
     41 H16        2.7691    2.5957   11.3891 H         1 RES1    0.0000
     42 C20        4.7642    1.3192   12.4637 C.3       1 RES1    0.0000
     43 H17        5.0741    0.6930   13.1511 H         1 RES1    0.0000
     44 H18        5.5330    1.7925   12.0819 H         1 RES1    0.0000
     45 H19        4.3021    0.8240   11.7549 H         1 RES1    0.0000
     46 H20        1.9543    7.0488   15.0550 H         1 RES1    0.0000
@<TRIPOS>BOND
     1    1    5 1
     2    2   19 1
     3    3   21 2
     4    4   23 1
     5    5   23 2
     6    6    8 1
     7    7    1 1
     8    8    7 1
     9    9    8 1
    10   10    8 1
    11   11   10 1
    12   12   10 1
    13   13   12 1
    14   14   12 1
    15   15   12 1
    16   16   15 1
    17   17   15 2
    18   18   17 1
    19   19   17 1
    20   20   10 1
    21   21   20 1
    22   22    7 2
    23   23   22 1
    24   24    4 1
    25   25   24 1
    26   26   24 1
    27   27   24 1
    28   28   27 ar
    29   29   28 1
    30   30   28 ar
    31   31   30 1
    32   32   30 ar
    33   33   32 1
    34   34   32 ar
    35   35   34 1
    36   36   27 ar
    37   37   36 1
    38   38    6 1
    39   39   38 1
    40   40   38 1
    41   41   38 1
    42   42    6 1
    43   43   42 1
    44   44   42 1
    45   45   42 1
    46   46    2 1
    47   19   20 2
    48   21   22 1
    49   34   36 ar
@<TRIPOS>SUBSTRUCTURE
     1 RES1 1

@<TRIPOS>CRYSIN
   6.4713   12.2439   21.5133  90.0000  90.0000  90.0000  19 1

