# MOL2 file generated by ConQuest
# Please check atom types

@<TRIPOS>MOLECULE
EWILAZ
    29    30     1
SMALL
NO_CHARGES
****
Generated from CSD

@<TRIPOS>ATOM
      1 C1         4.3473    7.7403    9.5956 C.ar      1 RES1    0.0000
      2 C2         3.5244    6.6036    9.7688 C.ar      1 RES1    0.0000
      3 C3         3.4925    5.6658    8.7193 C.ar      1 RES1    0.0000
      4 H1         2.9042    4.9232    8.7929 H         1 RES1    0.0000
      5 C4         4.2833    5.7768    7.5786 C.ar      1 RES1    0.0000
      6 C5         5.1420    6.9105    7.4695 C.ar      1 RES1    0.0000
      7 H2         5.7056    7.0056    6.7111 H         1 RES1    0.0000
      8 C6         5.1558    7.8596    8.4528 C.ar      1 RES1    0.0000
      9 H3         5.7236    8.6153    8.3617 H         1 RES1    0.0000
     10 C7         3.1533    3.8699    6.5593 C.3       1 RES1    0.0000
     11 H4         2.3301    4.3511    6.2926 H         1 RES1    0.0000
     12 H5         3.0101    3.5060    7.4684 H         1 RES1    0.0000
     13 C8         3.3907    2.7256    5.6004 C.3       1 RES1    0.0000
     14 H6         4.0978    2.1379    5.9664 H         1 RES1    0.0000
     15 H7         2.5610    2.1902    5.5243 H         1 RES1    0.0000
     16 C9         4.9786    3.9103    4.4128 C.3       1 RES1    0.0000
     17 H8         5.2724    4.1816    3.5077 H         1 RES1    0.0000
     18 H9         5.6844    3.3355    4.8014 H         1 RES1    0.0000
     19 C10        4.8152    5.1417    5.2694 C.3       1 RES1    0.0000
     20 H10        5.6950    5.5821    5.3812 H         1 RES1    0.0000
     21 H11        4.2090    5.7788    4.8141 H         1 RES1    0.0000
     22 N1         4.4166    8.7777   10.5524 N.pl3     1 RES1    0.0000
     23 N2         2.7924    6.3663   10.8783 N.3       1 RES1    0.0000
     24 N3         4.2682    4.8097    6.5897 N.3       1 RES1    0.0000
     25 O1         3.6500    8.7609   11.5391 O.2       1 RES1    0.0000
     26 O2         5.2461    9.6958   10.4047 O.2       1 RES1    0.0000
     27 O3         3.7787    3.1660    4.3079 O.3       1 RES1    0.0000
     28 H12        2.7432    7.0182   11.5034 H         1 RES1    0.0000
     29 H13        2.3301    5.5853   10.9110 H         1 RES1    0.0000
@<TRIPOS>BOND
     1    1    2 ar
     2    2    3 ar
     3    3    4 1
     4    5    3 ar
     5    6    5 ar
     6    7    6 1
     7    8    1 ar
     8    9    8 1
     9   10   11 1
    10   12   10 1
    11   13   10 1
    12   14   13 1
    13   15   13 1
    14   16   17 1
    15   18   16 1
    16   19   16 1
    17   20   19 1
    18   21   19 1
    19   22    1 1
    20   23    2 1
    21   24    5 1
    22   25   22 2
    23   26   22 2
    24   27   13 1
    25   28   23 1
    26   29   23 1
    27    6    8 ar
    28   10   24 1
    29   16   27 1
    30   19   24 1
@<TRIPOS>SUBSTRUCTURE
     1 RES1 1

@<TRIPOS>CRYSIN
  10.5914   10.4593   18.1185  90.0000  90.0000  90.0000  61 1

