# MOL2 file generated by ConQuest
# Please check atom types

@<TRIPOS>MOLECULE
EWIMUU
   474   395     6
SMALL
NO_CHARGES
****
Generated from CSD

@<TRIPOS>ATOM
      1 C1        22.3465   14.8417   37.7433 C.3       1 RES1    0.0000
      2 C2        23.9903   13.0365   36.9643 C.3       1 RES1    0.0000
      3 C3        21.8495   12.3734   38.1693 C.3       1 RES1    0.0000
      4 C4        23.0258   13.4476   38.1751 C.3       1 RES1    0.0000
      5 C5        23.7522   13.5244   39.5032 C.3       1 RES1    0.0000
      6 H1        24.4616   14.1964   39.4498 H         1 RES1    0.0000
      7 H2        23.1164   13.7729   40.2084 H         1 RES1    0.0000
      8 H3        24.1455   12.6504   39.7108 H         1 RES1    0.0000
      9 C6        23.0428   15.1938   36.4287 C.ar      1 RES1    0.0000
     10 C7        23.9454   14.2268   36.0168 C.ar      1 RES1    0.0000
     11 C8        24.7122   14.4091   34.8767 C.ar      1 RES1    0.0000
     12 H4        25.3386   13.7532   34.5969 H         1 RES1    0.0000
     13 C9        24.5346   15.5727   34.1644 C.ar      1 RES1    0.0000
     14 C10       23.6221   16.5485   34.5336 C.ar      1 RES1    0.0000
     15 H5        23.5152   17.3349   34.0133 H         1 RES1    0.0000
     16 C11       22.8741   16.3519   35.6771 C.ar      1 RES1    0.0000
     17 H6        22.2419   17.0061   35.9514 H         1 RES1    0.0000
     18 C12       23.3271   11.8211   36.3454 C.ar      1 RES1    0.0000
     19 C13       22.1865   11.4172   37.0310 C.ar      1 RES1    0.0000
     20 C14       21.4925   10.2841   36.6382 C.ar      1 RES1    0.0000
     21 H7        20.7027   10.0178   37.0970 H         1 RES1    0.0000
     22 C15       21.9631    9.5477   35.5708 C.ar      1 RES1    0.0000
     23 C16       23.0911    9.9373   34.8776 C.ar      1 RES1    0.0000
     24 H8        23.3944    9.4244   34.1392 H         1 RES1    0.0000
     25 C17       23.7743   11.0687   35.2563 C.ar      1 RES1    0.0000
     26 H9        24.5500   11.3386   34.7781 H         1 RES1    0.0000
     27 C18       20.6109   13.1688   37.7930 C.ar      1 RES1    0.0000
     28 C19       20.8827   14.5092   37.5273 C.ar      1 RES1    0.0000
     29 C20       19.8680   15.3671   37.1643 C.ar      1 RES1    0.0000
     30 H10       20.0511   16.2769   36.9680 H         1 RES1    0.0000
     31 C21       18.5751   14.8774   37.0924 C.ar      1 RES1    0.0000
     32 C22       18.2773   13.5691   37.3587 C.ar      1 RES1    0.0000
     33 H11       17.3830   13.2528   37.3059 H         1 RES1    0.0000
     34 C23       19.3085   12.7201   37.7083 C.ar      1 RES1    0.0000
     35 H12       19.1154   11.8086   37.8956 H         1 RES1    0.0000
     36 C24       22.5396   16.0552   38.6850 C.3       1 RES1    0.0000
     37 H13       23.5071   16.1339   38.8785 H         1 RES1    0.0000
     38 H14       22.2759   16.8684   38.1843 H         1 RES1    0.0000
     39 C25       21.8031   16.0695   40.0026 C.3       1 RES1    0.0000
     40 H15       20.8423   15.8854   39.8460 H         1 RES1    0.0000
     41 H16       22.1593   15.3546   40.5862 H         1 RES1    0.0000
     42 C26       21.9490   17.3921   40.6876 C.3       1 RES1    0.0000
     43 H17       21.4618   17.3725   41.5384 H         1 RES1    0.0000
     44 H18       22.8979   17.5691   40.8596 H         1 RES1    0.0000
     45 H19       21.5818   18.0981   40.1163 H         1 RES1    0.0000
     46 C27       25.4326   12.5521   37.3151 C.3       1 RES1    0.0000
     47 H20       25.3653   11.8837   38.0430 H         1 RES1    0.0000
     48 H21       25.8037   12.0874   36.5227 H         1 RES1    0.0000
     49 C28       26.4347   13.6334   37.7482 C.3       1 RES1    0.0000
     50 H22       26.3136   14.4359   37.1830 H         1 RES1    0.0000
     51 H23       26.2498   13.8926   38.6850 H         1 RES1    0.0000
     52 C29       27.8538   13.1634   37.6407 C.3       1 RES1    0.0000
     53 H24       28.4583   13.8801   37.9233 H         1 RES1    0.0000
     54 H25       27.9855   12.3788   38.2120 H         1 RES1    0.0000
     55 H26       28.0493   12.9239   36.7100 H         1 RES1    0.0000
     56 C30       21.4904   11.6067   39.4743 C.3       1 RES1    0.0000
     57 H27       21.3802   12.2769   40.1961 H         1 RES1    0.0000
     58 H28       20.6076   11.1795   39.3392 H         1 RES1    0.0000
     59 C31       22.4576   10.5218   39.9934 C.3       1 RES1    0.0000
     60 H29       22.7736    9.9784   39.2286 H         1 RES1    0.0000
     61 H30       23.2462   10.9597   40.4019 H         1 RES1    0.0000
     62 C32       21.8167    9.6156   41.0070 C.3       1 RES1    0.0000
     63 H31       22.4664    8.9472   41.3049 H         1 RES1    0.0000
     64 H32       21.5172   10.1464   41.7749 H         1 RES1    0.0000
     65 H33       21.0445    9.1670   40.6016 H         1 RES1    0.0000
     66 N1        25.3802   15.8425   32.9834 N.pl3     1 RES1    0.0000
     67 O1        25.3804   16.9793   32.5298 O.2       1 RES1    0.0000
     68 O2        26.0597   14.9221   32.5633 O.2       1 RES1    0.0000
     69 N2        21.2971    8.2680   35.2437 N.pl3     1 RES1    0.0000
     70 O3        21.9646    7.4584   34.6340 O.2       1 RES1    0.0000
     71 O4        20.1385    8.1572   35.5469 O.2       1 RES1    0.0000
     72 N3        17.4745   15.7961   36.7920 N.pl3     1 RES1    0.0000
     73 O5        16.3307   15.4261   37.0752 O.2       1 RES1    0.0000
     74 O6        17.7271   16.8756   36.3286 O.2       1 RES1    0.0000
     75 C33       22.3766   16.0177   38.7771 Du        6 SUP6    0.0000
     76 H34       21.7052   16.6701   38.4515 Du        6 SUP6    0.0000
     77 H35       22.0095   15.6406   39.6156 Du        6 SUP6    0.0000
     78 C34       23.5640   16.8416   39.1948 Du        6 SUP6    0.0000
     79 H36       24.1343   16.9864   38.3993 Du        6 SUP6    0.0000
     80 H37       24.0924   16.3108   39.8429 Du        6 SUP6    0.0000
     81 C35       23.2726   18.1875   39.8153 Du        6 SUP6    0.0000
     82 H38       24.1145   18.6289   40.0487 Du        6 SUP6    0.0000
     83 H39       22.7763   18.7415   39.1764 Du        6 SUP6    0.0000
     84 H40       22.7351   18.0624   40.6261 Du        6 SUP6    0.0000
     85 C36       25.5282   12.9739   37.2506 Du        6 SUP6    0.0000
     86 H41       25.9852   12.9096   36.3752 Du        6 SUP6    0.0000
     87 H42       25.7884   13.8443   37.6438 Du        6 SUP6    0.0000
     88 C37       26.1062   11.9016   38.1290 Du        6 SUP6    0.0000
     89 H43       25.4904   11.1295   38.1413 Du        6 SUP6    0.0000
     90 H44       26.1801   12.2483   39.0535 Du        6 SUP6    0.0000
     91 C38       27.4666   11.4369   37.6683 Du        6 SUP6    0.0000
     92 H45       27.7967   10.7398   38.2734 Du        6 SUP6    0.0000
     93 H46       27.3972   11.0740   36.7622 Du        6 SUP6    0.0000
     94 H47       28.0902   12.1947   37.6714 Du        6 SUP6    0.0000
     95 C39       21.7250   11.4994   39.4344 Du        6 SUP6    0.0000
     96 H48       21.1571   10.7184   39.2133 Du        6 SUP6    0.0000
     97 H49       22.6257   11.1563   39.6617 Du        6 SUP6    0.0000
     98 C40       21.1517   12.1661   40.6507 Du        6 SUP6    0.0000
     99 H50       21.8808   12.5825   41.1790 Du        6 SUP6    0.0000
    100 H51       20.5222   12.8792   40.3773 Du        6 SUP6    0.0000
    101 C41       20.4385   11.1509   41.4861 Du        6 SUP6    0.0000
    102 H52       20.0641   11.5870   42.2816 Du        6 SUP6    0.0000
    103 H53       19.7126   10.7488   40.9640 Du        6 SUP6    0.0000
    104 H54       21.0672   10.4539   41.7626 Du        6 SUP6    0.0000
    105 C42       24.9295   12.4306   44.4685 Du        6 SUP6    0.0000
    106 C43       25.5881   14.8363   43.9064 Du        6 SUP6    0.0000
    107 C44       27.0812   12.9042   43.2277 Du        6 SUP6    0.0000
    108 C45       26.1705   13.4333   44.4194 Du        6 SUP6    0.0000
    109 C46       26.8608   13.5459   45.7739 Du        6 SUP6    0.0000
    110 H55       26.2238   13.8783   46.4404 Du        6 SUP6    0.0000
    111 H56       27.1870   12.6629   46.0503 Du        6 SUP6    0.0000
    112 H57       27.6164   14.1661   45.7063 Du        6 SUP6    0.0000
    113 C47       23.7523   13.3207   44.1092 Du        6 SUP6    0.0000
    114 C48       24.1030   14.6093   43.7375 Du        6 SUP6    0.0000
    115 C49       23.1762   15.5244   43.2584 Du        6 SUP6    0.0000
    116 H58       23.4319   16.3752   42.9236 Du        6 SUP6    0.0000
    117 C50       21.8568   15.1187   43.3044 Du        6 SUP6    0.0000
    118 C51       21.4725   13.8461   43.6638 Du        6 SUP6    0.0000
    119 H59       20.5565   13.6013   43.6177 Du        6 SUP6    0.0000
    120 C52       22.4153   12.9221   44.0877 Du        6 SUP6    0.0000
    121 H60       22.1560   12.0481   44.3580 Du        6 SUP6    0.0000
    122 C53       26.2371   15.0293   42.5489 Du        6 SUP6    0.0000
    123 C54       27.1262   14.0195   42.2264 Du        6 SUP6    0.0000
    124 C55       27.8476   14.0052   41.0377 Du        6 SUP6    0.0000
    125 H61       28.3484   13.2510   40.7551 Du        6 SUP6    0.0000
    126 C56       27.7804   15.1580   40.3036 Du        6 SUP6    0.0000
    127 C57       26.8124   16.1071   40.5309 Du        6 SUP6    0.0000
    128 H62       26.6003   16.7380   39.8521 Du        6 SUP6    0.0000
    129 C58       26.1424   16.1464   41.7472 Du        6 SUP6    0.0000
    130 H63       25.6436   16.9078   42.0144 Du        6 SUP6    0.0000
    131 C59       26.3224   11.7193   42.6564 Du        6 SUP6    0.0000
    132 C60       25.1324   11.4547   43.3413 Du        6 SUP6    0.0000
    133 C61       24.2668   10.4378   42.9420 Du        6 SUP6    0.0000
    134 H64       23.4299   10.3073   43.3751 Du        6 SUP6    0.0000
    135 C62       24.6588    9.6228   41.8977 Du        6 SUP6    0.0000
    136 C63       25.8258    9.8837   41.2066 Du        6 SUP6    0.0000
    137 H65       26.0305    9.3708   40.4326 Du        6 SUP6    0.0000
    138 C64       26.7010   10.8667   41.6244 Du        6 SUP6    0.0000
    139 H66       27.5524   10.9597   41.2097 Du        6 SUP6    0.0000
    140 C65       24.6402   11.7014   45.8077 Du        6 SUP6    0.0000
    141 H67       24.6030   12.3913   46.5172 Du        6 SUP6    0.0000
    142 H68       23.7313   11.3118   45.7370 Du        6 SUP6    0.0000
    143 C66       25.5625   10.6004   46.3022 Du        6 SUP6    0.0000
    144 H69       25.8123   10.0178   45.5435 Du        6 SUP6    0.0000
    145 H70       26.3902   11.0061   46.6615 Du        6 SUP6    0.0000
    146 C67       24.9189    9.7693   47.3680 Du        6 SUP6    0.0000
    147 H71       25.5431    9.0723   47.6598 Du        6 SUP6    0.0000
    148 H72       24.6856   10.3377   48.1297 Du        6 SUP6    0.0000
    149 H73       24.1077    9.3511   47.0117 Du        6 SUP6    0.0000
    150 C68       25.8408   16.0910   44.7787 Du        6 SUP6    0.0000
    151 H74       26.8138   16.1428   44.9446 Du        6 SUP6    0.0000
    152 H75       25.5994   16.8827   44.2351 Du        6 SUP6    0.0000
    153 C69       25.1493   16.2340   46.1118 Du        6 SUP6    0.0000
    154 H76       25.5145   15.5637   46.7414 Du        6 SUP6    0.0000
    155 H77       24.1835   16.0534   45.9981 Du        6 SUP6    0.0000
    156 C70       25.3347   17.6120   46.6861 Du        6 SUP6    0.0000
    157 H78       24.8738   17.6709   47.5492 Du        6 SUP6    0.0000
    158 H79       26.2911   17.7871   46.8151 Du        6 SUP6    0.0000
    159 H80       24.9602   18.2768   46.0718 Du        6 SUP6    0.0000
    160 C71       28.5292   12.4395   43.5502 Du        6 SUP6    0.0000
    161 H81       28.4807   11.7371   44.2474 Du        6 SUP6    0.0000
    162 H82       28.9040   12.0177   42.7362 Du        6 SUP6    0.0000
    163 C72       29.5107   13.4994   44.0201 Du        6 SUP6    0.0000
    164 H83       29.3544   14.3359   43.5164 Du        6 SUP6    0.0000
    165 H84       29.3533   13.6871   44.9815 Du        6 SUP6    0.0000
    166 C73       30.9274   13.0597   43.8266 Du        6 SUP6    0.0000
    167 H85       31.5330   13.7621   44.1399 Du        6 SUP6    0.0000
    168 H86       31.0869   12.2376   44.3365 Du        6 SUP6    0.0000
    169 H87       31.0895   12.8881   42.8744 Du        6 SUP6    0.0000
    170 N4        20.8189   16.0928   42.9604 Du        6 SUP6    0.0000
    171 O7        19.6666   15.7246   42.9942 Du        6 SUP6    0.0000
    172 O8        21.1246   17.1276   42.4106 Du        6 SUP6    0.0000
    173 N5        28.5393   15.2617   39.0628 Du        6 SUP6    0.0000
    174 O9        28.4645   16.2822   38.4147 Du        6 SUP6    0.0000
    175 O10       29.0844   14.2483   38.6788 Du        6 SUP6    0.0000
    176 N6        23.8473    8.4718   41.5169 Du        6 SUP6    0.0000
    177 O11       24.3639    7.4423   41.1114 Du        6 SUP6    0.0000
    178 O12       22.6361    8.5718   41.5998 Du        6 SUP6    0.0000
    179 C74       25.4221   12.1125   44.1629 C.3       2 RES2    0.0000
    180 C75       25.3198   14.6558   44.1737 C.3       2 RES2    0.0000
    181 C76       27.2441   13.4726   42.9819 C.3       2 RES2    0.0000
    182 C77       26.3311   13.4136   44.2842 C.3       2 RES2    0.0000
    183 C78       27.1658   13.4476   45.5681 C.3       2 RES2    0.0000
    184 H88       27.7023   14.2661   45.5896 H         2 RES2    0.0000
    185 H89       26.5687   13.4279   46.3452 H         2 RES2    0.0000
    186 H90       27.7584   12.6683   45.5927 H         2 RES2    0.0000
    187 C79       24.0113   12.6415   43.9341 C.ar      2 RES2    0.0000
    188 C80       23.9659   14.0427   43.8942 C.ar      2 RES2    0.0000
    189 C81       22.7850   14.6933   43.6331 C.ar      2 RES2    0.0000
    190 H91       22.7536   15.6424   43.5962 H         2 RES2    0.0000
    191 C82       21.6485   13.9426   43.4242 C.ar      2 RES2    0.0000
    192 C83       21.6663   12.5593   43.4826 C.ar      2 RES2    0.0000
    193 H92       20.8680   12.0678   43.3382 H         2 RES2    0.0000
    194 C84       22.8445   11.8980   43.7529 C.ar      2 RES2    0.0000
    195 H93       22.8622   10.9507   43.8112 H         2 RES2    0.0000
    196 C85       25.7903   15.3814   42.9359 C.ar      2 RES2    0.0000
    197 C86       26.8149   14.7148   42.2571 C.ar      2 RES2    0.0000
    198 C87       27.3654   15.2277   41.1022 C.ar      2 RES2    0.0000
    199 H94       28.0594   14.7773   40.6323 H         2 RES2    0.0000
    200 C88       26.8518   16.4502   40.6599 C.ar      2 RES2    0.0000
    201 C89       25.8132   17.0954   41.2589 C.ar      2 RES2    0.0000
    202 H95       25.4446   17.8818   40.8718 H         2 RES2    0.0000
    203 C90       25.3065   16.5861   42.4506 C.ar      2 RES2    0.0000
    204 H96       24.6340   17.0579   42.9236 H         2 RES2    0.0000
    205 C91       26.8676   12.2143   42.2205 C.ar      2 RES2    0.0000
    206 C92       25.8800   11.4530   42.8744 C.ar      2 RES2    0.0000
    207 C93       25.4682   10.2358   42.3627 C.ar      2 RES2    0.0000
    208 H97       24.8025    9.7211   42.8038 H         2 RES2    0.0000
    209 C94       26.0551    9.7890   41.1851 C.ar      2 RES2    0.0000
    210 C95       26.9900   10.5522   40.4910 C.ar      2 RES2    0.0000
    211 H98       27.3355   10.2483   39.6586 H         2 RES2    0.0000
    212 C96       27.4116   11.7550   41.0199 C.ar      2 RES2    0.0000
    213 H99       28.0706   12.2680   40.5678 H         2 RES2    0.0000
    214 C97       25.4466   11.0687   45.3089 C.3       2 RES2    0.0000
    215 H100      25.0571   10.2287   44.9600 H         2 RES2    0.0000
    216 H101      26.3917   10.8828   45.5282 H         2 RES2    0.0000
    217 C98       24.7225   11.4172   46.6093 C.3       2 RES2    0.0000
    218 H102      25.2274   12.1303   47.0731 H         2 RES2    0.0000
    219 H103      23.8275   11.7747   46.3882 H         2 RES2    0.0000
    220 C99       24.5643   10.2644   47.5308 C.3       2 RES2    0.0000
    221 H104      24.0938   10.5557   48.3416 H         2 RES2    0.0000
    222 H105      24.0458    9.5602   47.0885 H         2 RES2    0.0000
    223 H106      25.4482    9.9159   47.7734 H         2 RES2    0.0000
    224 C100      25.1983   15.6549   45.3531 C.3       2 RES2    0.0000
    225 H107      24.4047   16.2232   45.1842 H         2 RES2    0.0000
    226 H108      25.0126   15.1330   46.1732 H         2 RES2    0.0000
    227 C101      26.3703   16.5753   45.6449 C.3       2 RES2    0.0000
    228 H109      27.0321   16.0820   46.1916 H         2 RES2    0.0000
    229 H110      26.8087   16.8148   44.7910 H         2 RES2    0.0000
    230 C102      26.0009   17.8211   46.3544 C.3       2 RES2    0.0000
    231 H111      26.8040   18.3608   46.5080 H         2 RES2    0.0000
    232 H112      25.3655   18.3304   45.8107 H         2 RES2    0.0000
    233 H113      25.5904   17.5977   47.2144 H         2 RES2    0.0000
    234 C103      28.7816   13.5066   43.1754 C.3       2 RES2    0.0000
    235 H114      29.1863   13.7872   42.3185 H         2 RES2    0.0000
    236 H115      28.9833   14.2125   43.8389 H         2 RES2    0.0000
    237 C104      29.4909   12.2269   43.6269 C.3       2 RES2    0.0000
    238 H116      29.0385   11.8783   44.4347 H         2 RES2    0.0000
    239 H117      29.4042   11.5441   42.9174 H         2 RES2    0.0000
    240 C105      30.9310   12.4252   43.9341 C.3       2 RES2    0.0000
    241 H118      31.3249   11.5727   44.2167 H         2 RES2    0.0000
    242 H119      31.3939   12.7487   43.1324 H         2 RES2    0.0000
    243 H120      31.0249   13.0830   44.6528 H         2 RES2    0.0000
    244 N7        20.3966   14.6218   43.1349 N.pl3     2 RES2    0.0000
    245 O13       19.4465   13.9623   42.7617 O.2       2 RES2    0.0000
    246 O14       20.3322   15.8265   43.2799 O.2       2 RES2    0.0000
    247 N8        27.4616   16.9936   39.4375 N.pl3     2 RES2    0.0000
    248 O15       27.0293   18.0909   39.0566 O.2       2 RES2    0.0000
    249 O16       28.4234   16.5074   38.9153 O.2       2 RES2    0.0000
    250 N9        25.6416    8.4789   40.6624 N.pl3     2 RES2    0.0000
    251 O17       26.2535    8.0589   39.6890 O.2       2 RES2    0.0000
    252 O18       24.8094    7.8212   41.2589 O.2       2 RES2    0.0000
    253 C106      21.0236   13.4011   30.6147 C.3       3 RES3    0.0000
    254 C107      19.1163   12.2143   31.8504 C.3       3 RES3    0.0000
    255 C108      19.1403   14.7720   31.6735 C.3       3 RES3    0.0000
    256 C109      20.0929   13.4976   31.9011 C.3       3 RES3    0.0000
    257 C110      20.8865   13.5959   33.2070 C.3       3 RES3    0.0000
    258 H121      20.2638   13.6549   33.9611 H         3 RES3    0.0000
    259 H122      21.4499   12.8024   33.3069 H         3 RES3    0.0000
    260 H123      21.4499   14.3984   33.1871 H         3 RES3    0.0000
    261 C111      20.5325   12.1625   29.8810 C.ar      3 RES3    0.0000
    262 C112      19.5400   11.4923   30.5945 C.ar      3 RES3    0.0000
    263 C113      19.0279   10.2966   30.1039 C.ar      3 RES3    0.0000
    264 H124      18.3506    9.8283   30.5763 H         3 RES3    0.0000
    265 C114      19.5281    9.7997   28.9091 C.ar      3 RES3    0.0000
    266 C115      20.4928   10.4825   28.1892 C.ar      3 RES3    0.0000
    267 H125      20.7934   10.1411   27.3574 H         3 RES3    0.0000
    268 C116      21.0144   11.6567   28.6809 C.ar      3 RES3    0.0000
    269 H126      21.6976   12.1178   28.2052 H         3 RES3    0.0000
    270 C117      17.7329   12.8077   31.6381 C.ar      3 RES3    0.0000
    271 C118      17.7528   14.1804   31.4925 C.ar      3 RES3    0.0000
    272 C119      16.5703   14.8595   31.2714 C.ar      3 RES3    0.0000
    273 H127      16.5605   15.8068   31.2029 H         3 RES3    0.0000
    274 C120      15.4128   14.1321   31.1522 C.ar      3 RES3    0.0000
    275 C121      15.3614   12.7684   31.3209 C.ar      3 RES3    0.0000
    276 H128      14.5367   12.3001   31.2674 H         3 RES3    0.0000
    277 C122      16.5477   12.0982   31.5718 C.ar      3 RES3    0.0000
    278 H129      16.5484   11.1563   31.6974 H         3 RES3    0.0000
    279 C123      19.6492   15.3886   30.3632 C.ar      3 RES3    0.0000
    280 C124      20.6791   14.6719   29.8115 C.ar      3 RES3    0.0000
    281 C125      21.2864   15.1097   28.6401 C.ar      3 RES3    0.0000
    282 H130      22.0096   14.6290   28.2574 H         3 RES3    0.0000
    283 C126      20.8095   16.2643   28.0458 C.ar      3 RES3    0.0000
    284 C127      19.7794   16.9793   28.5808 C.ar      3 RES3    0.0000
    285 H131      19.4723   17.7692   28.1530 H         3 RES3    0.0000
    286 C128      19.1873   16.5414   29.7593 C.ar      3 RES3    0.0000
    287 H132      18.4704   17.0311   30.1463 H         3 RES3    0.0000
    288 C129      22.5424   13.3207   30.8383 C.3       3 RES3    0.0000
    289 H133      22.7968   14.0284   31.4824 H         3 RES3    0.0000
    290 H134      22.9920   13.5280   29.9805 H         3 RES3    0.0000
    291 C130      23.0927   11.9731   31.3596 C.3       3 RES3    0.0000
    292 H135      22.6012   11.7246   32.1827 H         3 RES3    0.0000
    293 H136      22.9178   11.2742   30.6808 H         3 RES3    0.0000
    294 C131      24.5503   11.9999   31.6575 C.3       3 RES3    0.0000
    295 H137      24.8335   11.1205   31.9800 H         3 RES3    0.0000
    296 H138      25.0450   12.2251   30.8405 H         3 RES3    0.0000
    297 H139      24.7309   12.6755   32.3424 H         3 RES3    0.0000
    298 C132      19.1336   11.2599   33.0470 C.3       3 RES3    0.0000
    299 H140      20.0766   11.0294   33.2393 H         3 RES3    0.0000
    300 H141      18.6761   10.4253   32.7786 H         3 RES3    0.0000
    301 C133      18.4931   11.7550   34.3496 C.3       3 RES3    0.0000
    302 H142      19.1738   12.2394   34.8825 H         3 RES3    0.0000
    303 H143      17.7678   12.3913   34.1331 H         3 RES3    0.0000
    304 C134      17.9438   10.6576   35.1583 C.3       3 RES3    0.0000
    305 H144      17.5481   11.0222   35.9760 H         3 RES3    0.0000
    306 H145      17.2556   10.1858   34.6429 H         3 RES3    0.0000
    307 H146      18.6616   10.0321   35.3924 H         3 RES3    0.0000
    308 C135      19.0858   15.8425   32.7758 C.3       3 RES3    0.0000
    309 H147      18.9118   15.3814   33.6324 H         3 RES3    0.0000
    310 H148      18.3066   16.4234   32.5912 H         3 RES3    0.0000
    311 C136      20.3085   16.7558   32.9782 C.3       3 RES3    0.0000
    312 H149      21.0200   16.2429   33.4389 H         3 RES3    0.0000
    313 H150      20.6576   17.0239   32.0906 H         3 RES3    0.0000
    314 C137      20.0070   17.9694   33.7614 C.3       3 RES3    0.0000
    315 H151      20.8220   18.5074   33.8566 H         3 RES3    0.0000
    316 H152      19.3202   18.4949   33.3007 H         3 RES3    0.0000
    317 H153      19.6802   17.7120   34.6491 H         3 RES3    0.0000
    318 N10       19.0703    8.5004   28.4153 N.pl3     3 RES3    0.0000
    319 O19       19.4830    8.0893   27.3568 O.2       3 RES3    0.0000
    320 O20       18.2980    7.8766   29.1186 O.2       3 RES3    0.0000
    321 N11       14.1502   14.8417   30.8912 N.pl3     3 RES3    0.0000
    322 O21       13.1586   14.1786   30.6322 O.2       3 RES3    0.0000
    323 O22       14.1475   16.0606   30.9345 O.2       3 RES3    0.0000
    324 N12       21.4755   16.7701   26.8344 N.pl3     3 RES3    0.0000
    325 O23       20.9186   17.6763   26.2422 O.2       3 RES3    0.0000
    326 O24       22.5354   16.2661   26.5039 O.2       3 RES3    0.0000
    327 C138      15.3687   12.4127   25.9630 C.3       4 RES4    0.0000
    328 C139      16.0333   14.8327   25.4829 C.3       4 RES4    0.0000
    329 C140      17.5613   12.9221   24.7433 C.3       4 RES4    0.0000
    330 C141      16.6190   13.4118   25.9332 C.3       4 RES4    0.0000
    331 C142      17.3393   13.4762   27.2696 C.3       4 RES4    0.0000
    332 H154      16.7170   13.7818   27.9625 H         4 RES4    0.0000
    333 H155      17.6759   12.5861   27.5018 H         4 RES4    0.0000
    334 H156      18.0886   14.1035   27.2069 H         4 RES4    0.0000
    335 C143      14.1805   13.2778   25.5818 C.ar      4 RES4    0.0000
    336 C144      14.5550   14.5718   25.2735 C.ar      4 RES4    0.0000
    337 C145      13.5874   15.5012   24.8665 C.ar      4 RES4    0.0000
    338 H157      13.8228   16.3930   24.6361 H         4 RES4    0.0000
    339 C146      12.2744   15.0704   24.8134 C.ar      4 RES4    0.0000
    340 C147      11.8813   13.8032   25.1349 C.ar      4 RES4    0.0000
    341 H158      10.9665   13.5530   25.0846 H         4 RES4    0.0000
    342 C148      12.8361   12.8971   25.5345 C.ar      4 RES4    0.0000
    343 H159      12.5819   12.0160   25.7787 H         4 RES4    0.0000
    344 C149      16.7268   15.1097   24.1426 C.ar      4 RES4    0.0000
    345 C150      17.5588   14.0785   23.7691 C.ar      4 RES4    0.0000
    346 C151      18.3090   14.1661   22.5838 C.ar      4 RES4    0.0000
    347 H160      18.8637   13.4565   22.2865 H         4 RES4    0.0000
    348 C152      18.1896   15.3510   21.8761 C.ar      4 RES4    0.0000
    349 C153      17.3854   16.4091   22.2220 C.ar      4 RES4    0.0000
    350 H161      17.3478   17.1955   21.6937 H         4 RES4    0.0000
    351 C154      16.6306   16.2786   23.3805 C.ar      4 RES4    0.0000
    352 H162      16.0509   16.9793   23.6533 H         4 RES4    0.0000
    353 C155      16.8410   11.7193   24.1760 C.ar      4 RES4    0.0000
    354 C156      15.6590   11.4547   24.8336 C.ar      4 RES4    0.0000
    355 C157      14.8603   10.3842   24.4426 C.ar      4 RES4    0.0000
    356 H163      14.0286   10.2054   24.8665 H         4 RES4    0.0000
    357 C158      15.3366    9.5834   23.3987 C.ar      4 RES4    0.0000
    358 C159      16.5283    9.8140   22.7503 C.ar      4 RES4    0.0000
    359 H164      16.8261    9.2296   22.0653 H         4 RES4    0.0000
    360 C160      17.2839   10.9168   23.1191 C.ar      4 RES4    0.0000
    361 H165      18.0883   11.1241   22.6612 H         4 RES4    0.0000
    362 C161      15.0332   11.6621   27.2908 C.3       4 RES4    0.0000
    363 H166      15.0073   12.3323   28.0209 H         4 RES4    0.0000
    364 H167      14.1206   11.2885   27.2069 H         4 RES4    0.0000
    365 C162      15.9537   10.5432   27.7230 C.3       4 RES4    0.0000
    366 H168      16.8268   10.9186   28.0025 H         4 RES4    0.0000
    367 H169      16.1127    9.9284   26.9612 H         4 RES4    0.0000
    368 C163      15.3340    9.7711   28.8855 C.3       4 RES4    0.0000
    369 H170      15.9393    9.0490   29.1573 H         4 RES4    0.0000
    370 H171      15.1913   10.3770   29.6426 H         4 RES4    0.0000
    371 H172      14.4762    9.3904   28.6045 H         4 RES4    0.0000
    372 C164      16.2748   16.0659   26.4022 C.3       4 RES4    0.0000
    373 H173      17.2420   16.1053   26.6049 H         4 RES4    0.0000
    374 H174      16.0544   16.8792   25.8801 H         4 RES4    0.0000
    375 C165      15.5345   16.1446   27.6987 C.3       4 RES4    0.0000
    376 H175      15.8710   15.4475   28.3157 H         4 RES4    0.0000
    377 H176      14.5704   15.9819   27.5448 H         4 RES4    0.0000
    378 C166      15.7347   17.5315   28.3243 C.3       4 RES4    0.0000
    379 H177      15.2499   17.5798   29.1757 H         4 RES4    0.0000
    380 H178      16.6895   17.6834   28.4847 H         4 RES4    0.0000
    381 H179      15.3938   18.2178   27.7137 H         4 RES4    0.0000
    382 C167      19.0303   12.4932   25.0962 C.3       4 RES4    0.0000
    383 H180      18.9806   11.8408   25.8401 H         4 RES4    0.0000
    384 H181      19.3985   12.0124   24.3136 H         4 RES4    0.0000
    385 C168      20.0404   13.5727   25.4931 C.3       4 RES4    0.0000
    386 H182      19.8934   14.3805   24.9402 H         4 RES4    0.0000
    387 H183      19.9015   13.8211   26.4422 H         4 RES4    0.0000
    388 C169      21.4426   13.0865   25.3069 C.3       4 RES4    0.0000
    389 H184      22.0711   13.7925   25.5668 H         4 RES4    0.0000
    390 H185      21.5931   12.2966   25.8647 H         4 RES4    0.0000
    391 H186      21.5842   12.8542   24.3659 H         4 RES4    0.0000
    392 N13       11.2280   16.0266   24.4307 N.pl3     4 RES4    0.0000
    393 O25       10.0747   15.7282   24.5882 O.2       4 RES4    0.0000
    394 O26       11.5691   17.1115   23.9389 O.2       4 RES4    0.0000
    395 N14       19.0514   15.5208   20.6647 N.pl3     4 RES4    0.0000
    396 O27       19.1665   16.6790   20.2286 O.2       4 RES4    0.0000
    397 O28       19.6072   14.5074   20.2182 O.2       4 RES4    0.0000
    398 N15       14.5581    8.3895   23.0150 N.pl3     4 RES4    0.0000
    399 O29       15.1727    7.4047   22.6529 O.2       4 RES4    0.0000
    400 O30       13.3167    8.4735   23.1201 O.2       4 RES4    0.0000
    401 C170      12.6614   12.3341   19.6502 C.3       5 RES5    0.0000
    402 C171      12.8706   14.8720   19.3904 C.3       5 RES5    0.0000
    403 C172      14.6984   13.3439   18.4545 C.3       5 RES5    0.0000
    404 C173      13.7151   13.5334   19.7003 C.3       5 RES5    0.0000
    405 C174      14.4606   13.6245   21.0352 C.3       5 RES5    0.0000
    406 H187      15.0912   14.3752   21.0057 H         5 RES5    0.0000
    407 H188      13.8163   13.7657   21.7613 H         5 RES5    0.0000
    408 H189      14.9526   12.7916   21.1930 H         5 RES5    0.0000
    409 C175      11.3403   12.9793   19.3600 C.ar      5 RES5    0.0000
    410 C176      11.4557   14.3502   19.1588 C.ar      5 RES5    0.0000
    411 C177      10.3295   15.1026   18.8630 C.ar      5 RES5    0.0000
    412 H190      10.3974   16.0391   18.7144 H         5 RES5    0.0000
    413 C178       9.1069   14.4556   18.7887 C.ar      5 RES5    0.0000
    414 C179       8.9803   13.1133   18.9945 C.ar      5 RES5    0.0000
    415 H191       8.1257   12.6987   18.9417 H         5 RES5    0.0000
    416 C180      10.0974   12.3645   19.2789 C.ar      5 RES5    0.0000
    417 H192      10.0191   11.4279   19.4208 H         5 RES5    0.0000
    418 C181      13.4677   15.3850   18.1007 C.ar      5 RES5    0.0000
    419 C182      14.4483   14.5664   17.5905 C.ar      5 RES5    0.0000
    420 C183      15.1128   14.9060   16.4019 C.ar      5 RES5    0.0000
    421 H193      15.7907   14.3537   16.0299 H         5 RES5    0.0000
    422 C184      14.7223   16.0892   15.7999 C.ar      5 RES5    0.0000
    423 C185      13.7612   16.9185   16.2852 C.ar      5 RES5    0.0000
    424 H194      13.5337   17.7210   15.8303 H         5 RES5    0.0000
    425 C186      13.1205   16.5628   17.4603 C.ar      5 RES5    0.0000
    426 H195      12.4442   17.1240   17.8267 H         5 RES5    0.0000
    427 C187      14.1833   12.0892   17.7696 C.ar      5 RES5    0.0000
    428 C188      13.0952   11.5280   18.4364 C.ar      5 RES5    0.0000
    429 C189      12.5430   10.3341   17.9732 C.ar      5 RES5    0.0000
    430 H196      11.8186    9.9195   18.4287 H         5 RES5    0.0000
    431 C190      13.0866    9.7747   16.8251 C.ar      5 RES5    0.0000
    432 C191      14.1405   10.3448   16.1565 C.ar      5 RES5    0.0000
    433 H197      14.4852    9.9373   15.3696 H         5 RES5    0.0000
    434 C192      14.6970   11.5048   16.6304 C.ar      5 RES5    0.0000
    435 H198      15.4307   11.9034   16.1774 H         5 RES5    0.0000
    436 C193      12.5662   11.3975   20.8758 C.3       5 RES5    0.0000
    437 H199      12.0277   10.6076   20.6217 H         5 RES5    0.0000
    438 H200      13.4776   11.0758   21.0917 H         5 RES5    0.0000
    439 C194      11.9606   12.0070   22.1437 C.3       5 RES5    0.0000
    440 H201      12.6957   12.2519   22.7626 H         5 RES5    0.0000
    441 H202      11.4837   12.8399   21.8995 H         5 RES5    0.0000
    442 C195      11.0075   11.0901   22.8578 C.3       5 RES5    0.0000
    443 H203      10.6595   11.5405   23.6563 H         5 RES5    0.0000
    444 H204      10.2658   10.8614   22.2619 H         5 RES5    0.0000
    445 H205      11.4778   10.2733   23.1250 H         5 RES5    0.0000
    446 C196      12.7956   15.9748   20.4866 C.3       5 RES5    0.0000
    447 H206      12.0780   16.6093   20.2347 H         5 RES5    0.0000
    448 H207      12.5241   15.5458   21.3374 H         5 RES5    0.0000
    449 C197      14.0679   16.7809   20.7483 C.3       5 RES5    0.0000
    450 H208      14.6560   16.2608   21.3528 H         5 RES5    0.0000
    451 H209      14.5496   16.9042   19.8907 H         5 RES5    0.0000
    452 C198      13.8107   18.1267   21.3620 C.3       5 RES5    0.0000
    453 H210      14.6644   18.5896   21.5033 H         5 RES5    0.0000
    454 H211      13.2467   18.6575   20.7600 H         5 RES5    0.0000
    455 H212      13.3564   18.0123   22.2189 H         5 RES5    0.0000
    456 C199      16.2142   13.2152   18.7313 C.3       5 RES5    0.0000
    457 H213      16.6930   13.2617   17.8667 H         5 RES5    0.0000
    458 H214      16.5000   13.9963   19.2672 H         5 RES5    0.0000
    459 C200      16.6678   11.9462   19.4577 C.3       5 RES5    0.0000
    460 H215      16.5152   12.0660   20.4282 H         5 RES5    0.0000
    461 H216      16.1033   11.1902   19.1567 H         5 RES5    0.0000
    462 C201      18.0818   11.5942   19.2396 C.3       5 RES5    0.0000
    463 H217      18.2952   10.7756   19.7341 H         5 RES5    0.0000
    464 H218      18.2398   11.4494   18.2844 H         5 RES5    0.0000
    465 H219      18.6533   12.3252   19.5590 H         5 RES5    0.0000
    466 N16        7.9088   15.2706   18.5359 N.pl3     5 RES5    0.0000
    467 O31        6.8283   14.7219   18.6041 O.2       5 RES5    0.0000
    468 O32        8.0399   16.4359   18.2540 O.2       5 RES5    0.0000
    469 N17       15.4504   16.4895   14.5624 N.pl3     5 RES5    0.0000
    470 O33       15.0589   17.5315   14.0150 O.2       5 RES5    0.0000
    471 O34       16.3326   15.7907   14.1526 O.2       5 RES5    0.0000
    472 N18       12.5337    8.4807   16.3644 N.pl3     5 RES5    0.0000
    473 O35       13.0795    7.9588   15.3797 O.2       5 RES5    0.0000
    474 O36       11.5863    8.0035   16.9308 O.2       5 RES5    0.0000
@<TRIPOS>BOND
     1    1    4 1
     2    2    4 1
     3    3    4 1
     4    4    5 1
     5    5    6 1
     6    7    5 1
     7    8    5 1
     8    9    1 1
     9   10    2 1
    10   11   10 ar
    11   12   11 1
    12   13   11 ar
    13   14   13 ar
    14   15   14 1
    15   16    9 ar
    16   17   16 1
    17   18    2 1
    18   19    3 1
    19   20   19 ar
    20   21   20 1
    21   22   20 ar
    22   23   22 ar
    23   24   23 1
    24   25   18 ar
    25   26   25 1
    26   27    3 1
    27   28    1 1
    28   29   28 ar
    29   30   29 1
    30   31   29 ar
    31   32   31 ar
    32   33   32 1
    33   34   27 ar
    34   35   34 1
    35   36    1 1
    36   37   36 1
    37   38   36 1
    38   39   36 1
    39   40   39 1
    40   41   39 1
    41   42   39 1
    42   43   42 1
    43   44   42 1
    44   45   42 1
    45   46    2 1
    46   47   46 1
    47   48   46 1
    48   49   46 1
    49   50   49 1
    50   51   49 1
    51   52   49 1
    52   53   52 1
    53   54   52 1
    54   55   52 1
    55   56    3 1
    56   57   56 1
    57   58   56 1
    58   59   56 1
    59   60   59 1
    60   61   59 1
    61   62   59 1
    62   63   62 1
    63   64   62 1
    64   65   62 1
    65   66   13 1
    66   67   66 2
    67   68   66 2
    68   69   22 1
    69   70   69 2
    70   71   69 2
    71   72   31 1
    72   73   72 2
    73   74   72 2
    74  179  182 1
    75  180  182 1
    76  181  182 1
    77  182  183 1
    78  183  184 1
    79  185  183 1
    80  186  183 1
    81  187  179 1
    82  188  180 1
    83  189  188 ar
    84  190  189 1
    85  191  189 ar
    86  192  191 ar
    87  193  192 1
    88  194  187 ar
    89  195  194 1
    90  196  180 1
    91  197  181 1
    92  198  197 ar
    93  199  198 1
    94  200  198 ar
    95  201  200 ar
    96  202  201 1
    97  203  196 ar
    98  204  203 1
    99  205  181 1
   100  206  179 1
   101  207  206 ar
   102  208  207 1
   103  209  207 ar
   104  210  209 ar
   105  211  210 1
   106  212  205 ar
   107  213  212 1
   108  214  179 1
   109  215  214 1
   110  216  214 1
   111  217  214 1
   112  218  217 1
   113  219  217 1
   114  220  217 1
   115  221  220 1
   116  222  220 1
   117  223  220 1
   118  224  180 1
   119  225  224 1
   120  226  224 1
   121  227  224 1
   122  228  227 1
   123  229  227 1
   124  230  227 1
   125  231  230 1
   126  232  230 1
   127  233  230 1
   128  234  181 1
   129  235  234 1
   130  236  234 1
   131  237  234 1
   132  238  237 1
   133  239  237 1
   134  240  237 1
   135  241  240 1
   136  242  240 1
   137  243  240 1
   138  244  191 1
   139  245  244 2
   140  246  244 2
   141  247  200 1
   142  248  247 2
   143  249  247 2
   144  250  209 1
   145  251  250 2
   146  252  250 2
   147  253  256 1
   148  254  256 1
   149  255  256 1
   150  256  257 1
   151  257  258 1
   152  259  257 1
   153  260  257 1
   154  261  253 1
   155  262  254 1
   156  263  262 ar
   157  264  263 1
   158  265  263 ar
   159  266  265 ar
   160  267  266 1
   161  268  261 ar
   162  269  268 1
   163  270  254 1
   164  271  255 1
   165  272  271 ar
   166  273  272 1
   167  274  272 ar
   168  275  274 ar
   169  276  275 1
   170  277  270 ar
   171  278  277 1
   172  279  255 1
   173  280  253 1
   174  281  280 ar
   175  282  281 1
   176  283  281 ar
   177  284  283 ar
   178  285  284 1
   179  286  279 ar
   180  287  286 1
   181  288  253 1
   182  289  288 1
   183  290  288 1
   184  291  288 1
   185  292  291 1
   186  293  291 1
   187  294  291 1
   188  295  294 1
   189  296  294 1
   190  297  294 1
   191  298  254 1
   192  299  298 1
   193  300  298 1
   194  301  298 1
   195  302  301 1
   196  303  301 1
   197  304  301 1
   198  305  304 1
   199  306  304 1
   200  307  304 1
   201  308  255 1
   202  309  308 1
   203  310  308 1
   204  311  308 1
   205  312  311 1
   206  313  311 1
   207  314  311 1
   208  315  314 1
   209  316  314 1
   210  317  314 1
   211  318  265 1
   212  319  318 2
   213  320  318 2
   214  321  274 1
   215  322  321 2
   216  323  321 2
   217  324  283 1
   218  325  324 2
   219  326  324 2
   220  327  330 1
   221  328  330 1
   222  329  330 1
   223  330  331 1
   224  331  332 1
   225  333  331 1
   226  334  331 1
   227  335  327 1
   228  336  328 1
   229  337  336 ar
   230  338  337 1
   231  339  337 ar
   232  340  339 ar
   233  341  340 1
   234  342  335 ar
   235  343  342 1
   236  344  328 1
   237  345  329 1
   238  346  345 ar
   239  347  346 1
   240  348  346 ar
   241  349  348 ar
   242  350  349 1
   243  351  344 ar
   244  352  351 1
   245  353  329 1
   246  354  327 1
   247  355  354 ar
   248  356  355 1
   249  357  355 ar
   250  358  357 ar
   251  359  358 1
   252  360  353 ar
   253  361  360 1
   254  362  327 1
   255  363  362 1
   256  364  362 1
   257  365  362 1
   258  366  365 1
   259  367  365 1
   260  368  365 1
   261  369  368 1
   262  370  368 1
   263  371  368 1
   264  372  328 1
   265  373  372 1
   266  374  372 1
   267  375  372 1
   268  376  375 1
   269  377  375 1
   270  378  375 1
   271  379  378 1
   272  380  378 1
   273  381  378 1
   274  382  329 1
   275  383  382 1
   276  384  382 1
   277  385  382 1
   278  386  385 1
   279  387  385 1
   280  388  385 1
   281  389  388 1
   282  390  388 1
   283  391  388 1
   284  392  339 1
   285  393  392 2
   286  394  392 2
   287  395  348 1
   288  396  395 2
   289  397  395 2
   290  398  357 1
   291  399  398 2
   292  400  398 2
   293  401  404 1
   294  402  404 1
   295  403  404 1
   296  404  405 1
   297  405  406 1
   298  407  405 1
   299  408  405 1
   300  409  401 1
   301  410  402 1
   302  411  410 ar
   303  412  411 1
   304  413  411 ar
   305  414  413 ar
   306  415  414 1
   307  416  409 ar
   308  417  416 1
   309  418  402 1
   310  419  403 1
   311  420  419 ar
   312  421  420 1
   313  422  420 ar
   314  423  422 ar
   315  424  423 1
   316  425  418 ar
   317  426  425 1
   318  427  403 1
   319  428  401 1
   320  429  428 ar
   321  430  429 1
   322  431  429 ar
   323  432  431 ar
   324  433  432 1
   325  434  427 ar
   326  435  434 1
   327  436  401 1
   328  437  436 1
   329  438  436 1
   330  439  436 1
   331  440  439 1
   332  441  439 1
   333  442  439 1
   334  443  442 1
   335  444  442 1
   336  445  442 1
   337  446  402 1
   338  447  446 1
   339  448  446 1
   340  449  446 1
   341  450  449 1
   342  451  449 1
   343  452  449 1
   344  453  452 1
   345  454  452 1
   346  455  452 1
   347  456  403 1
   348  457  456 1
   349  458  456 1
   350  459  456 1
   351  460  459 1
   352  461  459 1
   353  462  459 1
   354  463  462 1
   355  464  462 1
   356  465  462 1
   357  466  413 1
   358  467  466 2
   359  468  466 2
   360  469  422 1
   361  470  469 2
   362  471  469 2
   363  472  431 1
   364  473  472 2
   365  474  472 2
   366    9   10 ar
   367   14   16 ar
   368   18   19 ar
   369   23   25 ar
   370   27   28 ar
   371   32   34 ar
   372  187  188 ar
   373  192  194 ar
   374  196  197 ar
   375  201  203 ar
   376  205  206 ar
   377  210  212 ar
   378  261  262 ar
   379  266  268 ar
   380  270  271 ar
   381  275  277 ar
   382  279  280 ar
   383  284  286 ar
   384  335  336 ar
   385  340  342 ar
   386  344  345 ar
   387  349  351 ar
   388  353  354 ar
   389  358  360 ar
   390  409  410 ar
   391  414  416 ar
   392  418  419 ar
   393  423  425 ar
   394  427  428 ar
   395  432  434 ar
@<TRIPOS>SUBSTRUCTURE
     1 RES1 1
     2 RES2 179
     3 RES3 253
     4 RES4 327
     5 RES5 401
     6 SUP6 75

@<TRIPOS>CRYSIN
  24.7839   17.8729   31.9800  90.0000 106.1720  90.0000  14 1

