# MOL2 file generated by ConQuest
# Please check atom types

@<TRIPOS>MOLECULE
EWIWOY
    35    37     1
SMALL
NO_CHARGES
****
Generated from CSD

@<TRIPOS>ATOM
      1 N1        -0.5459    7.6132    3.4073 N.pl3     1 RES1    0.0000
      2 C1         0.6688    8.3972    3.3659 C.ar      1 RES1    0.0000
      3 O1        -0.6013    6.6375    4.1585 O.2       1 RES1    0.0000
      4 N2         4.1996   10.5778    3.2545 N.pl3     1 RES1    0.0000
      5 H1         4.8828   10.1195    3.4258 H         1 RES1    0.0000
      6 O2        -1.4922    7.9616    2.6938 O.2       1 RES1    0.0000
      7 C2         0.7008    9.5666    2.6177 C.ar      1 RES1    0.0000
      8 H2        -0.1063    9.8220    2.1046 H         1 RES1    0.0000
      9 N3         6.8980   10.2277    3.1062 N.ar      1 RES1    0.0000
     10 C3         1.8438   10.3308    2.5993 C.ar      1 RES1    0.0000
     11 H3         1.8995   11.1669    2.0893 H         1 RES1    0.0000
     12 C4         2.9957    9.9150    3.2906 C.ar      1 RES1    0.0000
     13 C5         2.9387    8.7054    4.0195 C.ar      1 RES1    0.0000
     14 H4         3.7418    8.3847    4.4320 H         1 RES1    0.0000
     15 C6         1.7895    7.9635    4.0741 C.ar      1 RES1    0.0000
     16 H5         1.7374    7.1742    4.5779 H         1 RES1    0.0000
     17 C7         4.4745   11.8563    2.7567 C.ar      1 RES1    0.0000
     18 C8         3.5338   12.8839    2.8819 C.ar      1 RES1    0.0000
     19 H6         2.7071   12.7183    3.4027 H         1 RES1    0.0000
     20 C9         3.7896   14.1428    2.3658 C.ar      1 RES1    0.0000
     21 H7         3.1614   14.8620    2.4810 H         1 RES1    0.0000
     22 C10        4.9918   14.4046    1.7298 C.ar      1 RES1    0.0000
     23 H8         5.1804   15.2967    1.4056 H         1 RES1    0.0000
     24 C11        5.9495   13.4146    1.6553 C.ar      1 RES1    0.0000
     25 H9         6.8009   13.5714    1.2597 H         1 RES1    0.0000
     26 C12        5.7310   12.1265    2.1691 C.ar      1 RES1    0.0000
     27 C13        6.8106   11.1140    2.0946 C.ar      1 RES1    0.0000
     28 C14        7.8763    9.3182    3.0625 C.ar      1 RES1    0.0000
     29 H10        7.9034    8.7352    3.8021 H         1 RES1    0.0000
     30 C15        8.8049    9.2487    2.0370 C.ar      1 RES1    0.0000
     31 H11        9.4309    8.5721    2.0585 H         1 RES1    0.0000
     32 C16        8.7097   10.1657    1.0062 C.ar      1 RES1    0.0000
     33 H12        9.2848   10.1480    0.3303 H         1 RES1    0.0000
     34 C17        7.7122   11.1003    1.0270 C.ar      1 RES1    0.0000
     35 H13        7.6510   11.7646    0.3303 H         1 RES1    0.0000
@<TRIPOS>BOND
     1    1    2 1
     2    2    7 ar
     3    3    1 2
     4    4    5 1
     5    6    1 2
     6    7    8 1
     7    9   27 ar
     8   10    7 ar
     9   11   10 1
    10   12    4 1
    11   13   12 ar
    12   14   13 1
    13   15    2 ar
    14   16   15 1
    15   17    4 1
    16   18   17 ar
    17   19   18 1
    18   20   18 ar
    19   21   20 1
    20   22   20 ar
    21   23   22 1
    22   24   22 ar
    23   25   24 1
    24   26   17 ar
    25   27   26 1
    26   28    9 ar
    27   29   28 1
    28   30   28 ar
    29   31   30 1
    30   32   30 ar
    31   33   32 1
    32   34   27 ar
    33   35   34 1
    34   10   12 ar
    35   13   15 ar
    36   24   26 ar
    37   32   34 ar
@<TRIPOS>SUBSTRUCTURE
     1 RES1 1

@<TRIPOS>CRYSIN
  13.2830   13.5850    7.6811  90.0000  90.0000  90.0000  29 1

