# MOL2 file generated by ConQuest
# Please check atom types

@<TRIPOS>MOLECULE
EWIYEO
    78    84     2
SMALL
NO_CHARGES
****
Generated from CSD

@<TRIPOS>ATOM
      1 C1         2.7563    7.0284    1.3535 C.3       1 RES1    0.0000
      2 H1         2.5896    7.9667    1.0485 H         1 RES1    0.0000
      3 C2         1.4499    6.3608    1.7985 C.3       1 RES1    0.0000
      4 H2         0.7909    6.3843    1.0592 H         1 RES1    0.0000
      5 H3         1.0676    6.8492    2.5698 H         1 RES1    0.0000
      6 C3         1.7380    4.9051    2.1936 C.3       1 RES1    0.0000
      7 H4         1.4322    4.7329    3.1189 H         1 RES1    0.0000
      8 H5         1.2658    4.2835    1.5852 H         1 RES1    0.0000
      9 C4         3.2441    4.7048    2.0891 C.3       1 RES1    0.0000
     10 H6         3.4859    3.7699    2.3512 H         1 RES1    0.0000
     11 C5         3.6811    4.9757    0.6814 C.2       1 RES1    0.0000
     12 H7         4.1142    4.3268    0.1404 H         1 RES1    0.0000
     13 C6         3.4085    6.2144    0.2556 C.2       1 RES1    0.0000
     14 C7         3.6514    6.7390   -1.1029 C.ar      1 RES1    0.0000
     15 C8         4.4713    6.0599   -2.0050 C.ar      1 RES1    0.0000
     16 H8         4.9304    5.2794   -1.7185 H         1 RES1    0.0000
     17 C9         4.6271    6.4982   -3.3043 C.ar      1 RES1    0.0000
     18 H9         5.1994    6.0267   -3.8991 H         1 RES1    0.0000
     19 C10        3.9523    7.6283   -3.7456 C.ar      1 RES1    0.0000
     20 H10        4.0445    7.9207   -4.6455 H         1 RES1    0.0000
     21 C11        3.1462    8.3227   -2.8700 C.ar      1 RES1    0.0000
     22 H11        2.6875    9.1011   -3.1634 H         1 RES1    0.0000
     23 C12        3.0029    7.8877   -1.5559 C.ar      1 RES1    0.0000
     24 H12        2.4541    8.3811   -0.9579 H         1 RES1    0.0000
     25 C13        4.8783    7.6828    2.4687 C.ar      1 RES1    0.0000
     26 C14        5.9630    7.2786    3.2462 C.ar      1 RES1    0.0000
     27 H13        5.9414    6.4666    3.7392 H         1 RES1    0.0000
     28 C15        7.0652    8.1002    3.2732 C.ar      1 RES1    0.0000
     29 H14        7.8162    7.8713    3.8085 H         1 RES1    0.0000
     30 C16        7.0776    9.2586    2.5202 C.ar      1 RES1    0.0000
     31 H15        7.8327    9.8343    2.5343 H         1 RES1    0.0000
     32 C17        5.9727    9.5671    1.7434 C.ar      1 RES1    0.0000
     33 C18        5.9289   10.7836    0.8767 C.3       1 RES1    0.0000
     34 H16        5.6910   10.5249   -0.0373 H         1 RES1    0.0000
     35 H17        6.8095   11.2157    0.8761 H         1 RES1    0.0000
     36 H18        5.2594   11.4085    1.2245 H         1 RES1    0.0000
     37 C19        7.8834    7.1542    7.4530 C.3       2 RES2    0.0000
     38 H19        7.6236    8.0470    7.8214 H         2 RES2    0.0000
     39 C20        6.6399    6.3772    6.9980 C.3       2 RES2    0.0000
     40 H20        6.1661    6.8812    6.2894 H         2 RES2    0.0000
     41 H21        6.0203    6.2540    7.7609 H         2 RES2    0.0000
     42 C21        7.0904    5.0043    6.4568 C.3       2 RES2    0.0000
     43 H22        6.6825    4.2759    6.9879 H         2 RES2    0.0000
     44 H23        6.8108    4.9001    5.5128 H         2 RES2    0.0000
     45 C22        8.6067    4.9527    6.5669 C.3       2 RES2    0.0000
     46 H24        8.9432    4.0671    6.2468 H         2 RES2    0.0000
     47 C23        9.0379    5.1850    7.9730 C.2       2 RES2    0.0000
     48 H25        9.5579    4.5576    8.4611 H         2 RES2    0.0000
     49 C24        8.6361    6.3497    8.4915 C.2       2 RES2    0.0000
     50 C25        8.8767    6.8340    9.8688 C.ar      2 RES2    0.0000
     51 C26        9.4100    5.9770   10.8351 C.ar      2 RES2    0.0000
     52 H26        9.6220    5.0817   10.5991 H         2 RES2    0.0000
     53 C27        9.6352    6.4105   12.1316 C.ar      2 RES2    0.0000
     54 H27       10.0111    5.8172   12.7708 H         2 RES2    0.0000
     55 C28        9.3140    7.7032   12.4996 C.ar      2 RES2    0.0000
     56 H28        9.4791    8.0027   13.3857 H         2 RES2    0.0000
     57 C29        8.7532    8.5558   11.5733 C.ar      2 RES2    0.0000
     58 H29        8.5063    9.4366   11.8289 H         2 RES2    0.0000
     59 C30        8.5476    8.1295   10.2637 C.ar      2 RES2    0.0000
     60 H30        8.1771    8.7315    9.6288 H         2 RES2    0.0000
     61 C31        9.9203    8.0955    6.4201 C.ar      2 RES2    0.0000
     62 C32       11.0613    7.8574    5.6514 C.ar      2 RES2    0.0000
     63 H31       11.1224    7.1042    5.0756 H         2 RES2    0.0000
     64 C33       12.0937    8.7621    5.7625 C.ar      2 RES2    0.0000
     65 H32       12.8822    8.6466    5.2462 H         2 RES2    0.0000
     66 C34       11.9849    9.8332    6.6212 C.ar      2 RES2    0.0000
     67 H33       12.6918   10.4611    6.7017 H         2 RES2    0.0000
     68 C35       10.8228    9.9776    7.3664 C.ar      2 RES2    0.0000
     69 C36       10.6409   11.1005    8.3389 C.3       2 RES2    0.0000
     70 H34        9.9832   11.7349    7.9849 H         2 RES2    0.0000
     71 H35       11.4971   11.5576    8.4736 H         2 RES2    0.0000
     72 H36       10.3233   10.7432    9.1951 H         2 RES2    0.0000
     73 N1         3.6392    7.0122    2.5437 N.3       1 RES1    0.0000
     74 N2         4.8733    8.7906    1.7235 N.ar      1 RES1    0.0000
     75 N3         8.7477    7.3177    6.2526 N.3       2 RES2    0.0000
     76 N4         9.7935    9.1213    7.2568 N.ar      2 RES2    0.0000
     77 O1         3.8563    5.6565    3.0059 O.3       1 RES1    0.0000
     78 O2         9.1113    6.0235    5.7067 O.3       2 RES2    0.0000
@<TRIPOS>BOND
     1    1    2 1
     2    3    1 1
     3    4    3 1
     4    5    3 1
     5    6    3 1
     6    7    6 1
     7    8    6 1
     8    9    6 1
     9   10    9 1
    10   11    9 1
    11   12   11 1
    12   13    1 1
    13   14   13 1
    14   15   14 ar
    15   16   15 1
    16   17   15 ar
    17   18   17 1
    18   19   17 ar
    19   20   19 1
    20   21   19 ar
    21   22   21 1
    22   23   14 ar
    23   24   23 1
    24   25   26 ar
    25   26   27 1
    26   28   26 ar
    27   29   28 1
    28   30   28 ar
    29   31   30 1
    30   32   30 ar
    31   33   32 1
    32   34   33 1
    33   35   33 1
    34   36   33 1
    35   37   38 1
    36   39   37 1
    37   40   39 1
    38   41   39 1
    39   42   39 1
    40   43   42 1
    41   44   42 1
    42   45   42 1
    43   46   45 1
    44   47   45 1
    45   48   47 1
    46   49   37 1
    47   50   49 1
    48   51   50 ar
    49   52   51 1
    50   53   51 ar
    51   54   53 1
    52   55   53 ar
    53   56   55 1
    54   57   55 ar
    55   58   57 1
    56   59   50 ar
    57   60   59 1
    58   61   62 ar
    59   62   63 1
    60   64   62 ar
    61   65   64 1
    62   66   64 ar
    63   67   66 1
    64   68   66 ar
    65   69   68 1
    66   70   69 1
    67   71   69 1
    68   72   69 1
    69   73    1 1
    70   74   25 ar
    71   75   37 1
    72   76   61 ar
    73   77    9 1
    74   78   45 1
    75   11   13 2
    76   21   23 ar
    77   25   73 1
    78   32   74 ar
    79   47   49 2
    80   57   59 ar
    81   61   75 1
    82   68   76 ar
    83   73   77 1
    84   75   78 1
@<TRIPOS>SUBSTRUCTURE
     1 RES1 1
     2 RES2 37

@<TRIPOS>CRYSIN
   8.5846    9.8310   17.8700  86.7690  84.2580  74.5770   2 1

