# MOL2 file generated by ConQuest
# Please check atom types

@<TRIPOS>MOLECULE
EWOXAP
    28    30     1
SMALL
USER_CHARGES
****
Generated from CSD

@<TRIPOS>ATOM
      1 O1         0.4125    9.4854   13.5153 O.2       1 RES1   -1.0000
      2 O2        -1.5579    8.5008   14.0846 O.3       1 RES1    0.0000
      3 N1        -2.2627    7.3547   13.7882 N.2       1 RES1    0.0000
      4 C1        -1.9467    5.4485   12.4587 C.ar      1 RES1    0.0000
      5 C2        -2.4716    3.2133   13.1036 C.ar      1 RES1    0.0000
      6 H1        -2.5908    2.5636   13.7586 H         1 RES1    0.0000
      7 C3        -2.1706    5.1854   11.1092 C.ar      1 RES1    0.0000
      8 N2        -1.5156    6.7544   12.8935 N.pl3     1 RES1    1.0000
      9 C4        -2.0927    4.4988   13.4546 C.ar      1 RES1    0.0000
     10 H2        -1.9389    4.7201   14.3443 H         1 RES1    0.0000
     11 C5        -2.5183    3.8712   10.7878 C.ar      1 RES1    0.0000
     12 H3        -2.6503    3.6389    9.8969 H         1 RES1    0.0000
     13 C6        -2.6707    2.9063   11.7711 C.ar      1 RES1    0.0000
     14 H4        -2.9100    2.0401   11.5312 H         1 RES1    0.0000
     15 C7        -0.3928    7.3947   12.5616 C.2       1 RES1    0.0000
     16 H5         0.2389    7.1225   11.9364 H         1 RES1    0.0000
     17 C8        -0.3534    8.5629   13.3447 C.2       1 RES1    0.0000
     18 C9        -2.1067    6.2296   10.0539 C.ar      1 RES1    0.0000
     19 C10       -1.3948    6.0040    8.8782 C.ar      1 RES1    0.0000
     20 H6        -0.9388    5.2021    8.7610 H         1 RES1    0.0000
     21 C11       -1.3619    6.9654    7.8833 C.ar      1 RES1    0.0000
     22 H7        -0.8823    6.8059    7.1022 H         1 RES1    0.0000
     23 C12       -2.0405    8.1656    8.0443 C.ar      1 RES1    0.0000
     24 H8        -2.0089    8.8128    7.3772 H         1 RES1    0.0000
     25 C13       -2.7665    8.3972    9.2032 C.ar      1 RES1    0.0000
     26 H9        -3.2309    9.1958    9.3087 H         1 RES1    0.0000
     27 C14       -2.7985    7.4377   10.2043 C.ar      1 RES1    0.0000
     28 H10       -3.2831    7.5978   10.9811 H         1 RES1    0.0000
@<TRIPOS>BOND
     1    1   17 1
     2    2    3 1
     3    3    8 2
     4    4    7 ar
     5    5    6 1
     6    7   11 ar
     7    8    4 1
     8    9    4 ar
     9   10    9 1
    10   11   12 1
    11   13    5 ar
    12   14   13 1
    13   15    8 1
    14   16   15 1
    15   17    2 1
    16   18    7 1
    17   19   18 ar
    18   20   19 1
    19   21   19 ar
    20   22   21 1
    21   23   21 ar
    22   24   23 1
    23   25   23 ar
    24   26   25 1
    25   27   18 ar
    26   28   27 1
    27    5    9 ar
    28   11   13 ar
    29   15   17 2
    30   25   27 ar
@<TRIPOS>SUBSTRUCTURE
     1 RES1 1

@<TRIPOS>CRYSIN
  11.0120    8.3100   12.9410  90.0000 108.4060  90.0000 231 1

