# MOL2 file generated by ConQuest
# Please check atom types

@<TRIPOS>MOLECULE
EWOYEU
    28    26     2
SMALL
NO_CHARGES
****
Generated from CSD

@<TRIPOS>ATOM
      1 O1         4.5388    1.3407   10.2025 O.3       1 RES1    0.0000
      2 O2         2.4719    1.8883    9.3925 O.3       1 RES1    0.0000
      3 O3         6.9732    1.6920    4.4994 O.2       1 RES1    0.0000
      4 O4         7.9682    1.6920    6.3974 O.2       1 RES1    0.0000
      5 N1         5.5920    1.6920    7.7094 N.2       1 RES1    0.0000
      6 N2         3.5849    1.6920    6.7506 N.2       1 RES1    0.0000
      7 N3         6.9714    1.6920    5.7227 N.2       1 RES1    0.0000
      8 C1         4.0284    1.1242   11.5460 C.3       1 RES1    0.0000
      9 C2         3.7378    2.3762   12.2493 Du        2 SUP2    0.0000
     10 C3         3.6493    1.6920    9.2422 C.3       1 RES1    0.0000
     11 C4         2.1277    1.6920    6.5672 C.2       1 RES1    0.0000
     12 C5         4.2966    1.6920    7.9183 C.2       1 RES1    0.0000
     13 C6         4.4807    1.6920    5.7512 C.2       1 RES1    0.0000
     14 C7         5.6948    1.6920    6.3704 C.2       1 RES1    0.0000
     15 H1         4.6810    0.6193   12.0555 H         1 RES1    0.0000
     16 H2         3.2175    0.5942   11.4964 H         1 RES1    0.0000
     17 H3         3.5367    2.1874   13.1690 Du        2 SUP2    0.0000
     18 H4         2.9842    2.8067   11.8376 Du        2 SUP2    0.0000
     19 H5         4.5022    2.9549   12.2012 Du        2 SUP2    0.0000
     20 H6         1.9185    1.9302    5.6610 Du        2 SUP2    0.0000
     21 H7         1.7299    2.3295    7.1654 Du        2 SUP2    0.0000
     22 H8         1.7817    0.8169    6.7566 Du        2 SUP2    0.0000
     23 H9         4.3100    1.6920    4.8360 H         1 RES1    0.0000
     24 O1B        4.5388    2.0433   10.2025 O.3       1 RES1    0.0000
     25 C1B        4.0284    2.2598   11.5460 C.3       1 RES1    0.0000
     26 O2B        2.4719    1.4957    9.3925 O.3       1 RES1    0.0000
     27 H1B        4.6810    2.7647   12.0555 H         1 RES1    0.0000
     28 H2B        3.2175    2.7898   11.4964 H         1 RES1    0.0000
@<TRIPOS>BOND
     1    1    8 1
     2    2   10 1
     3    3    7 1
     4    4    7 1
     5    5   12 1
     6    6   11 1
     7    7   14 1
     8    8   15 1
     9   10    1 1
    10   12    6 1
    11   13    6 1
    12   14    5 1
    13   16    8 1
    14   23   13 1
    15   24    1 1
    16   25    1 1
    17   26    2 1
    18   27   25 1
    19   28   25 1
    20    8   24 1
    21    8   25 1
    22   10   24 1
    23   10   12 1
    24   10   26 1
    25   13   14 1
    26   24   25 1
@<TRIPOS>SUBSTRUCTURE
     1 RES1 1
     2 SUP2 9

@<TRIPOS>CRYSIN
   8.9400    6.7680   15.0280  90.0000  90.0000  90.0000  62 1

