# MOL2 file generated by ConQuest
# Please check atom types

@<TRIPOS>MOLECULE
EWUCEE
    26    26     1
SMALL
NO_CHARGES
****
Generated from CSD

@<TRIPOS>ATOM
      1 O1         5.8878    5.7235    0.2636 O.3       1 RES1    0.0000
      2 O2         6.4525    3.2782    0.8724 O.3       1 RES1    0.0000
      3 O3         1.8658    2.4116    2.1072 O.3       1 RES1    0.0000
      4 C1         2.5742    4.5482    1.3584 C.ar      1 RES1    0.0000
      5 N1         1.2522    5.1161    1.5175 N.pl3     1 RES1    0.0000
      6 C2         2.8665    3.2257    1.6864 C.ar      1 RES1    0.0000
      7 C3         4.8523    4.9688    0.7164 C.ar      1 RES1    0.0000
      8 C4         2.1926    1.0881    2.5069 C.3       1 RES1    0.0000
      9 H1         2.6616    0.5922    1.7784 H         1 RES1    0.0000
     10 H2         1.3843    0.6993    2.7807 H         1 RES1    0.0000
     11 H3         2.7876    1.0867    3.2682 H         1 RES1    0.0000
     12 C5         4.1828    2.7932    1.5350 C.ar      1 RES1    0.0000
     13 H4         4.4018    1.9088    1.7628 H         1 RES1    0.0000
     14 C6         5.1643    3.6331    1.0577 C.ar      1 RES1    0.0000
     15 O4         0.4140    4.5296    2.1641 O.2       1 RES1    0.0000
     16 O5         1.0267    6.2018    1.0144 O.2       1 RES1    0.0000
     17 C7         5.5848    7.0447   -0.1646 C.3       1 RES1    0.0000
     18 H5         4.8759    7.0839   -0.8931 H         1 RES1    0.0000
     19 H6         6.4287    7.3800   -0.4641 H         1 RES1    0.0000
     20 H7         5.2271    7.5910    0.5889 H         1 RES1    0.0000
     21 C8         6.8538    1.9669    1.2975 C.3       1 RES1    0.0000
     22 H8         6.6618    1.8426    2.2698 H         1 RES1    0.0000
     23 H9         7.8288    1.9324    1.0452 H         1 RES1    0.0000
     24 H10        6.3468    1.2599    0.7254 H         1 RES1    0.0000
     25 C9         3.5678    5.4005    0.8705 C.ar      1 RES1    0.0000
     26 H11        3.3278    6.2965    0.6435 H         1 RES1    0.0000
@<TRIPOS>BOND
     1    1    7 1
     2    2   14 1
     3    3    6 1
     4    4    5 1
     5    5   15 2
     6    6    4 ar
     7    7   14 ar
     8    8    3 1
     9    9    8 1
    10   10    8 1
    11   11    8 1
    12   12    6 ar
    13   13   12 1
    14   14   12 ar
    15   16    5 2
    16   17    1 1
    17   18   17 1
    18   19   17 1
    19   20   17 1
    20   21    2 1
    21   22   21 1
    22   23   21 1
    23   24   21 1
    24   25    4 ar
    25   26   25 1
    26    7   25 ar
@<TRIPOS>SUBSTRUCTURE
     1 RES1 1

@<TRIPOS>CRYSIN
  15.7490   15.7490    3.9000  90.0000  90.0000  90.0000  77 1

