# MOL2 file generated by ConQuest
# Please check atom types

@<TRIPOS>MOLECULE
EWUFAD
    40    43     1
SMALL
NO_CHARGES
****
Generated from CSD

@<TRIPOS>ATOM
      1 O1         3.3990    9.8552    6.4064 O.3       1 RES1    0.0000
      2 C1         4.2532   10.5611    5.5008 C.3       1 RES1    0.0000
      3 O2         3.8623   11.9471    5.5181 O.3       1 RES1    0.0000
      4 C2         2.6819   11.9880    6.2062 C.ar      1 RES1    0.0000
      5 C3         1.8943   13.0862    6.4270 C.ar      1 RES1    0.0000
      6 C4         0.7491   12.8704    7.2038 C.ar      1 RES1    0.0000
      7 N1        -0.1246   13.9586    7.4895 N.am      1 RES1    0.0000
      8 C5        -0.6558   14.8232    6.5427 C.2       1 RES1    0.0000
      9 O3        -1.4023   15.7243    6.8984 O.2       1 RES1    0.0000
     10 C6        -0.3530   14.6081    5.0961 C.3       1 RES1    0.0000
     11 C7        -0.7413   13.9309    8.8268 C.3       1 RES1    0.0000
     12 C8         0.2819   14.0752    9.9391 C.ar      1 RES1    0.0000
     13 C9         1.5511   14.6169    9.7151 C.ar      1 RES1    0.0000
     14 C10        2.4405   14.7909   10.7668 C.ar      1 RES1    0.0000
     15 C11        2.0516   14.4274   12.0392 C.ar      1 RES1    0.0000
     16 N2         2.9873   14.5933   13.1504 N.pl3     1 RES1    0.0000
     17 O4         2.5860   14.3668   14.2897 O.2       1 RES1    0.0000
     18 O5         4.1312   14.9561   12.8972 O.2       1 RES1    0.0000
     19 C12        0.8111   13.9018   12.2891 C.ar      1 RES1    0.0000
     20 C13       -0.0692   13.7263   11.2396 C.ar      1 RES1    0.0000
     21 C14       -1.5582   12.6444    8.9242 C.3       1 RES1    0.0000
     22 C15       -0.6982   11.4354    8.6623 C.2       1 RES1    0.0000
     23 O6        -0.9677   10.3438    9.1438 O.2       1 RES1    0.0000
     24 C16        0.4783   11.6227    7.7838 C.ar      1 RES1    0.0000
     25 C17        1.3449   10.5354    7.5717 C.ar      1 RES1    0.0000
     26 C18        2.4111   10.7509    6.7678 C.ar      1 RES1    0.0000
     27 H1         4.1599   10.1914    4.5865 H         1 RES1    0.0000
     28 H2         5.1981   10.4700    5.7821 H         1 RES1    0.0000
     29 H3         2.1109   13.9414    6.0742 H         1 RES1    0.0000
     30 H4        -1.1485   14.8136    4.5616 H         1 RES1    0.0000
     31 H5        -0.0946   13.6736    4.9522 H         1 RES1    0.0000
     32 H6         0.3824   15.1972    4.8256 H         1 RES1    0.0000
     33 H7        -1.3742   14.7022    8.8885 H         1 RES1    0.0000
     34 H8         1.8069   14.8693    8.8354 H         1 RES1    0.0000
     35 H9         3.3044   15.1543   10.6110 H         1 RES1    0.0000
     36 H10        0.5605   13.6607   13.1731 H         1 RES1    0.0000
     37 H11       -0.9299   13.3607   11.4084 H         1 RES1    0.0000
     38 H12       -1.9569   12.5743    9.8276 H         1 RES1    0.0000
     39 H13       -2.2963   12.6729    8.2652 H         1 RES1    0.0000
     40 H14        1.1889    9.6900    7.9731 H         1 RES1    0.0000
@<TRIPOS>BOND
     1    1    2 1
     2    2    3 1
     3    3    4 1
     4    4    5 ar
     5    5    6 ar
     6    6    7 1
     7    7    8 1
     8    8    9 2
     9   10    8 1
    10   11    7 1
    11   12   11 1
    12   13   12 ar
    13   14   13 ar
    14   15   14 ar
    15   16   15 1
    16   17   16 2
    17   18   16 2
    18   19   15 ar
    19   20   12 ar
    20   21   11 1
    21   22   21 1
    22   23   22 2
    23   24    6 ar
    24   25   24 ar
    25   26    1 1
    26   27    2 1
    27   28    2 1
    28   29    5 1
    29   30   10 1
    30   31   10 1
    31   32   10 1
    32   33   11 1
    33   34   13 1
    34   35   14 1
    35   36   19 1
    36   37   20 1
    37   38   21 1
    38   39   21 1
    39   40   25 1
    40    4   26 ar
    41   19   20 ar
    42   22   24 1
    43   25   26 ar
@<TRIPOS>SUBSTRUCTURE
     1 RES1 1

@<TRIPOS>CRYSIN
   6.5253   21.4286   10.8198  90.0000  90.0000  90.0000  33 1

