# MOL2 file generated by ConQuest
# Please check atom types

@<TRIPOS>MOLECULE
EWUKIQ01
    19    19     1
SMALL
NO_CHARGES
****
Generated from CSD

@<TRIPOS>ATOM
      1 N1         6.7794   10.0960    4.9526 N.pl3     1 RES1    0.0000
      2 N2         6.2199    8.2632    2.8631 N.3       1 RES1    0.0000
      3 N3         8.4552    7.7867    2.9503 N.3       1 RES1    0.0000
      4 N4         7.0501    6.3948    1.6347 N.3       1 RES1    0.0000
      5 N5         6.8189    5.3318    2.5398 N.pl3     1 RES1    0.0000
      6 O1         5.5889   10.0733    4.6067 O.2       1 RES1    0.0000
      7 O2         7.1898   10.8695    5.8189 O.2       1 RES1    0.0000
      8 N6         7.7272    9.2897    4.4351 N.2       1 RES1    0.0000
      9 O3         5.6679    4.9983    2.7117 O.2       1 RES1    0.0000
     10 O4         7.7885    4.7870    3.0262 O.2       1 RES1    0.0000
     11 C1         7.4097    8.4645    3.4053 C.2       1 RES1    0.0000
     12 C2         8.3799    6.9726    1.7575 C.3       1 RES1    0.0000
     13 H1         9.0405    6.2640    1.8036 H         1 RES1    0.0000
     14 H2         8.5728    7.5163    0.9775 H         1 RES1    0.0000
     15 C3         6.0207    7.4227    1.6908 C.3       1 RES1    0.0000
     16 H3         5.1454    7.0061    1.7324 H         1 RES1    0.0000
     17 H4         6.0584    7.9664    0.8883 H         1 RES1    0.0000
     18 H5         9.1810    7.8247    3.3817 H         1 RES1    0.0000
     19 H6         5.5468    8.7609    3.1563 H         1 RES1    0.0000
@<TRIPOS>BOND
     1    1    6 2
     2    2   11 1
     3    3   11 1
     4    4    5 1
     5    5    9 2
     6    7    1 2
     7    8    1 1
     8   10    5 2
     9   11    8 2
    10   12    3 1
    11   13   12 1
    12   14   12 1
    13   15    2 1
    14   16   15 1
    15   17   15 1
    16   18    3 1
    17   19    2 1
    18    4   12 1
    19    4   15 1
@<TRIPOS>SUBSTRUCTURE
     1 RES1 1

@<TRIPOS>CRYSIN
   9.4031    8.5891    9.0200  90.0000  91.2130  90.0000  14 1

