# MOL2 file generated by ConQuest
# Please check atom types

@<TRIPOS>MOLECULE
EWUKAI
    19    19     1
SMALL
NO_CHARGES
****
Generated from CSD

@<TRIPOS>ATOM
      1 O1         1.0168    5.3894    0.4457 O.3       1 RES1    0.0000
      2 O2        -0.2742    6.7185    1.6530 O.2       1 RES1    0.0000
      3 O3        -0.6993    3.3374    0.9937 O.2       1 RES1    0.0000
      4 O4         0.1274    1.5382    1.8082 O.2       1 RES1    0.0000
      5 N1        -0.0026    2.7569    1.8182 N.pl3     1 RES1    0.0000
      6 N2         2.2453    5.6284    6.0261 N.3       1 RES1    0.0000
      7 C1         0.7725    4.9128    2.7535 C.ar      1 RES1    0.0000
      8 C2         0.6323    3.5275    2.8469 C.ar      1 RES1    0.0000
      9 C3         1.0413    2.8485    3.9967 C.ar      1 RES1    0.0000
     10 C4         1.5796    3.5470    5.0522 C.ar      1 RES1    0.0000
     11 C5         1.7278    4.9303    4.9887 C.ar      1 RES1    0.0000
     12 C6         1.3066    5.6032    3.8188 C.ar      1 RES1    0.0000
     13 C7         0.4450    5.7329    1.5418 C.2       1 RES1    0.0000
     14 H1         0.7446    6.0078   -0.2717 H         1 RES1    0.0000
     15 H2         0.9157    1.9079    4.0611 H         1 RES1    0.0000
     16 H3         1.8524    3.0282    5.8585 H         1 RES1    0.0000
     17 H4         2.5061    5.1959    6.7494 H         1 RES1    0.0000
     18 H5         2.3425    6.4813    5.9329 H         1 RES1    0.0000
     19 H6         1.4620    6.5544    3.7493 H         1 RES1    0.0000
@<TRIPOS>BOND
     1    1   13 1
     2    2   13 2
     3    3    5 2
     4    4    5 2
     5    5    8 1
     6    6   11 1
     7    7    8 ar
     8    8    9 ar
     9    9   10 ar
    10   10   11 ar
    11   11   12 ar
    12   12    7 ar
    13   13    7 1
    14   14    1 1
    15   15    9 1
    16   16   10 1
    17   17    6 1
    18   18    6 1
    19   19   12 1
@<TRIPOS>SUBSTRUCTURE
     1 RES1 1

@<TRIPOS>CRYSIN
   3.8980   13.5310   14.3010  90.0000  90.8300  90.0000  14 1

