# MOL2 file generated by ConQuest
# Please check atom types

@<TRIPOS>MOLECULE
EWUKIQ
    19    19     1
SMALL
NO_CHARGES
****
Generated from CSD

@<TRIPOS>ATOM
      1 O1         2.8665    3.8059    7.8580 O.2       1 RES1    0.0000
      2 O2         2.5961    3.5927    5.7247 O.2       1 RES1    0.0000
      3 O3         4.4896   -1.4842    5.6871 O.2       1 RES1    0.0000
      4 O4         5.6687   -2.2830    7.3155 O.2       1 RES1    0.0000
      5 N1         2.7759    0.8023    8.5180 N.3       1 RES1    0.0000
      6 N2         2.7325    0.3268    6.2813 N.3       1 RES1    0.0000
      7 N3         1.4872    2.1953    7.0870 N.3       1 RES1    0.0000
      8 N4         2.3969    3.2599    6.8774 N.pl3     1 RES1    0.0000
      9 N5         4.2761   -0.7017    7.8241 N.2       1 RES1    0.0000
     10 N6         4.8138   -1.5057    6.8868 N.pl3     1 RES1    0.0000
     11 C1         3.2516    0.1238    7.4828 C.2       1 RES1    0.0000
     12 C2         1.5683    1.1703    6.0575 C.3       1 RES1    0.0000
     13 C3         1.5812    1.6158    8.4164 C.3       1 RES1    0.0000
     14 H1         3.1996    0.7653    9.2795 H         1 RES1    0.0000
     15 H2         3.0499   -0.1634    5.6504 H         1 RES1    0.0000
     16 H3         1.6516    1.5822    5.1804 H         1 RES1    0.0000
     17 H4         0.7196    0.6363    6.1581 H         1 RES1    0.0000
     18 H5         1.6420    2.2787    9.0915 H         1 RES1    0.0000
     19 H6         0.7873    1.0491    8.5274 H         1 RES1    0.0000
@<TRIPOS>BOND
     1    1    8 2
     2    2    8 2
     3    3   10 2
     4    4   10 2
     5    5   11 1
     6    6   11 1
     7    7    8 1
     8    9   10 1
     9   11    9 2
    10   12    6 1
    11   13    5 1
    12   14    5 1
    13   15    6 1
    14   16   12 1
    15   17   12 1
    16   18   13 1
    17   19   13 1
    18    7   12 1
    19    7   13 1
@<TRIPOS>SUBSTRUCTURE
     1 RES1 1

@<TRIPOS>CRYSIN
   9.0260    8.5990    9.4038  90.0000  91.1990  90.0000  14 2

