# MOL2 file generated by ConQuest
# Please check atom types

@<TRIPOS>MOLECULE
EWUMAK
    37    39     1
SMALL
NO_CHARGES
****
Generated from CSD

@<TRIPOS>ATOM
      1 C1         1.7114    1.9297    1.0408 C.2       1 RES1    0.0000
      2 C2         1.1187    2.9806    1.9069 C.2       1 RES1    0.0000
      3 C3         1.8619    4.0515    2.2210 C.2       1 RES1    0.0000
      4 H1         1.4902    4.6774    2.8005 H         1 RES1    0.0000
      5 C4         3.2322    4.3144    1.7176 C.3       1 RES1    0.0000
      6 H2         3.8728    4.1082    2.4159 H         1 RES1    0.0000
      7 H3         3.3172    5.2565    1.5029 H         1 RES1    0.0000
      8 C5         3.5484    3.4970    0.4962 C.3       1 RES1    0.0000
      9 H4         4.4967    3.5597    0.3062 H         1 RES1    0.0000
     10 H5         3.0663    3.8580   -0.2651 H         1 RES1    0.0000
     11 C6         3.1665    2.0271    0.6842 C.3       1 RES1    0.0000
     12 H6         3.2923    1.5747   -0.1755 H         1 RES1    0.0000
     13 C7        -0.2606    2.8324    2.4392 C.ar      1 RES1    0.0000
     14 C8        -0.6916    1.6501    3.0454 C.ar      1 RES1    0.0000
     15 H7        -0.1261    0.9114    3.0656 H         1 RES1    0.0000
     16 C9        -1.9570    1.5620    3.6205 C.ar      1 RES1    0.0000
     17 H8        -2.2338    0.7673    4.0178 H         1 RES1    0.0000
     18 C10       -2.7925    2.6449    3.6014 C.ar      1 RES1    0.0000
     19 H9        -3.6371    2.5856    3.9841 H         1 RES1    0.0000
     20 C11       -2.3875    3.8179    3.0170 C.ar      1 RES1    0.0000
     21 H10       -2.9578    4.5526    3.0096 H         1 RES1    0.0000
     22 C12       -1.1365    3.9127    2.4387 C.ar      1 RES1    0.0000
     23 H11       -0.8761    4.7120    2.0425 H         1 RES1    0.0000
     24 C13        4.0727    1.3438    1.7047 C.ar      1 RES1    0.0000
     25 C14        3.6830    0.9982    2.9844 C.ar      1 RES1    0.0000
     26 H12        2.8110    1.1677    3.2579 H         1 RES1    0.0000
     27 C15        4.5673    0.4057    3.8667 C.ar      1 RES1    0.0000
     28 H13        4.2853    0.1822    4.7235 H         1 RES1    0.0000
     29 C16        5.8595    0.1455    3.4819 C.ar      1 RES1    0.0000
     30 H14        6.4553   -0.2489    4.0775 H         1 RES1    0.0000
     31 C17        6.2588    0.4717    2.2180 C.ar      1 RES1    0.0000
     32 H15        7.1319    0.2936    1.9510 H         1 RES1    0.0000
     33 C18        5.3837    1.0629    1.3362 C.ar      1 RES1    0.0000
     34 H16        5.6737    1.2778    0.4798 H         1 RES1    0.0000
     35 N1         0.9334    0.9982    0.6195 N.2       1 RES1    0.0000
     36 O1         1.6120    0.0540   -0.1774 O.3       1 RES1    0.0000
     37 H17        1.0750   -0.4911   -0.4723 H         1 RES1    0.0000
@<TRIPOS>BOND
     1    1    2 1
     2    2    3 2
     3    3    4 1
     4    5    3 1
     5    6    5 1
     6    7    5 1
     7    8    5 1
     8    9    8 1
     9   10    8 1
    10   11    1 1
    11   12   11 1
    12   13    2 1
    13   14   13 ar
    14   15   14 1
    15   16   14 ar
    16   17   16 1
    17   18   16 ar
    18   19   18 1
    19   20   18 ar
    20   21   20 1
    21   22   13 ar
    22   23   22 1
    23   24   11 1
    24   25   24 ar
    25   26   25 1
    26   27   25 ar
    27   28   27 1
    28   29   27 ar
    29   30   29 1
    30   31   29 ar
    31   32   31 1
    32   33   24 ar
    33   34   33 1
    34   35    1 2
    35   36   35 1
    36   37   36 1
    37    8   11 1
    38   20   22 ar
    39   31   33 ar
@<TRIPOS>SUBSTRUCTURE
     1 RES1 1

@<TRIPOS>CRYSIN
  11.5269    6.6724   19.0105  90.0000 100.8630  90.0000  14 1

