# MOL2 file generated by ConQuest
# Please check atom types

@<TRIPOS>MOLECULE
EXADIQ
    29    31     1
SMALL
NO_CHARGES
****
Generated from CSD

@<TRIPOS>ATOM
      1 O1        -3.6758    2.3086    1.3494 O.2       1 RES1    0.0000
      2 O2        -4.5797    0.9677    2.7780 O.2       1 RES1    0.0000
      3 N1        -3.6703    1.6990    2.4100 N.pl3     1 RES1    0.0000
      4 C1        -2.4907    1.8384    3.2740 C.ar      1 RES1    0.0000
      5 C2        -1.4685    2.6552    2.8730 C.ar      1 RES1    0.0000
      6 H1        -1.5156    3.1272    2.0512 H         1 RES1    0.0000
      7 C3        -0.3587    2.7770    3.7001 C.ar      1 RES1    0.0000
      8 H2         0.3601    3.3442    3.4468 H         1 RES1    0.0000
      9 C4        -0.2943    2.0792    4.8873 C.ar      1 RES1    0.0000
     10 C5        -1.3486    1.2570    5.2540 C.ar      1 RES1    0.0000
     11 H3        -1.3060    0.7772    6.0718 H         1 RES1    0.0000
     12 C6        -2.4539    1.1291    4.4480 C.ar      1 RES1    0.0000
     13 H4        -3.1754    0.5628    4.6973 H         1 RES1    0.0000
     14 C7         0.9266    2.1630    5.7724 C.3       1 RES1    0.0000
     15 N2         1.8476    3.2622    5.5128 N.3       1 RES1    0.0000
     16 C8         3.1201    2.6438    5.1735 C.3       1 RES1    0.0000
     17 H5         3.8635    3.0990    5.6431 H         1 RES1    0.0000
     18 H6         3.2819    2.6949    4.1974 H         1 RES1    0.0000
     19 C9         3.0158    1.2421    5.6075 C.3       1 RES1    0.0000
     20 H7         3.4980    0.6448    4.9822 H         1 RES1    0.0000
     21 H8         3.3942    1.1265    6.5150 H         1 RES1    0.0000
     22 O3         1.6453    0.9615    5.6020 O.3       1 RES1    0.0000
     23 C10        1.8469    4.0667    6.7274 C.3       1 RES1    0.0000
     24 H9         1.2541    4.8527    6.6272 H         1 RES1    0.0000
     25 H10        2.7609    4.3816    6.9398 H         1 RES1    0.0000
     26 C11        1.3445    3.1651    7.7919 C.3       1 RES1    0.0000
     27 H11        2.0884    2.6729    8.2206 H         1 RES1    0.0000
     28 H12        0.8536    3.6741    8.4845 H         1 RES1    0.0000
     29 O4         0.4840    2.2847    7.1077 O.3       1 RES1    0.0000
@<TRIPOS>BOND
     1    1    3 2
     2    2    3 2
     3    3    4 1
     4    4    5 ar
     5    5    6 1
     6    7    5 ar
     7    8    7 1
     8    9    7 ar
     9   10    9 ar
    10   11   10 1
    11   12    4 ar
    12   13   12 1
    13   14    9 1
    14   15   14 1
    15   16   15 1
    16   17   16 1
    17   18   16 1
    18   19   16 1
    19   20   19 1
    20   21   19 1
    21   22   14 1
    22   23   15 1
    23   24   23 1
    24   25   23 1
    25   26   23 1
    26   27   26 1
    27   28   26 1
    28   29   14 1
    29   10   12 ar
    30   19   22 1
    31   26   29 1
@<TRIPOS>SUBSTRUCTURE
     1 RES1 1

@<TRIPOS>CRYSIN
   9.4735    8.8214   13.2140  90.0000  93.3800  90.0000  14 1

