# MOL2 file generated by ConQuest
# Please check atom types

@<TRIPOS>MOLECULE
EXAHUH
    84    88     2
SMALL
NO_CHARGES
****
Generated from CSD

@<TRIPOS>ATOM
      1 O1         5.2507   10.2629    0.7580 O.2       1 RES1    0.0000
      2 O2         4.6777   10.3089   -1.2977 O.2       1 RES1    0.0000
      3 O3         6.1163    6.7057   -4.2617 O.2       1 RES1    0.0000
      4 O4         6.5864    4.8455   -3.3094 O.2       1 RES1    0.0000
      5 O5         7.8765    6.6121    2.5365 O.3       1 RES1    0.0000
      6 O6         8.7926    5.1107    1.1162 O.2       1 RES1    0.0000
      7 O7         7.7274    3.8897    3.6493 O.2       1 RES1    0.0000
      8 O8         2.1912   13.0083   -3.3292 O.2       2 RES2    0.0000
      9 O9         1.2404   11.3300   -4.2537 O.2       2 RES2    0.0000
     10 O10       -0.9391    8.0608   -1.4124 O.2       2 RES2    0.0000
     11 O11       -0.7164    8.2137    0.6939 O.2       2 RES2    0.0000
     12 O12        2.3670   11.3526    2.6865 O.3       2 RES2    0.0000
     13 O13        3.1155   13.0778    1.4508 O.2       2 RES2    0.0000
     14 O14        1.6373   13.8581    4.0631 O.2       2 RES2    0.0000
     15 N1         5.2320    9.7937   -0.3545 N.pl3     1 RES1    0.0000
     16 N2         6.3903    6.0415   -3.2838 N.pl3     1 RES1    0.0000
     17 N3         1.6132   11.9429   -3.2785 N.pl3     2 RES2    0.0000
     18 N4        -0.4659    8.5743   -0.4317 N.pl3     2 RES2    0.0000
     19 C1         7.2621    6.7196    0.2740 C.ar      1 RES1    0.0000
     20 C2         6.6176    7.9366    0.4834 C.ar      1 RES1    0.0000
     21 C3         5.9313    8.5050   -0.5758 C.ar      1 RES1    0.0000
     22 C4         5.8454    7.9343   -1.8206 C.ar      1 RES1    0.0000
     23 C5         6.4800    6.7215   -1.9806 C.ar      1 RES1    0.0000
     24 C6         7.1865    6.0999   -0.9643 C.ar      1 RES1    0.0000
     25 C7         8.0679    6.0418    1.3369 C.2       1 RES1    0.0000
     26 C8         8.6932    6.1275    3.6519 C.3       1 RES1    0.0000
     27 C9        10.1725    6.4831    3.5009 C.3       1 RES1    0.0000
     28 C10       10.5549    7.8881    3.9607 C.3       1 RES1    0.0000
     29 C11        9.9218    8.2969    5.2773 C.3       1 RES1    0.0000
     30 C12        8.4214    8.1496    5.1998 C.3       1 RES1    0.0000
     31 C13        8.0518    6.7135    4.9199 C.3       1 RES1    0.0000
     32 C14        8.6869    4.6052    3.8170 C.2       1 RES1    0.0000
     33 C15       10.0146    4.2624    4.2887 C.2       1 RES1    0.0000
     34 C16       10.8371    5.2910    4.1670 C.2       1 RES1    0.0000
     35 C17       12.2838    5.3087    4.5027 C.3       1 RES1    0.0000
     36 C18        1.8485   11.3683    0.3905 C.ar      2 RES2    0.0000
     37 C19        2.0381   11.9261   -0.8629 C.ar      2 RES2    0.0000
     38 C20        1.4233   11.3414   -1.9515 C.ar      2 RES2    0.0000
     39 C21        0.6110   10.2348   -1.8471 C.ar      2 RES2    0.0000
     40 C22        0.4415    9.7214   -0.5862 C.ar      2 RES2    0.0000
     41 C23        1.0420   10.2554    0.5442 C.ar      2 RES2    0.0000
     42 C24        2.5123   12.0390    1.5520 C.2       2 RES2    0.0000
     43 C25        3.0253   11.8627    3.8831 C.3       2 RES2    0.0000
     44 C26        2.4425   11.0627    5.0460 C.3       2 RES2    0.0000
     45 C27        3.0698    9.7007    5.2295 C.3       2 RES2    0.0000
     46 C28        4.5579    9.8380    5.4351 C.3       2 RES2    0.0000
     47 C29        5.1811   10.4573    4.2029 C.3       2 RES2    0.0000
     48 C30        4.5564   11.7869    3.7989 C.3       2 RES2    0.0000
     49 C31        4.9591   13.0385    4.5528 C.2       2 RES2    0.0000
     50 C32        3.9550   13.8948    4.6877 C.2       2 RES2    0.0000
     51 C33        2.7238   13.3384    4.1678 C.2       2 RES2    0.0000
     52 C34        6.3720   13.2592    4.9670 C.3       2 RES2    0.0000
     53 H1         6.6493    8.3578    1.3319 H         1 RES1    0.0000
     54 H2         5.3692    8.3479   -2.5307 H         1 RES1    0.0000
     55 H3         7.6180    5.2667   -1.1160 H         1 RES1    0.0000
     56 H4        10.3769    6.4313    2.5721 H         1 RES1    0.0000
     57 H5        11.4985    7.9224    4.0605 H         1 RES1    0.0000
     58 H6        10.2806    8.5045    3.2962 H         1 RES1    0.0000
     59 H7        10.2574    7.7394    5.9731 H         1 RES1    0.0000
     60 H8        10.1419    9.1999    5.4636 H         1 RES1    0.0000
     61 H9         8.0331    8.4205    6.0209 H         1 RES1    0.0000
     62 H10        8.0880    8.6971    4.4950 H         1 RES1    0.0000
     63 H11        7.1049    6.6592    4.8286 H         1 RES1    0.0000
     64 H12        8.3229    6.1857    5.6640 H         1 RES1    0.0000
     65 H13       10.2629    3.4083    4.6359 H         1 RES1    0.0000
     66 H14       12.6106    4.4227    4.5700 H         1 RES1    0.0000
     67 H15       12.7629    5.7667    3.8096 H         1 RES1    0.0000
     68 H16       12.4194    5.7666    5.3226 H         1 RES1    0.0000
     69 H17        2.5819   12.6981   -0.9750 H         2 RES2    0.0000
     70 H18        0.1926    9.8453   -2.6057 H         2 RES2    0.0000
     71 H19        0.9022    9.8675    1.4005 H         2 RES2    0.0000
     72 H20        2.5713   11.5605    5.8463 H         2 RES2    0.0000
     73 H21        1.5131   10.9444    4.8933 H         2 RES2    0.0000
     74 H22        2.6870    9.2804    5.9899 H         2 RES2    0.0000
     75 H23        2.9032    9.1753    4.4575 H         2 RES2    0.0000
     76 H24        4.7284   10.3948    6.1826 H         2 RES2    0.0000
     77 H25        4.9380    8.9807    5.5812 H         2 RES2    0.0000
     78 H26        6.1039   10.5909    4.3773 H         2 RES2    0.0000
     79 H27        5.0811    9.8407    3.4850 H         2 RES2    0.0000
     80 H28        4.7875   11.9270    2.8850 H         2 RES2    0.0000
     81 H29        4.0336   14.7600    5.0808 H         2 RES2    0.0000
     82 H30        6.8055   12.4189    5.1170 H         2 RES2    0.0000
     83 H31        6.3930   13.7813    5.7726 H         2 RES2    0.0000
     84 H32        6.8382   13.7387    4.2700 H         2 RES2    0.0000
@<TRIPOS>BOND
     1    1   15 2
     2    2   15 2
     3    3   16 2
     4    4   16 2
     5    5   25 1
     6    6   25 2
     7    7   32 2
     8    8   17 2
     9    9   17 2
    10   10   18 2
    11   11   18 2
    12   12   42 1
    13   13   42 2
    14   14   51 2
    15   15   21 1
    16   16   23 1
    17   17   38 1
    18   18   40 1
    19   19   20 ar
    20   20   21 ar
    21   21   22 ar
    22   22   23 ar
    23   23   24 ar
    24   24   19 ar
    25   25   19 1
    26   26    5 1
    27   27   26 1
    28   28   27 1
    29   29   28 1
    30   30   29 1
    31   31   26 1
    32   32   26 1
    33   33   32 1
    34   34   27 1
    35   35   34 1
    36   36   37 ar
    37   37   38 ar
    38   38   39 ar
    39   39   40 ar
    40   40   41 ar
    41   41   36 ar
    42   42   36 1
    43   43   12 1
    44   44   43 1
    45   45   44 1
    46   46   45 1
    47   47   46 1
    48   48   43 1
    49   49   48 1
    50   50   49 2
    51   51   43 1
    52   52   49 1
    53   53   20 1
    54   54   22 1
    55   55   24 1
    56   56   27 1
    57   57   28 1
    58   58   28 1
    59   59   29 1
    60   60   29 1
    61   61   30 1
    62   62   30 1
    63   63   31 1
    64   64   31 1
    65   65   33 1
    66   66   35 1
    67   67   35 1
    68   68   35 1
    69   69   37 1
    70   70   39 1
    71   71   41 1
    72   72   44 1
    73   73   44 1
    74   74   45 1
    75   75   45 1
    76   76   46 1
    77   77   46 1
    78   78   47 1
    79   79   47 1
    80   80   48 1
    81   81   50 1
    82   82   52 1
    83   83   52 1
    84   84   52 1
    85   30   31 1
    86   33   34 2
    87   47   48 1
    88   50   51 1
@<TRIPOS>SUBSTRUCTURE
     1 RES1 1
     2 RES2 8

@<TRIPOS>CRYSIN
  10.9142   11.9957   13.3277  87.5500  76.2140  89.8820   2 1

