# MOL2 file generated by ConQuest
# Please check atom types

@<TRIPOS>MOLECULE
EXAJIX
    78    82     2
SMALL
NO_CHARGES
****
Generated from CSD

@<TRIPOS>ATOM
      1 C1         3.2191   10.5726    4.1291 C.2       1 RES1    0.0000
      2 O1         2.6966    9.8252    3.3617 O.2       1 RES1    0.0000
      3 O2         3.7313   10.2180    5.3166 O.3       1 RES1    0.0000
      4 C2         3.3644   12.0315    3.8856 C.ar      1 RES1    0.0000
      5 C3         2.9292   12.4954    2.6583 C.ar      1 RES1    0.0000
      6 H1         2.5873   11.8898    2.0105 H         1 RES1    0.0000
      7 C4         2.9960   13.8273    2.3849 C.ar      1 RES1    0.0000
      8 C5         3.4933   14.7358    3.2805 C.ar      1 RES1    0.0000
      9 H2         3.5420   15.6619    3.0741 H         1 RES1    0.0000
     10 C6         3.9201   14.2471    4.4936 C.ar      1 RES1    0.0000
     11 C7         3.8611   12.9220    4.8140 C.ar      1 RES1    0.0000
     12 H3         4.1580   12.6189    5.6640 H         1 RES1    0.0000
     13 N1         2.4881   14.3012    1.0878 N.pl3     1 RES1    0.0000
     14 O3         2.0712   13.4689    0.3075 O.2       1 RES1    0.0000
     15 O4         2.5059   15.4958    0.8842 O.2       1 RES1    0.0000
     16 N2         4.4370   15.1991    5.4732 N.pl3     1 RES1    0.0000
     17 O5         4.4191   16.3799    5.1884 O.2       1 RES1    0.0000
     18 O6         4.8669   14.7575    6.5268 O.2       1 RES1    0.0000
     19 C8         3.5681    8.8964    5.7679 C.ar      1 RES1    0.0000
     20 C9         3.1159    8.7762    7.0722 C.ar      1 RES1    0.0000
     21 C10        3.0094    7.4914    7.5833 C.ar      1 RES1    0.0000
     22 H4         2.7000    7.3679    8.4718 H         1 RES1    0.0000
     23 C11        3.3426    6.3947    6.8244 C.ar      1 RES1    0.0000
     24 C12        3.2854    4.9394    7.1661 C.3       1 RES1    0.0000
     25 H5         2.3492    4.6189    7.1932 H         1 RES1    0.0000
     26 H6         3.7099    4.7659    8.0432 H         1 RES1    0.0000
     27 C13        4.0531    4.2690    6.0541 C.3       1 RES1    0.0000
     28 H7         3.5878    3.4429    5.7679 H         1 RES1    0.0000
     29 H8         4.9616    4.0250    6.3645 H         1 RES1    0.0000
     30 C14        4.1391    5.2451    4.9023 C.3       1 RES1    0.0000
     31 H9         5.0466    5.2481    4.5079 H         1 RES1    0.0000
     32 H10        3.4814    5.0188    4.1975 H         1 RES1    0.0000
     33 C15        3.8232    6.5582    5.5245 C.ar      1 RES1    0.0000
     34 C16        3.9404    7.8230    4.9948 C.ar      1 RES1    0.0000
     35 H11        4.2715    7.9500    4.1149 H         1 RES1    0.0000
     36 C17        2.7930    9.9787    7.9037 C.3       1 RES1    0.0000
     37 H12        3.6133   10.4844    8.0774 H         1 RES1    0.0000
     38 H13        2.4002    9.6906    8.7551 H         1 RES1    0.0000
     39 H14        2.1536   10.5461    7.4239 H         1 RES1    0.0000
     40 C18        6.8557   10.9983    5.6455 C.2       2 RES2    0.0000
     41 O7         6.2918   11.7472    6.3716 O.2       2 RES2    0.0000
     42 O8         7.4385   11.3667    4.4780 O.3       2 RES2    0.0000
     43 C19        7.0073    9.5550    5.9089 C.ar      2 RES2    0.0000
     44 C20        6.5361    9.1123    7.1405 C.ar      2 RES2    0.0000
     45 H15        6.1790    9.7259    7.7727 H         2 RES2    0.0000
     46 C21        6.5965    7.7816    7.4239 C.ar      2 RES2    0.0000
     47 C22        7.1069    6.8563    6.5496 C.ar      2 RES2    0.0000
     48 H16        7.1480    5.9331    6.7703 H         2 RES2    0.0000
     49 C23        7.5565    7.3244    5.3408 C.ar      2 RES2    0.0000
     50 C24        7.5257    8.6492    5.0019 C.ar      2 RES2    0.0000
     51 H17        7.8540    8.9408    4.1590 H         2 RES2    0.0000
     52 N3         6.0802    7.3203    8.7124 N.pl3     2 RES2    0.0000
     53 O9         5.6262    8.1541    9.4685 O.2       2 RES2    0.0000
     54 O10        6.1267    6.1292    8.9559 O.2       2 RES2    0.0000
     55 N4         8.0941    6.3556    4.3854 N.pl3     2 RES2    0.0000
     56 O11        8.0851    5.1813    4.6986 O.2       2 RES2    0.0000
     57 O12        8.5239    6.7799    3.3289 O.2       2 RES2    0.0000
     58 C25        7.3019   12.7056    4.0480 C.ar      2 RES2    0.0000
     59 C26        6.8702   12.8659    2.7466 C.ar      2 RES2    0.0000
     60 C27        6.7864   14.1683    2.2739 C.ar      2 RES2    0.0000
     61 H18        6.4837   14.3242    1.3868 H         2 RES2    0.0000
     62 C28        7.1307   15.2282    3.0584 C.ar      2 RES2    0.0000
     63 C29        7.1102   16.7056    2.7565 C.3       2 RES2    0.0000
     64 H19        6.1860   17.0585    2.7679 H         2 RES2    0.0000
     65 H20        7.5161   16.8938    1.8723 H         2 RES2    0.0000
     66 C30        7.9371   17.3084    3.8728 C.3       2 RES2    0.0000
     67 H21        8.8663   17.4613    3.5681 H         2 RES2    0.0000
     68 H22        7.5509   18.1728    4.1590 H         2 RES2    0.0000
     69 C31        7.9165   16.3234    5.0119 C.3       2 RES2    0.0000
     70 H23        8.7958   16.2882    5.4661 H         2 RES2    0.0000
     71 H24        7.2213   16.5645    5.6754 H         2 RES2    0.0000
     72 C32        7.5991   15.0216    4.3512 C.ar      2 RES2    0.0000
     73 C33        7.6815   13.7456    4.8610 C.ar      2 RES2    0.0000
     74 H25        7.9909   13.5891    5.7452 H         2 RES2    0.0000
     75 C34        6.5328   11.7045    1.8723 C.3       2 RES2    0.0000
     76 H26        7.3471   11.1959    1.6773 H         2 RES2    0.0000
     77 H27        6.1427   12.0309    1.0351 H         2 RES2    0.0000
     78 H28        5.8877   11.1283    2.3308 H         2 RES2    0.0000
@<TRIPOS>BOND
     1    1    2 2
     2    3    1 1
     3    4    1 1
     4    5    4 ar
     5    6    5 1
     6    7    5 ar
     7    8    7 ar
     8    9    8 1
     9   10    8 ar
    10   11    4 ar
    11   12   11 1
    12   13    7 1
    13   14   13 2
    14   15   13 2
    15   16   10 1
    16   17   16 2
    17   18   16 2
    18   19    3 1
    19   20   19 ar
    20   21   20 ar
    21   22   21 1
    22   23   21 ar
    23   24   23 1
    24   25   24 1
    25   26   24 1
    26   27   24 1
    27   28   27 1
    28   29   27 1
    29   30   27 1
    30   31   30 1
    31   32   30 1
    32   33   23 ar
    33   34   19 ar
    34   35   34 1
    35   36   20 1
    36   37   36 1
    37   38   36 1
    38   39   36 1
    39   40   41 2
    40   42   40 1
    41   43   40 1
    42   44   43 ar
    43   45   44 1
    44   46   44 ar
    45   47   46 ar
    46   48   47 1
    47   49   47 ar
    48   50   43 ar
    49   51   50 1
    50   52   46 1
    51   53   52 2
    52   54   52 2
    53   55   49 1
    54   56   55 2
    55   57   55 2
    56   58   42 1
    57   59   58 ar
    58   60   59 ar
    59   61   60 1
    60   62   60 ar
    61   63   62 1
    62   64   63 1
    63   65   63 1
    64   66   63 1
    65   67   66 1
    66   68   66 1
    67   69   66 1
    68   70   69 1
    69   71   69 1
    70   72   62 ar
    71   73   58 ar
    72   74   73 1
    73   75   59 1
    74   76   75 1
    75   77   75 1
    76   78   75 1
    77   10   11 ar
    78   30   33 1
    79   33   34 ar
    80   49   50 ar
    81   69   72 1
    82   72   73 ar
@<TRIPOS>SUBSTRUCTURE
     1 RES1 1
     2 RES2 40

@<TRIPOS>CRYSIN
   7.3218   29.4010   14.2410  90.0000  91.1110  90.0000  14 1

