# MOL2 file generated by ConQuest
# Please check atom types

@<TRIPOS>MOLECULE
EXAKOD
    59    57     2
SMALL
NO_CHARGES
****
Generated from CSD

@<TRIPOS>ATOM
      1 O1         8.9586    3.0553    5.3142 O.3       1 RES1    0.0000
      2 O2         3.6018    2.8902    5.0996 O.2       1 RES1    0.0000
      3 O3         6.1203    3.3734    9.5783 O.3       1 RES1    0.0000
      4 O4         6.4231    1.6297   10.9520 O.2       1 RES1    0.0000
      5 O5         6.9146    6.1335   16.1741 O.2       1 RES1    0.0000
      6 O6         6.4340    7.7396   14.8388 O.2       1 RES1    0.0000
      7 N1         6.6309    6.5610   15.0662 N.pl3     1 RES1    0.0000
      8 N2         7.1041    2.7928    4.0049 N.2       1 RES1    0.0000
      9 N3         5.4962    3.2746    6.2610 N.am      1 RES1    0.0000
     10 C1         7.6238    3.0273    5.1299 C.2       1 RES1    0.0000
     11 C2         9.7787    2.8947    4.1408 C.3       1 RES1    0.0000
     12 H1        10.7228    2.8825    4.4018 H         1 RES1    0.0000
     13 H2         9.6189    3.6406    3.5259 H         1 RES1    0.0000
     14 H3         9.5521    2.0512    3.6961 H         1 RES1    0.0000
     15 C3         5.6554    2.7053    3.8768 C.3       1 RES1    0.0000
     16 H4         5.3986    1.7500    3.6824 H         1 RES1    0.0000
     17 C4         4.8265    2.9979    5.1216 C.2       1 RES1    0.0000
     18 C5         6.9404    3.3759    6.4269 C.3       1 RES1    0.0000
     19 C6         4.8535    3.0811    7.5713 C.3       1 RES1    0.0000
     20 H5         4.0742    2.4751    7.4938 H         1 RES1    0.0000
     21 H6         4.5487    3.9468    7.9442 H         1 RES1    0.0000
     22 C7         5.9273    2.4665    8.4493 C.3       1 RES1    0.0000
     23 H7         5.6687    1.6711    8.7996 H         1 RES1    0.0000
     24 C8         7.1780    2.3725    7.5850 C.3       1 RES1    0.0000
     25 H8         7.2933    1.4531    7.2343 H         1 RES1    0.0000
     26 H9         7.9831    2.6200    8.1048 H         1 RES1    0.0000
     27 C9         5.1371    3.4799    2.6410 C.3       1 RES1    0.0000
     28 H10        4.1381    3.4318    2.6554 H         1 RES1    0.0000
     29 C10        5.5203    4.9430    2.6769 C.3       1 RES1    0.0000
     30 H11        5.1404    5.3604    3.4778 H         1 RES1    0.0000
     31 H12        5.1718    5.3920    1.8783 H         1 RES1    0.0000
     32 H13        6.4969    5.0248    2.6979 H         1 RES1    0.0000
     33 C11        5.6095    2.7928    1.3597 C.3       1 RES1    0.0000
     34 H14        6.5792    2.6558    1.4005 H         1 RES1    0.0000
     35 H15        5.3919    3.3565    0.5876 H         1 RES1    0.0000
     36 H16        5.1604    1.9264    1.2687 H         1 RES1    0.0000
     37 C12        6.3251    2.8122   10.7731 C.2       1 RES1    0.0000
     38 C13        6.3999    3.8342   11.8613 C.ar      1 RES1    0.0000
     39 C14        6.5975    3.3716   13.1621 C.ar      1 RES1    0.0000
     40 H17        6.6764    2.4392   13.3263 H         1 RES1    0.0000
     41 C15        6.6785    4.2652   14.2137 C.ar      1 RES1    0.0000
     42 H18        6.8217    3.9597   15.1016 H         1 RES1    0.0000
     43 C16        6.5465    5.6064   13.9445 C.ar      1 RES1    0.0000
     44 C17        6.3410    6.1006   12.6662 C.ar      1 RES1    0.0000
     45 H19        6.2531    7.0344   12.5121 H         1 RES1    0.0000
     46 C18        6.2665    5.1933   11.6174 C.ar      1 RES1    0.0000
     47 H20        6.1235    5.5039   10.7314 H         1 RES1    0.0000
     48 C19        7.3326    4.8060    6.8489 C.3       1 RES1    0.0000
     49 H21        6.7383    5.0563    7.6558 H         1 RES1    0.0000
     50 H22        8.2211    4.7694    7.1121 H         1 RES1    0.0000
     51 C20        6.9288    5.8912    5.7762 C.2       1 RES1    0.0000
     52 H23        6.0743    5.9313    5.4233 H         1 RES1    0.0000
     53 C21        7.5481    5.6581    5.7089 Du        2 SUP2    0.0000
     54 H24        8.2008    5.2643    4.9977 Du        2 SUP2    0.0000
     55 C22        7.8229    6.6163    5.1570 C.2       1 RES1    0.0000
     56 H25        7.4595    7.2080    4.5858 H         1 RES1    0.0000
     57 H26        8.5534    6.5983    5.3410 H         1 RES1    0.0000
     58 C23        6.9645    6.7862    5.6650 Du        2 SUP2    0.0000
     59 H27        6.1944    6.9498    6.3295 Du        2 SUP2    0.0000
@<TRIPOS>BOND
     1    1   10 1
     2    2   17 2
     3    3   22 1
     4    4   37 2
     5    5    7 2
     6    6    7 2
     7    7   43 1
     8    8   10 2
     9    9   17 1
    10   10   18 1
    11   11    1 1
    12   12   11 1
    13   13   11 1
    14   14   11 1
    15   15    8 1
    16   16   15 1
    17   17   15 1
    18   18    9 1
    19   19    9 1
    20   20   19 1
    21   21   19 1
    22   22   19 1
    23   23   22 1
    24   24   18 1
    25   25   24 1
    26   26   24 1
    27   27   15 1
    28   28   27 1
    29   29   27 1
    30   30   29 1
    31   31   29 1
    32   32   29 1
    33   33   27 1
    34   34   33 1
    35   35   33 1
    36   36   33 1
    37   37    3 1
    38   38   37 1
    39   39   38 ar
    40   40   39 1
    41   41   39 ar
    42   42   41 1
    43   43   41 ar
    44   44   43 ar
    45   45   44 1
    46   46   38 ar
    47   47   46 1
    48   48   18 1
    49   49   48 1
    50   50   48 1
    51   51   48 1
    52   52   51 1
    53   55   51 2
    54   56   55 1
    55   57   55 1
    56   22   24 1
    57   44   46 ar
@<TRIPOS>SUBSTRUCTURE
     1 RES1 1
     2 SUP2 53

@<TRIPOS>CRYSIN
  10.5345    7.1721   13.9264  90.0000  99.6340  90.0000   4 1

