# MOL2 file generated by ConQuest
# Please check atom types

@<TRIPOS>MOLECULE
EXBISX
    30    32     1
SMALL
NO_CHARGES
****
Generated from CSD

@<TRIPOS>ATOM
      1 O1         3.8145    3.7535    0.4440 O.3       1 RES1    0.0000
      2 O2         1.9645    5.9553    3.7254 O.2       1 RES1    0.0000
      3 O3         1.8925    3.4994    1.6393 O.3       1 RES1    0.0000
      4 N1         4.9464    4.6296    0.3903 N.2       1 RES1    0.0000
      5 C1         2.9922    4.1648    1.4152 C.2       1 RES1    0.0000
      6 C2         3.4908    5.2938    2.0282 C.2       1 RES1    0.0000
      7 C3         2.9943    6.1188    3.0974 C.2       1 RES1    0.0000
      8 C4         4.7091    5.5109    1.3300 C.2       1 RES1    0.0000
      9 C5         1.6670    2.2733    0.8578 C.3       1 RES1    0.0000
     10 C6         0.3955    1.6705    1.3262 C.3       1 RES1    0.0000
     11 H1         1.7046    2.5926   -0.1083 H         1 RES1    0.0000
     12 H2         2.3250    1.8008    0.9793 H         1 RES1    0.0000
     13 H3        -0.2780    2.1967    1.1440 H         1 RES1    0.0000
     14 H4         0.2562    0.8429    0.8616 H         1 RES1    0.0000
     15 H5         0.3534    1.5709    2.2928 H         1 RES1    0.0000
     16 C4B        3.9378    7.2606    3.3780 C.2       1 RES1    0.0000
     17 C3B        5.6526    6.6526    1.6106 C.2       1 RES1    0.0000
     18 N1B        3.7005    8.1418    4.3177 N.2       1 RES1    0.0000
     19 C2B        5.1561    7.4777    2.6798 C.2       1 RES1    0.0000
     20 O2B        6.6824    6.8161    0.9826 O.2       1 RES1    0.0000
     21 O1B        4.8324    9.0179    4.2640 O.3       1 RES1    0.0000
     22 C1B        5.6547    8.6067    3.2928 C.2       1 RES1    0.0000
     23 O3B        6.7545    9.2721    3.0687 O.3       1 RES1    0.0000
     24 C5B        6.9800   10.4981    3.8502 C.3       1 RES1    0.0000
     25 C6B        8.2515   11.1009    3.3818 C.3       1 RES1    0.0000
     26 H1B        6.9424   10.1788    4.8163 H         1 RES1    0.0000
     27 H2B        6.3219   10.9707    3.7287 H         1 RES1    0.0000
     28 H3B        8.9249   10.5748    3.5640 H         1 RES1    0.0000
     29 H4B        8.3908   11.9285    3.8464 H         1 RES1    0.0000
     30 H5B        8.2935   11.2006    2.4152 H         1 RES1    0.0000
@<TRIPOS>BOND
     1    1    4 1
     2    2    7 2
     3    3    5 1
     4    4    8 2
     5    5    1 1
     6    6    5 2
     7    7    6 1
     8    8    6 1
     9    9    3 1
    10   10    9 1
    11   11    9 1
    12   12    9 1
    13   13   10 1
    14   14   10 1
    15   15   10 1
    16   16    7 1
    17   17    8 1
    18   18   16 2
    19   19   16 1
    20   20   17 2
    21   21   18 1
    22   22   19 2
    23   23   22 1
    24   24   23 1
    25   25   24 1
    26   26   24 1
    27   27   24 1
    28   28   25 1
    29   29   25 1
    30   30   25 1
    31   17   19 1
    32   21   22 1
@<TRIPOS>SUBSTRUCTURE
     1 RES1 1

@<TRIPOS>CRYSIN
  10.1450   12.8590    4.7080  90.0000  90.0000  96.6900  14 3

