# MOL2 file generated by ConQuest
# Please check atom types

@<TRIPOS>MOLECULE
EXELAW
   106   112     2
SMALL
NO_CHARGES
****
Generated from CSD

@<TRIPOS>ATOM
      1 C1         1.4650   12.2727    3.5416 C.3       1 RES1    0.0000
      2 H1         0.7120   12.3144    2.8849 H         1 RES1    0.0000
      3 C2         2.4982   11.2929    3.0059 C.3       1 RES1    0.0000
      4 H2         2.6388   11.4688    2.0412 H         1 RES1    0.0000
      5 H3         3.3585   11.4477    3.4693 H         1 RES1    0.0000
      6 C3         2.0976    9.8452    3.1870 C.ar      1 RES1    0.0000
      7 C4         2.8900    8.8648    2.5781 C.ar      1 RES1    0.0000
      8 H4         3.6419    9.1323    2.0609 H         1 RES1    0.0000
      9 C5         2.6092    7.5198    2.7080 C.ar      1 RES1    0.0000
     10 H5         3.1651    6.8723    2.2916 H         1 RES1    0.0000
     11 C6         1.5102    7.1202    3.4502 C.ar      1 RES1    0.0000
     12 H6         1.2996    6.1981    3.5330 H         1 RES1    0.0000
     13 C7         0.7210    8.0746    4.0698 C.ar      1 RES1    0.0000
     14 H7        -0.0272    7.7945    4.5833 H         1 RES1    0.0000
     15 C8         0.9975    9.4398    3.9577 C.ar      1 RES1    0.0000
     16 C9         0.1449   10.4686    4.6944 C.3       1 RES1    0.0000
     17 C10        0.8939   11.7923    4.8884 C.3       1 RES1    0.0000
     18 H8         0.2339   12.4741    5.2007 H         1 RES1    0.0000
     19 C11        1.9939   11.6834    5.9479 C.3       1 RES1    0.0000
     20 H9         2.7126   11.0928    5.6093 H         1 RES1    0.0000
     21 H10        2.3860   12.5796    6.1015 H         1 RES1    0.0000
     22 C12        1.4758   11.1312    7.2728 C.3       1 RES1    0.0000
     23 H11        2.2374   10.9793    7.8856 H         1 RES1    0.0000
     24 H12        0.8731   11.7946    7.6922 H         1 RES1    0.0000
     25 C13        0.7261    9.8269    7.0671 C.3       1 RES1    0.0000
     26 H13        0.3464    9.5241    7.9295 H         1 RES1    0.0000
     27 H14        1.3541    9.1323    6.7474 H         1 RES1    0.0000
     28 C14       -0.3987   10.0060    6.0503 C.3       1 RES1    0.0000
     29 H15       -1.0451   10.6745    6.3893 H         1 RES1    0.0000
     30 H16       -0.8780    9.1468    5.9367 H         1 RES1    0.0000
     31 C15       -2.0319   10.1421    3.5264 C.2       1 RES1    0.0000
     32 C16       -2.9622   10.8463    2.5737 C.ar      1 RES1    0.0000
     33 C17       -4.1765   10.2295    2.2602 C.ar      1 RES1    0.0000
     34 H17       -4.4253    9.4225    2.6959 H         1 RES1    0.0000
     35 C18       -5.0173   10.7931    1.3168 C.ar      1 RES1    0.0000
     36 H18       -5.8463   10.3830    1.0964 H         1 RES1    0.0000
     37 C19       -4.6229   11.9690    0.7002 C.ar      1 RES1    0.0000
     38 C20       -3.4462   12.6171    1.0164 C.ar      1 RES1    0.0000
     39 H19       -3.2121   13.4345    0.5932 H         1 RES1    0.0000
     40 C21       -2.6140   12.0462    1.9660 C.ar      1 RES1    0.0000
     41 H20       -1.8016   12.4780    2.2015 H         1 RES1    0.0000
     42 C22        2.0454   13.6622    3.6717 C.2       1 RES1    0.0000
     43 C23        1.6976   15.8022    4.5958 C.3       1 RES1    0.0000
     44 H21        2.3786   15.7235    5.2951 H         1 RES1    0.0000
     45 H22        0.9659   16.3700    4.9150 H         1 RES1    0.0000
     46 H23        2.0960   16.2038    3.7945 H         1 RES1    0.0000
     47 N1        -5.4720   12.5509   -0.3584 N.pl3     1 RES1    0.0000
     48 O1         3.1276   14.0066    3.2887 O.2       1 RES1    0.0000
     49 O2         1.1843   14.4902    4.2726 O.3       1 RES1    0.0000
     50 O3        -0.9751   10.9090    3.8099 O.3       1 RES1    0.0000
     51 O4        -2.2394    9.0308    3.9441 O.2       1 RES1    0.0000
     52 O5        -5.1788   13.6567   -0.7967 O.2       1 RES1    0.0000
     53 O6        -6.4229   11.8859   -0.7545 O.2       1 RES1    0.0000
     54 C24       11.3862    5.9116    4.2981 C.3       2 RES2    0.0000
     55 H24       11.7818    6.6506    3.7527 H         2 RES2    0.0000
     56 C25       10.1576    6.4983    4.9816 C.3       2 RES2    0.0000
     57 H25        9.8451    5.8696    5.6796 H         2 RES2    0.0000
     58 H26       10.4108    7.3446    5.4292 H         2 RES2    0.0000
     59 C26        9.0236    6.7690    4.0206 C.ar      2 RES2    0.0000
     60 C27        7.9784    7.5897    4.4494 C.ar      2 RES2    0.0000
     61 H27        8.0133    7.9686    5.3193 H         2 RES2    0.0000
     62 C28        6.8940    7.8651    3.6383 C.ar      2 RES2    0.0000
     63 H28        6.2079    8.4502    3.9395 H         2 RES2    0.0000
     64 C29        6.8144    7.2836    2.3854 C.ar      2 RES2    0.0000
     65 H29        6.0629    7.4515    1.8302 H         2 RES2    0.0000
     66 C30        7.8309    6.4582    1.9451 C.ar      2 RES2    0.0000
     67 H30        7.7606    6.0517    1.0898 H         2 RES2    0.0000
     68 C31        8.9629    6.2072    2.7311 C.ar      2 RES2    0.0000
     69 C32       10.1392    5.3984    2.1837 C.3       2 RES2    0.0000
     70 C33       11.0063    4.8039    3.3078 C.3       2 RES2    0.0000
     71 H31       11.8502    4.4632    2.8936 H         2 RES2    0.0000
     72 C34       10.3021    3.6177    3.9762 C.3       2 RES2    0.0000
     73 H32       10.8983    3.2297    4.6645 H         2 RES2    0.0000
     74 H33        9.4822    3.9368    4.4273 H         2 RES2    0.0000
     75 C35        9.9312    2.5366    2.9629 C.3       2 RES2    0.0000
     76 H34       10.7565    2.1386    2.5882 H         2 RES2    0.0000
     77 H35        9.4220    1.8193    3.4166 H         2 RES2    0.0000
     78 C36        9.0909    3.1196    1.8362 C.3       2 RES2    0.0000
     79 H36        8.2173    3.4157    2.1971 H         2 RES2    0.0000
     80 H37        8.9196    2.4196    1.1579 H         2 RES2    0.0000
     81 C37        9.7939    4.3049    1.1744 C.3       2 RES2    0.0000
     82 H38       10.6250    3.9896    0.7382 H         2 RES2    0.0000
     83 H39        9.2067    4.6822    0.4724 H         2 RES2    0.0000
     84 C38       10.7565    7.1183    0.5078 C.2       2 RES2    0.0000
     85 C39       11.8145    8.1296    0.1986 C.ar      2 RES2    0.0000
     86 C40       13.1091    8.0419    0.6989 C.ar      2 RES2    0.0000
     87 H40       13.3590    7.3050    1.2436 H         2 RES2    0.0000
     88 C41       14.0347    9.0296    0.4012 C.ar      2 RES2    0.0000
     89 H41       14.9280    8.9739    0.7207 H         2 RES2    0.0000
     90 C42       13.6238   10.0971   -0.3735 C.ar      2 RES2    0.0000
     91 C43       12.3413   10.2163   -0.8773 C.ar      2 RES2    0.0000
     92 H42       12.0891   10.9674   -1.4018 H         2 RES2    0.0000
     93 C44       11.4400    9.2121   -0.5943 C.ar      2 RES2    0.0000
     94 H43       10.5572    9.2589   -0.9426 H         2 RES2    0.0000
     95 C45       12.4667    5.4692    5.2549 C.2       2 RES2    0.0000
     96 C46       13.5915    5.9732    7.2765 C.3       2 RES2    0.0000
     97 H44       13.5558    5.0332    7.5516 H         2 RES2    0.0000
     98 H45       13.4930    6.5491    8.0635 H         2 RES2    0.0000
     99 H46       14.4526    6.1546    6.8441 H         2 RES2    0.0000
    100 N2        14.5847   11.1771   -0.6567 N.pl3     2 RES2    0.0000
    101 O7        13.2392    4.5762    5.0587 O.2       2 RES2    0.0000
    102 O8        12.5161    6.2435    6.3418 O.3       2 RES2    0.0000
    103 O9        11.1003    6.3607    1.5536 O.3       2 RES2    0.0000
    104 O10        9.7318    7.0392   -0.1241 O.2       2 RES2    0.0000
    105 O11       15.7360   11.0458   -0.2623 O.2       2 RES2    0.0000
    106 O12       14.1867   12.1586   -1.2574 O.2       2 RES2    0.0000
@<TRIPOS>BOND
     1    1    2 1
     2    3    1 1
     3    4    3 1
     4    5    3 1
     5    6    3 1
     6    7    6 ar
     7    8    7 1
     8    9    7 ar
     9   10    9 1
    10   11    9 ar
    11   12   11 1
    12   13   11 ar
    13   14   13 1
    14   15    6 ar
    15   16   15 1
    16   17    1 1
    17   18   17 1
    18   19   17 1
    19   20   19 1
    20   21   19 1
    21   22   19 1
    22   23   22 1
    23   24   22 1
    24   25   22 1
    25   26   25 1
    26   27   25 1
    27   28   16 1
    28   29   28 1
    29   30   28 1
    30   31   32 1
    31   32   33 ar
    32   33   34 1
    33   35   33 ar
    34   36   35 1
    35   37   35 ar
    36   38   37 ar
    37   39   38 1
    38   40   32 ar
    39   41   40 1
    40   42    1 1
    41   43   44 1
    42   45   43 1
    43   46   43 1
    44   47   37 1
    45   48   42 2
    46   49   42 1
    47   50   16 1
    48   51   31 2
    49   52   47 2
    50   53   47 2
    51   54   55 1
    52   56   54 1
    53   57   56 1
    54   58   56 1
    55   59   56 1
    56   60   59 ar
    57   61   60 1
    58   62   60 ar
    59   63   62 1
    60   64   62 ar
    61   65   64 1
    62   66   64 ar
    63   67   66 1
    64   68   59 ar
    65   69   68 1
    66   70   54 1
    67   71   70 1
    68   72   70 1
    69   73   72 1
    70   74   72 1
    71   75   72 1
    72   76   75 1
    73   77   75 1
    74   78   75 1
    75   79   78 1
    76   80   78 1
    77   81   69 1
    78   82   81 1
    79   83   81 1
    80   84   85 1
    81   85   86 ar
    82   86   87 1
    83   88   86 ar
    84   89   88 1
    85   90   88 ar
    86   91   90 ar
    87   92   91 1
    88   93   85 ar
    89   94   93 1
    90   95   54 1
    91   96   97 1
    92   98   96 1
    93   99   96 1
    94  100   90 1
    95  101   95 2
    96  102   95 1
    97  103   69 1
    98  104   84 2
    99  105  100 2
   100  106  100 2
   101   13   15 ar
   102   16   17 1
   103   25   28 1
   104   31   50 1
   105   38   40 ar
   106   43   49 1
   107   66   68 ar
   108   69   70 1
   109   78   81 1
   110   84  103 1
   111   91   93 ar
   112   96  102 1
@<TRIPOS>SUBSTRUCTURE
     1 RES1 1
     2 RES2 54

@<TRIPOS>CRYSIN
  14.1087   13.1931   22.0300  90.0000  94.1770  90.0000 231 1

