# MOL2 file generated by ConQuest
# Please check atom types

@<TRIPOS>MOLECULE
EXETEI
    27    28     1
SMALL
NO_CHARGES
****
Generated from CSD

@<TRIPOS>ATOM
      1 C1         3.2470   -0.8486    7.3471 C.2       1 RES1    0.0000
      2 C2         4.6670   -1.3401    9.0744 C.2       1 RES1    0.0000
      3 C3         4.9861   -1.6898   10.4229 C.2       1 RES1    0.0000
      4 C4         6.2549   -1.8515   10.8641 C.2       1 RES1    0.0000
      5 C5         7.3117   -1.6291    9.9784 C.2       1 RES1    0.0000
      6 C6         7.0567   -1.3453    8.6818 C.2       1 RES1    0.0000
      7 C7         4.4177   -0.9629    6.4586 C.2       1 RES1    0.0000
      8 C8         4.2126   -0.9486    4.9791 C.3       1 RES1    0.0000
      9 C9         3.5473    0.2872    4.4319 C.2       1 RES1    0.0000
     10 C10        3.5133    2.6376    4.4803 C.3       1 RES1    0.0000
     11 N1         5.6214   -1.1154    6.8840 N.2       1 RES1    0.0000
     12 N2         5.7626   -1.2397    8.2505 N.pl3     1 RES1    0.0000
     13 N3         3.4274   -1.1640    8.6600 N.2       1 RES1    0.0000
     14 N4         3.8869   -1.8915   11.3601 N.pl3     1 RES1    0.0000
     15 O1         2.7692    0.2723    3.5270 O.2       1 RES1    0.0000
     16 O2         3.9689    1.3860    5.0389 O.3       1 RES1    0.0000
     17 O3         2.1682   -0.4901    6.8897 O.2       1 RES1    0.0000
     18 O4         3.0402   -1.0256   11.4576 O.2       1 RES1    0.0000
     19 O5         3.8945   -2.9199   12.0206 O.2       1 RES1    0.0000
     20 H1         6.4087   -2.0741   11.7692 H         1 RES1    0.0000
     21 H2         8.1807   -1.6756   10.2219 H         1 RES1    0.0000
     22 H3         7.6862   -1.1799    8.0185 H         1 RES1    0.0000
     23 H4         3.6853   -1.7033    4.7339 H         1 RES1    0.0000
     24 H5         5.0596   -1.0141    4.5136 H         1 RES1    0.0000
     25 H6         2.5853    2.6708    4.4166 H         1 RES1    0.0000
     26 H7         3.8426    2.7453    3.6332 H         1 RES1    0.0000
     27 H8         3.8487    3.3266    5.0336 H         1 RES1    0.0000
@<TRIPOS>BOND
     1    1    7 1
     2    2    3 1
     3    3    4 2
     4    4    5 1
     5    5    6 2
     6    6   12 1
     7    7    8 1
     8    8    9 1
     9    9   15 2
    10   10   16 1
    11   11    7 2
    12   12    2 1
    13   13    1 1
    14   14    3 1
    15   16    9 1
    16   17    1 2
    17   18   14 2
    18   19   14 2
    19   20    4 1
    20   21    5 1
    21   22    6 1
    22   23    8 1
    23   24    8 1
    24   25   10 1
    25   26   10 1
    26   27   10 1
    27    2   13 2
    28   11   12 1
@<TRIPOS>SUBSTRUCTURE
     1 RES1 1

@<TRIPOS>CRYSIN
   7.4160    7.6730   10.6980 106.0100 103.7400 100.5900   2 1

