# MOL2 file generated by ConQuest
# Please check atom types

@<TRIPOS>MOLECULE
EXICUJ
    27    27     1
SMALL
NO_CHARGES
****
Generated from CSD

@<TRIPOS>ATOM
      1 O1         8.3644    3.4777    6.3276 O.2       1 RES1    0.0000
      2 N1         8.4686    3.1161    5.1085 N.pl3     1 RES1    0.0000
      3 C1         8.4310    4.0929    3.9625 C.3       1 RES1    0.0000
      4 C2         9.4058    5.2221    4.2418 C.3       1 RES1    0.0000
      5 H1        10.4107    4.8505    4.3739 H         1 RES1    0.0000
      6 H2         9.1020    5.5180    5.2447 H         1 RES1    0.0000
      7 H3         9.5304    5.7405    3.2729 H         1 RES1    0.0000
      8 C3         6.9902    4.6224    3.9705 C.3       1 RES1    0.0000
      9 H4         6.2625    3.9271    3.7734 H         1 RES1    0.0000
     10 H5         7.1507    5.3622    3.0227 H         1 RES1    0.0000
     11 H6         6.7959    5.1175    4.9944 H         1 RES1    0.0000
     12 C4         8.7674    3.1228    2.8065 C.3       1 RES1    0.0000
     13 C5         7.8657    3.2974    1.6144 C.3       1 RES1    0.0000
     14 H7         6.8258    3.0928    2.0418 H         1 RES1    0.0000
     15 H8         7.8765    2.7034    1.1010 H         1 RES1    0.0000
     16 H9         8.4869    4.3165    1.1510 H         1 RES1    0.0000
     17 C6        10.2436    3.1428    2.4011 C.3       1 RES1    0.0000
     18 H10       10.3386    2.3696    1.6415 H         1 RES1    0.0000
     19 H11       10.7850    2.3474    3.2529 H         1 RES1    0.0000
     20 H12       10.4259    4.1719    1.8216 H         1 RES1    0.0000
     21 N2         8.5446    1.7678    3.3650 N.2       1 RES1    0.0000
     22 C7         8.4445    1.8301    4.6231 C.2       1 RES1    0.0000
     23 C8         8.3057    0.5896    5.4739 C.2       1 RES1    0.0000
     24 O2         8.3708   -0.4917    4.9104 O.2       1 RES1    0.0000
     25 N3         8.0794    0.7710    6.7610 N.am      1 RES1    0.0000
     26 H13        8.1019    0.0445    7.3665 H         1 RES1    0.0000
     27 H14        8.1328    1.7021    7.1263 H         1 RES1    0.0000
@<TRIPOS>BOND
     1    1    2 1
     2    2    3 1
     3    3    4 1
     4    4    5 1
     5    6    4 1
     6    7    4 1
     7    8    3 1
     8    9    8 1
     9   10    8 1
    10   11    8 1
    11   12    3 1
    12   13   12 1
    13   14   13 1
    14   15   13 1
    15   16   13 1
    16   17   12 1
    17   18   17 1
    18   19   17 1
    19   20   17 1
    20   21   12 1
    21   22    2 1
    22   23   22 1
    23   24   23 2
    24   25   23 1
    25   26   25 1
    26   27   25 1
    27   21   22 2
@<TRIPOS>SUBSTRUCTURE
     1 RES1 1

@<TRIPOS>CRYSIN
   9.2056   11.1250   10.0913  90.0000  97.3270  90.0000   9 1

