# MOL2 file generated by ConQuest
# Please check atom types

@<TRIPOS>MOLECULE
EXIHAV
    18    18     1
SMALL
NO_CHARGES
****
Generated from CSD

@<TRIPOS>ATOM
      1 H1         1.5262    1.9677   10.2776 H         1 RES1    0.0000
      2 H2         2.3689    2.4492    9.0481 H         1 RES1    0.0000
      3 H3         1.3270    0.7847    7.7271 H         1 RES1    0.0000
      4 H4        -1.1181    2.1401   10.1687 H         1 RES1    0.0000
      5 H5         0.3082    1.8488    8.1739 H         1 RES1    0.0000
      6 H6        -2.0455    1.3613   11.0338 H         1 RES1    0.0000
      7 O1         2.8638    0.6463    9.6493 O.3       1 RES1    0.0000
      8 N1        -0.5331   -1.8419    9.5973 N.2       1 RES1    0.0000
      9 N2         0.0871    0.1168    9.0910 N.pl3     1 RES1    0.0000
     10 N3        -1.3415   -0.9917   10.2949 N.2       1 RES1    0.0000
     11 O2         4.6131    0.0476   10.7764 O.2       1 RES1    0.0000
     12 C1         0.8982    1.1556    8.4737 C.3       1 RES1    0.0000
     13 N4         0.3273   -1.2109    8.8777 N.2       1 RES1    0.0000
     14 C2         1.9176    1.7204    9.4236 C.3       1 RES1    0.0000
     15 N5        -1.3810    1.3827   10.4707 N.pl3     1 RES1    0.0000
     16 O3         4.0111    2.1413   10.8344 O.2       1 RES1    0.0000
     17 N6         3.9171    0.9951   10.5038 N.pl3     1 RES1    0.0000
     18 C3        -0.9244    0.2307    9.9794 C.2       1 RES1    0.0000
@<TRIPOS>BOND
     1    1   14 1
     2    2   14 1
     3    3   12 1
     4    4   15 1
     5    5   12 1
     6    6   15 1
     7    7   14 1
     8    8   10 1
     9    9   12 1
    10   10   18 2
    11   11   17 2
    12   12   14 1
    13   13    8 2
    14   15   18 1
    15   16   17 2
    16   17    7 1
    17   18    9 1
    18    9   13 1
@<TRIPOS>SUBSTRUCTURE
     1 RES1 1

@<TRIPOS>CRYSIN
  10.5878    5.9447   11.7057  90.0000 101.8150  90.0000  14 1

