# MOL2 file generated by ConQuest
# Please check atom types

@<TRIPOS>MOLECULE
EXINAN10
    27    27     1
SMALL
NO_CHARGES
****
Generated from CSD

@<TRIPOS>ATOM
      1 C1        -5.2487   -9.4057    2.9024 C.ar      1 RES1    0.0000
      2 C10       -6.6197   -6.0159    1.8966 C.2       1 RES1    0.0000
      3 C2        -4.3679   -9.6330    3.9758 C.ar      1 RES1    0.0000
      4 C3        -3.7434  -10.8794    4.1143 C.ar      1 RES1    0.0000
      5 C4        -3.9891  -11.8798    3.1730 C.ar      1 RES1    0.0000
      6 C5        -4.8554  -11.6619    2.1163 C.ar      1 RES1    0.0000
      7 C6        -5.5017  -10.4172    1.9708 C.ar      1 RES1    0.0000
      8 C7        -3.2545   -8.6599    5.9090 C.3       1 RES1    0.0000
      9 C8        -3.2831   -7.3615    6.6424 C.3       1 RES1    0.0000
     10 C9        -6.2630   -7.4514    1.7383 C.2       1 RES1    0.0000
     11 H16       -3.0996  -10.9153    4.9043 H         1 RES1    0.0000
     12 H17       -3.6108  -12.8262    3.1453 H         1 RES1    0.0000
     13 H18       -5.0626  -12.3556    1.4955 H         1 RES1    0.0000
     14 H19       -6.0788  -10.2541    1.2022 H         1 RES1    0.0000
     15 H20       -5.6900   -7.5901    3.5663 H         1 RES1    0.0000
     16 H21       -6.8762   -5.4946    1.1392 H         1 RES1    0.0000
     17 H22       -6.7815   -3.9289    4.0220 H         1 RES1    0.0000
     18 H23       -2.2826   -8.6140    5.3737 H         1 RES1    0.0000
     19 H24       -3.5413   -9.4558    6.3918 H         1 RES1    0.0000
     20 H25       -2.5738   -7.1523    7.3449 H         1 RES1    0.0000
     21 H26       -3.2037   -6.7215    6.0238 H         1 RES1    0.0000
     22 H27       -4.1634   -7.0204    6.8564 H         1 RES1    0.0000
     23 N1        -5.8297   -8.0966    2.8338 N.am      1 RES1    0.0000
     24 N2        -6.5202   -5.4618    3.0566 N.2       1 RES1    0.0000
     25 O1        -4.2170   -8.5562    4.8321 O.3       1 RES1    0.0000
     26 O2        -6.3722   -7.9765    0.6149 O.2       1 RES1    0.0000
     27 O3        -6.9128   -4.1230    3.0217 O.3       1 RES1    0.0000
@<TRIPOS>BOND
     1    1    3 ar
     2    2   10 1
     3    3    4 ar
     4    4    5 ar
     5    5    6 ar
     6    6    7 ar
     7    7    1 ar
     8    8    9 1
     9    9   20 1
    10   10   23 1
    11   11    4 1
    12   12    5 1
    13   13    6 1
    14   14    7 1
    15   15   23 1
    16   16    2 1
    17   17   27 1
    18   18    8 1
    19   19    8 1
    20   21    9 1
    21   22    9 1
    22   23    1 1
    23   24    2 2
    24   25    3 1
    25   26   10 2
    26   27   24 1
    27    8   25 1
@<TRIPOS>SUBSTRUCTURE
     1 RES1 1

@<TRIPOS>CRYSIN
  11.0700   21.9800    9.5600  90.0000  90.0000  90.0000  56 1

