# MOL2 file generated by ConQuest
# Please check atom types

@<TRIPOS>MOLECULE
EXISAG
    32    32     2
SMALL
NO_CHARGES
****
Generated from CSD

@<TRIPOS>ATOM
      1 O1        -1.0797    2.5553    4.4188 O.2       1 RES1    0.0000
      2 N1         0.9614   -0.7802    6.3750 N.3       1 RES1    0.0000
      3 N2         1.2011    0.3919    7.0874 N.2       1 RES1    0.0000
      4 N3        -0.8781    1.3055    4.3149 N.2       1 RES1    0.0000
      5 C1         0.5730    1.3398    6.4232 C.2       1 RES1    0.0000
      6 C2         0.6021    2.7497    6.8712 C.3       1 RES1    0.0000
      7 H1         1.1556    2.8252    7.6769 H         1 RES1    0.0000
      8 H2        -0.3098    3.0466    7.0733 H         1 RES1    0.0000
      9 H3         0.9794    3.3096    6.1619 H         1 RES1    0.0000
     10 C3        -0.0759    0.7714    5.2674 C.2       1 RES1    0.0000
     11 C4         0.2158   -0.6075    5.3004 C.2       1 RES1    0.0000
     12 C5        -0.1651   -1.7060    4.3718 C.3       1 RES1    0.0000
     13 H4         0.4730   -1.7425    3.6297 H         1 RES1    0.0000
     14 H5        -1.0650   -1.5395    4.0217 H         1 RES1    0.0000
     15 H6        -0.1544   -2.5591    4.8527 H         1 RES1    0.0000
     16 O2        -0.7818    2.0347   -0.9509 O.2       2 RES2    0.0000
     17 N4         1.3007    3.2947    2.3405 N.3       2 RES2    0.0000
     18 N5         1.0987    4.6456    2.1437 N.2       2 RES2    0.0000
     19 N6        -0.6114    3.2235   -0.6376 N.2       2 RES2    0.0000
     20 C6         0.3799    4.7305    1.0305 C.2       2 RES2    0.0000
     21 C7        -0.0192    6.0488    0.4580 C.3       2 RES2    0.0000
     22 H7         0.2706    6.7669    1.0583 H         2 RES2    0.0000
     23 H8        -0.9932    6.0794    0.3567 H         2 RES2    0.0000
     24 H9         0.4033    6.1656   -0.4175 H         2 RES2    0.0000
     25 C8         0.1173    3.4324    0.5278 C.2       2 RES2    0.0000
     26 C9         0.7415    2.5308    1.4058 C.2       2 RES2    0.0000
     27 C10        0.8574    1.0561    1.4058 C.3       2 RES2    0.0000
     28 H10        1.4195    0.7720    2.1559 H         2 RES2    0.0000
     29 H11        1.2632    0.7597    0.5645 H         2 RES2    0.0000
     30 H12       -0.0337    0.6582    1.4954 H         2 RES2    0.0000
     31 H13        1.2806   -1.5579    6.7362 H         1 RES1    0.0000
     32 H14        1.8252    2.9974    3.0810 H         2 RES2    0.0000
@<TRIPOS>BOND
     1    1    4 2
     2    2    3 1
     3    3    5 2
     4    4   10 1
     5    5    6 1
     6    6    7 1
     7    8    6 1
     8    9    6 1
     9   10    5 1
    10   11    2 1
    11   12   11 1
    12   13   12 1
    13   14   12 1
    14   15   12 1
    15   16   19 2
    16   17   18 1
    17   18   20 2
    18   19   25 1
    19   20   21 1
    20   21   22 1
    21   23   21 1
    22   24   21 1
    23   25   20 1
    24   26   17 1
    25   27   26 1
    26   28   27 1
    27   29   27 1
    28   30   27 1
    29   31    2 1
    30   32   17 1
    31   10   11 2
    32   25   26 2
@<TRIPOS>SUBSTRUCTURE
     1 RES1 1
     2 RES2 16

@<TRIPOS>CRYSIN
   4.0268   15.3793   19.6627  90.0000  94.6130  90.0000  14 1

