# MOL2 file generated by ConQuest
# Please check atom types

@<TRIPOS>MOLECULE
EXOQEO
    26    27     1
SMALL
NO_CHARGES
****
Generated from CSD

@<TRIPOS>ATOM
      1 O1         1.1371    4.3450   12.5608 O.3       1 RES1    0.0000
      2 H1         1.9299    4.4822   12.7155 H         1 RES1    0.0000
      3 O2        -1.7037    6.8163    5.5025 O.2       1 RES1    0.0000
      4 O3        -1.4442    6.3864    3.4187 O.2       1 RES1    0.0000
      5 N1        -0.1275    5.6873    7.3096 N.pl3     1 RES1    0.0000
      6 H2        -0.7023    6.3139    7.1794 H         1 RES1    0.0000
      7 N2        -1.1459    6.1994    4.5960 N.pl3     1 RES1    0.0000
      8 N3         1.4154    4.2366    6.4356 N.ar      1 RES1    0.0000
      9 C1         0.2208    5.3727    8.6649 C.ar      1 RES1    0.0000
     10 C2        -0.5392    4.4717    9.3649 C.ar      1 RES1    0.0000
     11 H3        -1.2674    4.0671    8.9508 H         1 RES1    0.0000
     12 C3        -0.2418    4.1588   10.6703 C.ar      1 RES1    0.0000
     13 H4        -0.7719    3.5559   11.1384 H         1 RES1    0.0000
     14 C4         0.8453    4.7417   11.2808 C.ar      1 RES1    0.0000
     15 C5         1.5827    5.6803   10.6012 C.ar      1 RES1    0.0000
     16 H5         2.2926    6.1050   11.0254 H         1 RES1    0.0000
     17 C6         1.2756    5.9975    9.2896 C.ar      1 RES1    0.0000
     18 H6         1.7807    6.6302    8.8318 H         1 RES1    0.0000
     19 C7         0.3810    5.0694    6.2290 C.ar      1 RES1    0.0000
     20 C8        -0.1070    5.2521    4.9104 C.ar      1 RES1    0.0000
     21 C9         0.4202    4.5128    3.8725 C.ar      1 RES1    0.0000
     22 H7         0.0820    4.6089    3.0107 H         1 RES1    0.0000
     23 C10        1.4400    3.6389    4.1137 C.ar      1 RES1    0.0000
     24 H8         1.8014    3.1163    3.4350 H         1 RES1    0.0000
     25 C11        1.9126    3.5628    5.4049 C.ar      1 RES1    0.0000
     26 H9         2.6325    2.9966    5.5677 H         1 RES1    0.0000
@<TRIPOS>BOND
     1    1    2 1
     2    3    7 2
     3    4    7 2
     4    5    6 1
     5    7   20 1
     6    8   19 ar
     7    9    5 1
     8   10    9 ar
     9   11   10 1
    10   12   10 ar
    11   13   12 1
    12   14    1 1
    13   15   14 ar
    14   16   15 1
    15   17    9 ar
    16   18   17 1
    17   19    5 1
    18   20   19 ar
    19   21   20 ar
    20   22   21 1
    21   23   21 ar
    22   24   23 1
    23   25    8 ar
    24   26   25 1
    25   12   14 ar
    26   15   17 ar
    27   23   25 ar
@<TRIPOS>SUBSTRUCTURE
     1 RES1 1

@<TRIPOS>CRYSIN
  11.5236    8.7389   10.6840  90.0000 107.7600  90.0000  14 1

