# MOL2 file generated by ConQuest
# Please check atom types

@<TRIPOS>MOLECULE
EXUJAI
    28    30     1
SMALL
NO_CHARGES
****
Generated from CSD

@<TRIPOS>ATOM
      1 O1         2.1320    3.3660    6.4330 O.3       1 RES1    0.0000
      2 N1         3.1224    6.2138    6.1831 N.3       1 RES1    0.0000
      3 C1         2.5776    5.4232    5.1951 C.2       1 RES1    0.0000
      4 H1         3.1312    7.0345    6.0374 H         1 RES1    0.0000
      5 O2         1.4666    4.0117    9.3818 O.3       1 RES1    0.0000
      6 N2         2.7642    5.9246    7.5237 N.pl3     1 RES1    0.0000
      7 C2         2.1602    4.0447    5.2896 C.2       1 RES1    0.0000
      8 H2         3.1948    5.2285    7.8345 H         1 RES1    0.0000
      9 O3         2.0273    4.6701    3.2490 O.3       1 RES1    0.0000
     10 N3         2.4742    5.7972    3.9472 N.2       1 RES1    0.0000
     11 C3         1.4182    5.8861    7.8289 C.2       1 RES1    0.0000
     12 O4        -0.6894    6.2754    7.9297 O.3       1 RES1    0.0000
     13 N4         1.8286    3.5945    4.1152 N.2       1 RES1    0.0000
     14 C4         0.7907    4.9703    8.7417 C.2       1 RES1    0.0000
     15 C5         1.8405    1.9377    6.3357 C.3       1 RES1    0.0000
     16 N5         0.5198    6.6843    7.3302 N.2       1 RES1    0.0000
     17 H3         2.6121    1.5092    5.8781 H         1 RES1    0.0000
     18 H4         1.0197    1.8530    5.8249 H         1 RES1    0.0000
     19 C6         1.6652    1.4267    7.7468 C.3       1 RES1    0.0000
     20 N6        -0.4807    5.2123    8.8026 N.2       1 RES1    0.0000
     21 H5         1.6117    0.4732    7.6663 H         1 RES1    0.0000
     22 H6         2.4267    1.6076    8.2859 H         1 RES1    0.0000
     23 C7         0.4114    1.9809    8.4577 C.3       1 RES1    0.0000
     24 H7        -0.1195    2.5217    7.7990 H         1 RES1    0.0000
     25 H8        -0.1970    1.2594    8.7286 H         1 RES1    0.0000
     26 C8         0.6928    2.8037    9.6952 C.3       1 RES1    0.0000
     27 H9         1.2637    2.2704   10.3397 H         1 RES1    0.0000
     28 H10       -0.1220    3.0904   10.1804 H         1 RES1    0.0000
@<TRIPOS>BOND
     1    1    7 1
     2    2    3 1
     3    3    7 1
     4    4    2 1
     5    5   14 1
     6    6    2 1
     7    7   13 2
     8    8    6 1
     9    9   10 1
    10   10    3 2
    11   11    6 1
    12   12   16 1
    13   13    9 1
    14   14   11 1
    15   15    1 1
    16   16   11 2
    17   17   15 1
    18   18   15 1
    19   19   15 1
    20   20   12 1
    21   21   19 1
    22   22   19 1
    23   23   19 1
    24   24   23 1
    25   25   23 1
    26   26    5 1
    27   27   26 1
    28   28   26 1
    29   14   20 2
    30   23   26 1
@<TRIPOS>SUBSTRUCTURE
     1 RES1 1

@<TRIPOS>CRYSIN
   8.3331   14.6950    9.2384  90.0000 106.6190  90.0000 231 1

