# MOL2 file generated by ConQuest
# Please check atom types

@<TRIPOS>MOLECULE
EXULIU
   114   124     2
SMALL
NO_CHARGES
****
Generated from CSD

@<TRIPOS>ATOM
      1 C1        -6.9319   -2.9030   10.4026 C.3       1 RES1    0.0000
      2 H1        -7.0909   -2.0666    9.9166 H         1 RES1    0.0000
      3 H2        -7.5271   -3.5997   10.0566 H         1 RES1    0.0000
      4 H3        -5.9996   -3.1804   10.2802 H         1 RES1    0.0000
      5 C2        -6.4606   -1.7702   12.4327 C.ar      1 RES1    0.0000
      6 C3        -5.5250   -0.9438   11.8487 C.ar      1 RES1    0.0000
      7 H4        -5.3657   -0.9919   10.9133 H         1 RES1    0.0000
      8 C4        -4.8194   -0.0458   12.6273 C.ar      1 RES1    0.0000
      9 H5        -4.1717    0.5155   12.2171 H         1 RES1    0.0000
     10 C5        -5.0334    0.0559   13.9871 C.ar      1 RES1    0.0000
     11 C6        -5.9951   -0.7738   14.5538 C.ar      1 RES1    0.0000
     12 H6        -6.1690   -0.7157   15.4850 H         1 RES1    0.0000
     13 C7        -6.6972   -1.6741   13.7909 C.ar      1 RES1    0.0000
     14 H7        -7.3481   -2.2343   14.1979 H         1 RES1    0.0000
     15 C8        -4.2439    0.9662   14.8074 C.2       1 RES1    0.0000
     16 C9        -4.2659    1.0221   16.3058 C.3       1 RES1    0.0000
     17 H8        -5.1701    1.2905   16.6384 H         1 RES1    0.0000
     18 C10       -3.7799   -0.2852   17.0051 C.3       1 RES1    0.0000
     19 H9        -3.6604   -0.9919   16.3083 H         1 RES1    0.0000
     20 C11       -4.7094   -0.8208   18.0762 C.ar      1 RES1    0.0000
     21 C12       -5.0455   -2.1460   18.1175 C.ar      1 RES1    0.0000
     22 H10       -4.7069   -2.7263   17.4470 H         1 RES1    0.0000
     23 C13       -5.8584   -2.6682   19.0994 C.ar      1 RES1    0.0000
     24 H11       -6.0667   -3.5952   19.1103 H         1 RES1    0.0000
     25 C14       -6.3633   -1.8295   20.0601 C.ar      1 RES1    0.0000
     26 H12       -6.9323   -2.1773   20.7379 H         1 RES1    0.0000
     27 C15       -6.0552   -0.4999   20.0518 C.ar      1 RES1    0.0000
     28 H13       -6.4093    0.0738   20.7212 H         1 RES1    0.0000
     29 C16       -5.2244    0.0145   19.0641 C.ar      1 RES1    0.0000
     30 H14       -5.0069    0.9393   19.0622 H         1 RES1    0.0000
     31 C17       -2.4257    0.1018   17.5300 C.ar      1 RES1    0.0000
     32 C18       -1.5242   -0.7526   18.1405 C.ar      1 RES1    0.0000
     33 H15       -1.7652   -1.6506   18.3372 H         1 RES1    0.0000
     34 C19       -0.2686   -0.2740   18.4583 C.ar      1 RES1    0.0000
     35 H16        0.3506   -0.8398   18.9034 H         1 RES1    0.0000
     36 C20        0.0937    1.0154   18.1378 C.ar      1 RES1    0.0000
     37 H17        0.9769    1.3140   18.3225 H         1 RES1    0.0000
     38 C21       -0.8092    1.8809   17.5523 C.ar      1 RES1    0.0000
     39 H18       -0.5624    2.7744   17.3447 H         1 RES1    0.0000
     40 C22       -2.0911    1.4101   17.2730 C.ar      1 RES1    0.0000
     41 C23       -3.2343    2.1191   16.5874 C.3       1 RES1    0.0000
     42 C24       -2.8654    4.3232   17.6516 C.3       1 RES1    0.0000
     43 H19       -2.3338    4.6162   16.8703 H         1 RES1    0.0000
     44 H20       -2.2511    4.0515   18.3789 H         1 RES1    0.0000
     45 C25       -3.8091    5.4102   18.1100 C.3       1 RES1    0.0000
     46 H21       -4.1301    5.2402   19.0309 H         1 RES1    0.0000
     47 H22       -3.3762    6.2992   18.0760 H         1 RES1    0.0000
     48 C26       -4.9346    5.3129   17.1146 C.3       1 RES1    0.0000
     49 H23       -4.7857    5.9358   16.3584 H         1 RES1    0.0000
     50 H24       -5.7986    5.5354   17.5432 H         1 RES1    0.0000
     51 C27       -4.9343    3.8804   16.6307 C.3       1 RES1    0.0000
     52 H25       -5.7774    3.4275   16.8829 H         1 RES1    0.0000
     53 H26       -4.8342    3.8446   15.6459 H         1 RES1    0.0000
     54 N1        -3.7786    3.2374   17.2947 N.3       1 RES1    0.0000
     55 N2        -3.4212    1.7843   14.2581 N.2       1 RES1    0.0000
     56 O1        -7.1867   -2.7061   11.7725 O.3       1 RES1    0.0000
     57 O2        -2.7547    2.5293   15.2341 O.3       1 RES1    0.0000
     58 C28       11.7251    3.2016   10.2609 C.3       2 RES2    0.0000
     59 H27       10.7991    3.0003   10.0127 H         2 RES2    0.0000
     60 H28       12.3229    2.5463    9.8456 H         2 RES2    0.0000
     61 H29       11.9577    4.1007    9.9500 H         2 RES2    0.0000
     62 C29       11.1089    4.0001   12.4164 C.ar      2 RES2    0.0000
     63 C30       10.2632    4.9495   11.8849 C.ar      2 RES2    0.0000
     64 H30       10.1800    5.0434   10.9425 H         2 RES2    0.0000
     65 C31        9.5359    5.7658   12.7374 C.ar      2 RES2    0.0000
     66 H31        8.9553    6.4200   12.3675 H         2 RES2    0.0000
     67 C32        9.6332    5.6540   14.1118 C.ar      2 RES2    0.0000
     68 C33       10.5178    4.7068   14.6158 C.ar      2 RES2    0.0000
     69 H32       10.6266    4.6274   15.5561 H         2 RES2    0.0000
     70 C34       11.2427    3.8793   13.7784 C.ar      2 RES2    0.0000
     71 H33       11.8311    3.2296   14.1436 H         2 RES2    0.0000
     72 C35        8.8204    6.4714   15.0051 C.2       2 RES2    0.0000
     73 C36        8.9200    6.4636   16.4932 C.3       2 RES2    0.0000
     74 H34        9.8432    6.7186   16.7826 H         2 RES2    0.0000
     75 C37        8.4823    5.1373   17.1831 C.3       2 RES2    0.0000
     76 H35        8.2911    4.4530   16.4796 H         2 RES2    0.0000
     77 C38        9.4908    4.5726   18.1595 C.ar      2 RES2    0.0000
     78 C39        9.8036    3.2284   18.1320 C.ar      2 RES2    0.0000
     79 H36        9.4063    2.6682   17.4763 H         2 RES2    0.0000
     80 C40       10.6863    2.6872   19.0436 C.ar      2 RES2    0.0000
     81 H37       10.8867    1.7590   19.0183 H         2 RES2    0.0000
     82 C41       11.2719    3.4901   19.9851 C.ar      2 RES2    0.0000
     83 H38       11.8896    3.1211   20.6042 H         2 RES2    0.0000
     84 C42       10.9667    4.8253   20.0338 C.ar      2 RES2    0.0000
     85 H39       11.3662    5.3800   20.6941 H         2 RES2    0.0000
     86 C43       10.0747    5.3643   19.1190 C.ar      2 RES2    0.0000
     87 H40        9.8655    6.2903   19.1562 H         2 RES2    0.0000
     88 C44        7.1888    5.5142   17.8697 C.ar      2 RES2    0.0000
     89 C45        6.3673    4.6654   18.5808 C.ar      2 RES2    0.0000
     90 H41        6.6025    3.7518   18.6986 H         2 RES2    0.0000
     91 C46        5.2041    5.1608   19.1146 C.ar      2 RES2    0.0000
     92 H42        4.6386    4.5905   19.6222 H         2 RES2    0.0000
     93 C47        4.8475    6.4804   18.9205 C.ar      2 RES2    0.0000
     94 H43        4.0289    6.8047   19.2774 H         2 RES2    0.0000
     95 C48        5.6692    7.3325   18.2139 C.ar      2 RES2    0.0000
     96 H44        5.4188    8.2372   18.0718 H         2 RES2    0.0000
     97 C49        6.8661    6.8472   17.7143 C.ar      2 RES2    0.0000
     98 C50        7.9138    7.5562   16.8935 C.3       2 RES2    0.0000
     99 C51        7.6987    9.7144   18.1069 C.3       2 RES2    0.0000
    100 H45        7.2548    9.3946   18.9326 H         2 RES2    0.0000
    101 H46        7.0097   10.0197   17.4658 H         2 RES2    0.0000
    102 C52        8.6776   10.8114   18.4103 C.3       2 RES2    0.0000
    103 H47        9.1813   10.6236   19.2419 H         2 RES2    0.0000
    104 H48        8.2213   11.6859   18.4960 H         2 RES2    0.0000
    105 C53        9.5874   10.7812   17.2001 C.3       2 RES2    0.0000
    106 H49        9.2655   11.4142   16.5089 H         2 RES2    0.0000
    107 H50       10.5106   11.0317   17.4533 H         2 RES2    0.0000
    108 C54        9.5472    9.3677   16.6817 C.3       2 RES2    0.0000
    109 H51        9.2794    9.3521   15.7295 H         2 RES2    0.0000
    110 H52       10.4337    8.9361   16.7721 H         2 RES2    0.0000
    111 N3         8.5365    8.6740   17.5233 N.3       2 RES2    0.0000
    112 N4         7.9231    7.2674   14.5402 N.2       2 RES2    0.0000
    113 O3        11.8614    3.1397   11.6649 O.3       2 RES2    0.0000
    114 O4         7.2851    7.9409   15.5885 O.3       2 RES2    0.0000
@<TRIPOS>BOND
     1    1    2 1
     2    3    1 1
     3    4    1 1
     4    5    6 ar
     5    6    7 1
     6    8    6 ar
     7    9    8 1
     8   10    8 ar
     9   11   10 ar
    10   12   11 1
    11   13    5 ar
    12   14   13 1
    13   15   10 1
    14   16   15 1
    15   17   16 1
    16   18   16 1
    17   19   18 1
    18   20   18 1
    19   21   20 ar
    20   22   21 1
    21   23   21 ar
    22   24   23 1
    23   25   23 ar
    24   26   25 1
    25   27   25 ar
    26   28   27 1
    27   29   20 ar
    28   30   29 1
    29   31   18 1
    30   32   31 ar
    31   33   32 1
    32   34   32 ar
    33   35   34 1
    34   36   34 ar
    35   37   36 1
    36   38   36 ar
    37   39   38 1
    38   40   31 ar
    39   41   16 1
    40   42   43 1
    41   44   42 1
    42   45   42 1
    43   46   45 1
    44   47   45 1
    45   48   45 1
    46   49   48 1
    47   50   48 1
    48   51   48 1
    49   52   51 1
    50   53   51 1
    51   54   41 1
    52   55   15 2
    53   56    1 1
    54   57   41 1
    55   58   59 1
    56   60   58 1
    57   61   58 1
    58   62   63 ar
    59   63   64 1
    60   65   63 ar
    61   66   65 1
    62   67   65 ar
    63   68   67 ar
    64   69   68 1
    65   70   62 ar
    66   71   70 1
    67   72   67 1
    68   73   72 1
    69   74   73 1
    70   75   73 1
    71   76   75 1
    72   77   75 1
    73   78   77 ar
    74   79   78 1
    75   80   78 ar
    76   81   80 1
    77   82   80 ar
    78   83   82 1
    79   84   82 ar
    80   85   84 1
    81   86   77 ar
    82   87   86 1
    83   88   75 1
    84   89   88 ar
    85   90   89 1
    86   91   89 ar
    87   92   91 1
    88   93   91 ar
    89   94   93 1
    90   95   93 ar
    91   96   95 1
    92   97   88 ar
    93   98   73 1
    94   99  100 1
    95  101   99 1
    96  102   99 1
    97  103  102 1
    98  104  102 1
    99  105  102 1
   100  106  105 1
   101  107  105 1
   102  108  105 1
   103  109  108 1
   104  110  108 1
   105  111   98 1
   106  112   72 2
   107  113   58 1
   108  114   98 1
   109    5   56 1
   110   11   13 ar
   111   27   29 ar
   112   38   40 ar
   113   40   41 1
   114   42   54 1
   115   51   54 1
   116   55   57 1
   117   62  113 1
   118   68   70 ar
   119   84   86 ar
   120   95   97 ar
   121   97   98 1
   122   99  111 1
   123  108  111 1
   124  112  114 1
@<TRIPOS>SUBSTRUCTURE
     1 RES1 1
     2 RES2 58

@<TRIPOS>CRYSIN
  18.4846   11.1827   22.7882  90.0000 113.5220  90.0000 231 1

