# MOL2 file generated by ConQuest
# Please check atom types

@<TRIPOS>MOLECULE
EYABEL
    41    43     1
SMALL
NO_CHARGES
****
Generated from CSD

@<TRIPOS>ATOM
      1 N1         3.6409    4.6923    3.8489 N.3       1 RES1    0.0000
      2 O1         3.2561    5.8942    3.6385 O.2       1 RES1    0.0000
      3 C1         1.6594    3.2142    3.7010 C.ar      1 RES1    0.0000
      4 C2         6.1187    4.7526    4.0247 C.ar      1 RES1    0.0000
      5 O2        -1.5420    1.8800    1.3840 O.3       1 RES1    0.0000
      6 C3         0.3480    3.2396    1.6669 C.ar      1 RES1    0.0000
      7 C4         4.9111    4.1732    3.2786 C.3       1 RES1    0.0000
      8 C5         1.4057    3.7081    2.4239 C.ar      1 RES1    0.0000
      9 C6        -0.4927    2.2747    2.1720 C.ar      1 RES1    0.0000
     10 C7         7.1491    6.1571    5.6825 C.ar      1 RES1    0.0000
     11 C8         4.9929    4.5356    1.7897 C.3       1 RES1    0.0000
     12 C9         6.0149    5.6470    5.0759 C.ar      1 RES1    0.0000
     13 C10        0.8072    2.2263    4.1810 C.ar      1 RES1    0.0000
     14 C11       -0.2558    1.7612    3.4290 C.ar      1 RES1    0.0000
     15 C12        3.8723    2.5944    4.7826 C.3       1 RES1    0.0000
     16 C13        8.3955    5.8132    5.2400 C.ar      1 RES1    0.0000
     17 C14        2.8230    3.6954    4.5783 C.3       1 RES1    0.0000
     18 C15        2.3104    4.2898    5.8893 C.3       1 RES1    0.0000
     19 C16        4.7329    2.6729    3.5331 C.3       1 RES1    0.0000
     20 C17        8.5234    4.9130    4.2086 C.ar      1 RES1    0.0000
     21 C18        7.3944    4.3890    3.6095 C.ar      1 RES1    0.0000
     22 H1        -1.9655    1.2914    1.7672 H         1 RES1    0.0000
     23 H2         0.2044    3.5777    0.8121 H         1 RES1    0.0000
     24 H3         1.9592    4.3683    2.0730 H         1 RES1    0.0000
     25 H4         7.0621    6.7411    6.4006 H         1 RES1    0.0000
     26 H5         5.8220    4.2159    1.4275 H         1 RES1    0.0000
     27 H6         4.9467    5.4901    1.6894 H         1 RES1    0.0000
     28 H7         4.2612    4.1294    1.3210 H         1 RES1    0.0000
     29 H8         5.1742    5.9090    5.3767 H         1 RES1    0.0000
     30 H9         0.9560    1.8708    5.0270 H         1 RES1    0.0000
     31 H10       -0.8124    1.0999    3.7737 H         1 RES1    0.0000
     32 H11        4.4006    2.7618    5.5797 H         1 RES1    0.0000
     33 H12        3.4519    1.7231    4.8616 H         1 RES1    0.0000
     34 H13        9.1513    6.1848    5.6348 H         1 RES1    0.0000
     35 H14        1.9246    3.5939    6.4269 H         1 RES1    0.0000
     36 H15        1.6447    4.9546    5.7013 H         1 RES1    0.0000
     37 H16        3.0400    4.6937    6.3643 H         1 RES1    0.0000
     38 H17        4.2895    2.2459    2.7823 H         1 RES1    0.0000
     39 H18        5.5904    2.2424    3.6772 H         1 RES1    0.0000
     40 H19        9.3683    4.6579    3.9153 H         1 RES1    0.0000
     41 H20        7.4898    3.7785    2.9139 H         1 RES1    0.0000
@<TRIPOS>BOND
     1    1    2 1
     2    3    8 ar
     3    4    7 1
     4    5    9 1
     5    6    8 ar
     6    7    1 1
     7    8   24 1
     8    9    6 ar
     9   10   12 ar
    10   11    7 1
    11   12    4 ar
    12   13    3 ar
    13   14    9 ar
    14   15   17 1
    15   16   10 ar
    16   17    1 1
    17   18   17 1
    18   19    7 1
    19   20   16 ar
    20   21    4 ar
    21   22    5 1
    22   23    6 1
    23   25   10 1
    24   26   11 1
    25   27   11 1
    26   28   11 1
    27   29   12 1
    28   30   13 1
    29   31   14 1
    30   32   15 1
    31   33   15 1
    32   34   16 1
    33   35   18 1
    34   36   18 1
    35   37   18 1
    36   38   19 1
    37   39   19 1
    38   40   20 1
    39   41   21 1
    40    3   17 1
    41   13   14 ar
    42   15   19 1
    43   20   21 ar
@<TRIPOS>SUBSTRUCTURE
     1 RES1 1

@<TRIPOS>CRYSIN
  10.4826   11.5410   12.5330  90.0000  90.0000  90.0000  19 1

