# MOL2 file generated by ConQuest
# Please check atom types

@<TRIPOS>MOLECULE
EYABIP
    42    44     1
SMALL
NO_CHARGES
****
Generated from CSD

@<TRIPOS>ATOM
      1 O1        -0.9714    0.0538    1.8743 O.2       1 RES1    0.0000
      2 N1        -0.2533    1.1076    1.8743 N.3       1 RES1    0.0000
      3 O2        -0.0147   -0.9367   -4.0908 O.3       1 RES1    0.0000
      4 C1         0.7778    0.6181   -0.3029 C.ar      1 RES1    0.0000
      5 C2         0.2450   -0.3903   -2.8589 C.ar      1 RES1    0.0000
      6 O3        -1.7639    0.5823    7.9901 O.3       1 RES1    0.0000
      7 C3        -0.9149    1.8998    4.1193 C.ar      1 RES1    0.0000
      8 C4         1.0133    1.1709    1.0933 C.3       1 RES1    0.0000
      9 C5        -1.5231    1.0190    6.7107 C.ar      1 RES1    0.0000
     10 C6         0.9693   -1.1287   -1.9558 C.ar      1 RES1    0.0000
     11 C7        -0.5841    2.3259    2.6810 C.3       1 RES1    0.0000
     12 C8         1.2258   -0.6308   -0.6940 C.ar      1 RES1    0.0000
     13 C9        -0.2230    0.8660   -2.5004 C.ar      1 RES1    0.0000
     14 C10        1.3158    2.6772    1.1898 C.3       1 RES1    0.0000
     15 C11       -2.2224    1.7247    4.5376 C.ar      1 RES1    0.0000
     16 C12        0.0366    1.3428   -1.2400 C.ar      1 RES1    0.0000
     17 C13        0.0817    1.6297    5.0578 C.ar      1 RES1    0.0000
     18 C14        0.7076    3.1350    2.5180 C.3       1 RES1    0.0000
     19 C15       -2.5333    1.2901    5.8184 C.ar      1 RES1    0.0000
     20 C16       -0.2094    1.2004    6.3304 C.ar      1 RES1    0.0000
     21 C17       -1.7660    3.0084    1.9843 C.3       1 RES1    0.0000
     22 C18        2.0695    0.3586    1.8688 C.3       1 RES1    0.0000
     23 H1        -0.3779   -0.3766   -4.5675 H         1 RES1    0.0000
     24 H2        -2.5730    0.5464    8.1178 H         1 RES1    0.0000
     25 H3         1.2876   -1.9684   -2.1948 H         1 RES1    0.0000
     26 H4         1.7126   -1.1477   -0.0924 H         1 RES1    0.0000
     27 H5        -0.7066    1.3787   -3.1075 H         1 RES1    0.0000
     28 H6         2.2726    2.8344    1.1802 H         1 RES1    0.0000
     29 H7         0.9139    3.1551    0.4482 H         1 RES1    0.0000
     30 H8        -2.9132    1.9040    3.9414 H         1 RES1    0.0000
     31 H9        -0.2921    2.1793   -1.0010 H         1 RES1    0.0000
     32 H10        0.9725    1.7447    4.8147 H         1 RES1    0.0000
     33 H11        0.5140    4.0854    2.4950 H         1 RES1    0.0000
     34 H12        1.3169    2.9589    3.2515 H         1 RES1    0.0000
     35 H13       -3.4220    1.1825    6.0724 H         1 RES1    0.0000
     36 H14        0.4773    1.0316    6.9335 H         1 RES1    0.0000
     37 H15       -1.4875    3.3302    1.1246 H         1 RES1    0.0000
     38 H16       -2.0685    3.7468    2.5194 H         1 RES1    0.0000
     39 H17       -2.4809    2.3776    1.8743 H         1 RES1    0.0000
     40 H18        2.2067    0.7542    2.7326 H         1 RES1    0.0000
     41 H19        2.8965    0.3608    1.3799 H         1 RES1    0.0000
     42 H20        1.7639   -0.5454    1.9748 H         1 RES1    0.0000
@<TRIPOS>BOND
     1    1    2 1
     2    2    8 1
     3    3    5 1
     4    4    8 1
     5    5   10 ar
     6    6    9 1
     7    7   11 1
     8    8   14 1
     9    9   19 ar
    10   10   12 ar
    11   11    2 1
    12   12    4 ar
    13   13    5 ar
    14   14   18 1
    15   15    7 ar
    16   16    4 ar
    17   17    7 ar
    18   18   11 1
    19   19   15 ar
    20   20    9 ar
    21   21   11 1
    22   22    8 1
    23   23    3 1
    24   24    6 1
    25   25   10 1
    26   26   12 1
    27   27   13 1
    28   28   14 1
    29   29   14 1
    30   30   15 1
    31   31   16 1
    32   32   17 1
    33   33   18 1
    34   34   18 1
    35   35   19 1
    36   36   20 1
    37   37   21 1
    38   38   21 1
    39   39   21 1
    40   40   22 1
    41   41   22 1
    42   42   22 1
    43   13   16 ar
    44   17   20 ar
@<TRIPOS>SUBSTRUCTURE
     1 RES1 1

@<TRIPOS>CRYSIN
  10.4680   10.5485   13.5817  90.0000  90.0000  90.0000  19 1

