# MOL2 file generated by ConQuest
# Please check atom types

@<TRIPOS>MOLECULE
EYABAH
    34    35     1
SMALL
NO_CHARGES
****
Generated from CSD

@<TRIPOS>ATOM
      1 C1         1.7935    3.9722    8.7212 C.ar      1 RES1    0.0000
      2 O1         1.4653    3.6462   11.8698 O.2       1 RES1    0.0000
      3 N1         1.7056    2.5838   11.2014 N.3       1 RES1    0.0000
      4 C2         1.1612    4.2520    6.4288 C.ar      1 RES1    0.0000
      5 O2         1.2628    4.8545    5.1981 O.3       1 RES1    0.0000
      6 C3         1.8942    4.6455    7.5065 C.ar      1 RES1    0.0000
      7 C4         0.9364    2.8958    8.8607 C.ar      1 RES1    0.0000
      8 C5         0.7555    2.1110   10.1774 C.3       1 RES1    0.0000
      9 C6        -0.6805    2.2750   10.6941 C.3       1 RES1    0.0000
     10 C7         1.1758    0.6497   10.0418 C.3       1 RES1    0.0000
     11 C8         2.7918    1.6693   11.5343 C.3       1 RES1    0.0000
     12 C9         0.2067    2.5141    7.7602 C.ar      1 RES1    0.0000
     13 C10        2.6402    0.6529   10.4028 C.3       1 RES1    0.0000
     14 C11        0.3136    3.1734    6.5429 C.ar      1 RES1    0.0000
     15 C12        2.5394    1.0689   12.9126 C.3       1 RES1    0.0000
     16 C13        4.1175    2.4047   11.5074 C.3       1 RES1    0.0000
     17 H1         2.3077    4.2477    9.4459 H         1 RES1    0.0000
     18 H2         1.1440    5.6618    5.2786 H         1 RES1    0.0000
     19 H3         2.4697    5.3734    7.4300 H         1 RES1    0.0000
     20 H4        -1.2981    1.9791   10.0217 H         1 RES1    0.0000
     21 H5        -0.8442    3.1992   10.8954 H         1 RES1    0.0000
     22 H6        -0.7968    1.7486   11.4886 H         1 RES1    0.0000
     23 H7         0.6710    0.0858   10.6498 H         1 RES1    0.0000
     24 H8         1.0432    0.3334    9.1345 H         1 RES1    0.0000
     25 H9        -0.3764    1.7926    7.8327 H         1 RES1    0.0000
     26 H10        3.1786    0.9113    9.6392 H         1 RES1    0.0000
     27 H11        2.9210   -0.2284   10.6968 H         1 RES1    0.0000
     28 H12       -0.1843    2.8883    5.8114 H         1 RES1    0.0000
     29 H13        3.2415    0.4492   13.1247 H         1 RES1    0.0000
     30 H14        1.6970    0.6090   12.9113 H         1 RES1    0.0000
     31 H15        2.5213    1.7690   13.5689 H         1 RES1    0.0000
     32 H16        4.8360    1.7701   11.5624 H         1 RES1    0.0000
     33 H17        4.1649    3.0062   12.2536 H         1 RES1    0.0000
     34 H18        4.1908    2.9022   10.6901 H         1 RES1    0.0000
@<TRIPOS>BOND
     1    1    6 ar
     2    2    3 1
     3    3    8 1
     4    4    5 1
     5    5   18 1
     6    6    4 ar
     7    7    1 ar
     8    8    7 1
     9    9    8 1
    10   10    8 1
    11   11    3 1
    12   12    7 ar
    13   13   10 1
    14   14    4 ar
    15   15   11 1
    16   16   11 1
    17   17    1 1
    18   19    6 1
    19   20    9 1
    20   21    9 1
    21   22    9 1
    22   23   10 1
    23   24   10 1
    24   25   12 1
    25   26   13 1
    26   27   13 1
    27   28   14 1
    28   29   15 1
    29   30   15 1
    30   31   15 1
    31   32   16 1
    32   33   16 1
    33   34   16 1
    34   11   13 1
    35   12   14 ar
@<TRIPOS>SUBSTRUCTURE
     1 RES1 1

@<TRIPOS>CRYSIN
   8.6141   10.7211   13.4213  90.0000  90.0000  90.0000  19 1

