# MOL2 file generated by ConQuest
# Please check atom types

@<TRIPOS>MOLECULE
EYACAI
    53    51     2
SMALL
NO_CHARGES
****
Generated from CSD

@<TRIPOS>ATOM
      1 C1         0.2467   16.6377    7.9541 C.3       1 RES1    0.0000
      2 C2         0.3441   15.9452    6.5728 C.3       1 RES1    0.0000
      3 O1         0.2468   12.3035    6.1825 O.3       1 RES1    0.0000
      4 N1         0.1848   13.6725    5.8280 N.2       1 RES1    0.0000
      5 C3         0.3605   14.4337    6.8314 C.2       1 RES1    0.0000
      6 C4         0.5665   13.9109    8.2338 C.3       1 RES1    0.0000
      7 C5         0.4157   15.0036    9.2813 C.3       1 RES1    0.0000
      8 C6        -0.7674   15.9337    8.9371 C.3       1 RES1    0.0000
      9 C7         1.3549   16.1526    8.9130 C.3       1 RES1    0.0000
     10 C8        -2.0602   15.2866    8.4540 C.3       1 RES1    0.0000
     11 C9        -1.0968   16.8748   10.1120 C.3       1 RES1    0.0000
     12 C10       -0.8228   16.3963    5.6756 C.3       1 RES1    0.0000
     13 C11        1.7367   16.3070    5.9227 C.3       1 RES1    0.0000
     14 O2         1.3990   18.6133    5.2530 O.2       1 RES1    0.0000
     15 C12        1.9758   17.8144    5.9335 C.2       1 RES1    0.0000
     16 O3         2.9261   18.1308    6.8051 O.3       1 RES1    0.0000
     17 C13        3.1800   19.5527    6.9917 C.3       1 RES1    0.0000
     18 C14        4.3165   19.6887    7.9257 C.3       1 RES1    0.0000
     19 C15        1.9330   15.7951    4.4999 C.2       1 RES1    0.0000
     20 O4         1.2227   15.9988    3.5624 O.2       1 RES1    0.0000
     21 O5         3.1218   15.1868    4.3979 O.3       1 RES1    0.0000
     22 C16        3.5161   14.7453    3.0678 C.3       1 RES1    0.0000
     23 C17        3.0305   13.3648    2.7718 C.3       1 RES1    0.0000
     24 H1         3.1218   15.4945    2.3231 H         1 RES1    0.0000
     25 H2         4.4706   14.8234    3.0163 H         1 RES1    0.0000
     26 H3         3.3633   12.8381    3.4003 H         1 RES1    0.0000
     27 H4         3.2838   13.1214    1.8079 H         1 RES1    0.0000
     28 H5         1.9897   13.4990    2.7727 H         1 RES1    0.0000
     29 C18        2.8227   13.9277    3.2879 Du        2 SUP2    0.0000
     30 O6         2.6594   14.7086    4.5253 Du        2 SUP2    0.0000
     31 C19        3.7079   14.5784    2.4074 Du        2 SUP2    0.0000
     32 H6         0.4134   14.6218   10.1822 H         1 RES1    0.0000
     33 H7         2.4385   15.8850    6.4213 H         1 RES1    0.0000
     34 H8         2.2380   15.9028    8.5308 H         1 RES1    0.0000
     35 H9         0.1664   17.5615    7.8507 H         1 RES1    0.0000
     36 H10        1.4967   16.8011    9.6670 H         1 RES1    0.0000
     37 H11       -1.6736   16.2218    6.0606 H         1 RES1    0.0000
     38 H12        1.4596   13.5118    8.2900 H         1 RES1    0.0000
     39 H13       -0.1053   13.2107    8.3463 H         1 RES1    0.0000
     40 H14        3.3654   20.0163    6.1168 H         1 RES1    0.0000
     41 H15       -1.9355   14.6856    7.7093 H         1 RES1    0.0000
     42 H16        2.3573   19.9321    7.2877 H         1 RES1    0.0000
     43 H17       -1.4704   16.3826   10.8005 H         1 RES1    0.0000
     44 H18        0.0054   11.9552    5.4049 H         1 RES1    0.0000
     45 H19       -0.8466   15.9207    4.8148 H         1 RES1    0.0000
     46 H20        4.0542   19.2610    8.8052 H         1 RES1    0.0000
     47 H21        5.0756   19.2584    7.4938 H         1 RES1    0.0000
     48 H22       -2.4614   14.7902    9.1518 H         1 RES1    0.0000
     49 H23       -0.7361   17.3012    5.5080 H         1 RES1    0.0000
     50 H24       -2.7225   16.0049    8.1870 H         1 RES1    0.0000
     51 H25        4.5190   20.6619    8.1027 H         1 RES1    0.0000
     52 H26       -1.7814   17.4288    9.7982 H         1 RES1    0.0000
     53 H27       -0.2861   17.3140   10.5101 H         1 RES1    0.0000
@<TRIPOS>BOND
     1    1    2 1
     2    2    5 1
     3    3    4 1
     4    4    5 2
     5    5    6 1
     6    6    7 1
     7    7    8 1
     8    8    1 1
     9    9    1 1
    10   10    8 1
    11   11    8 1
    12   12    2 1
    13   13    2 1
    14   14   15 2
    15   15   13 1
    16   16   15 1
    17   17   16 1
    18   18   17 1
    19   19   13 1
    20   20   19 2
    21   21   19 1
    22   22   21 1
    23   23   22 1
    24   24   22 1
    25   25   22 1
    26   26   23 1
    27   27   23 1
    28   28   23 1
    29   32    7 1
    30   33   13 1
    31   34    9 1
    32   35    1 1
    33   36    9 1
    34   37   12 1
    35   38    6 1
    36   39    6 1
    37   40   17 1
    38   41   10 1
    39   42   17 1
    40   43   11 1
    41   44    3 1
    42   45   12 1
    43   46   18 1
    44   47   18 1
    45   48   10 1
    46   49   12 1
    47   50   10 1
    48   51   18 1
    49   52   11 1
    50   53   11 1
    51    7    9 1
@<TRIPOS>SUBSTRUCTURE
     1 RES1 1
     2 SUP2 29

@<TRIPOS>CRYSIN
   7.3705   25.5180    9.3758  90.0000  92.4420  90.0000  14 1

