# MOL2 file generated by ConQuest
# Please check atom types

@<TRIPOS>MOLECULE
EYEQUW
   136   146     2
SMALL
NO_CHARGES
****
Generated from CSD

@<TRIPOS>ATOM
      1 N1        13.4343   -5.0296    5.8609 N.am      1 RES1    0.0000
      2 C1        12.9866   -6.0059    6.7404 C.2       1 RES1    0.0000
      3 O1        12.6310   -5.8120    7.8757 O.2       1 RES1    0.0000
      4 C2        13.0444   -7.3408    5.9984 C.3       1 RES1    0.0000
      5 H1        13.8370   -7.8736    6.2947 H         1 RES1    0.0000
      6 O2        11.8642   -8.0903    6.1360 O.3       1 RES1    0.0000
      7 N2        10.9501   -7.4080    5.2123 N.3       1 RES1    0.0000
      8 C3        11.7416   -7.2246    3.9702 C.3       1 RES1    0.0000
      9 H2        11.7368   -8.0710    3.4362 H         1 RES1    0.0000
     10 C4        13.1738   -6.9569    4.5274 C.3       1 RES1    0.0000
     11 H3        13.8546   -7.5244    4.0645 H         1 RES1    0.0000
     12 C5        13.5952   -5.5029    4.5488 C.2       1 RES1    0.0000
     13 C6        13.7089   -3.6637    6.2382 C.ar      1 RES1    0.0000
     14 C7        12.8238   -2.6696    5.8626 C.ar      1 RES1    0.0000
     15 H4        12.0296   -2.8903    5.3915 H         1 RES1    0.0000
     16 C8        13.1051   -1.3385    6.1803 C.ar      1 RES1    0.0000
     17 C9        14.2744   -1.0536    6.8743 C.ar      1 RES1    0.0000
     18 H5        14.4830   -0.1514    7.0834 H         1 RES1    0.0000
     19 C10       15.1430   -2.0611    7.2683 C.ar      1 RES1    0.0000
     20 H6        15.9279   -1.8471    7.7592 H         1 RES1    0.0000
     21 C11       14.8658   -3.3827    6.9443 C.ar      1 RES1    0.0000
     22 H7        15.4585   -4.0794    7.2028 H         1 RES1    0.0000
     23 C12       12.1585   -0.2230    5.8046 C.3       1 RES1    0.0000
     24 H8        12.6321    0.6395    5.9167 H         1 RES1    0.0000
     25 H9        11.3995   -0.2300    6.4403 H         1 RES1    0.0000
     26 C13       11.6017   -0.2811    4.3993 C.2       1 RES1    0.0000
     27 O3        11.8265   -1.1785    3.6078 O.2       1 RES1    0.0000
     28 O4        10.8240    0.7482    4.1168 O.3       1 RES1    0.0000
     29 H10       10.5247    0.6858    3.1858 H         1 RES1    0.0000
     30 C14        9.7728   -8.1973    5.1249 C.ar      1 RES1    0.0000
     31 C15        8.9090   -8.0493    4.0381 C.ar      1 RES1    0.0000
     32 H11        9.1447   -7.4720    3.3216 H         1 RES1    0.0000
     33 C16        7.7126   -8.7401    4.0026 C.ar      1 RES1    0.0000
     34 H12        7.1276   -8.6285    3.2627 H         1 RES1    0.0000
     35 C17        7.3593   -9.5910    5.0325 C.ar      1 RES1    0.0000
     36 H13        6.5350  -10.0633    5.0053 H         1 RES1    0.0000
     37 C18        8.2181   -9.7454    6.1000 C.ar      1 RES1    0.0000
     38 H14        7.9830  -10.3360    6.8052 H         1 RES1    0.0000
     39 C19        9.4198   -9.0548    6.1633 C.ar      1 RES1    0.0000
     40 H15        9.9974   -9.1660    6.9099 H         1 RES1    0.0000
     41 C20       11.2181   -6.0810    3.1254 C.ar      1 RES1    0.0000
     42 C21       10.5488   -5.0086    3.7009 C.ar      1 RES1    0.0000
     43 H16       10.3527   -5.0187    4.6306 H         1 RES1    0.0000
     44 C22       10.1644   -3.9217    2.9248 C.ar      1 RES1    0.0000
     45 H17        9.7120   -3.1906    3.3282 H         1 RES1    0.0000
     46 C23       10.4383   -3.8991    1.5641 C.ar      1 RES1    0.0000
     47 C24       11.0700   -4.9961    0.9775 C.ar      1 RES1    0.0000
     48 H18       11.2306   -5.0037    0.0409 H         1 RES1    0.0000
     49 C25       11.4644   -6.0723    1.7536 C.ar      1 RES1    0.0000
     50 H19       11.9062   -6.8103    1.3483 H         1 RES1    0.0000
     51 C26       10.0381   -2.7517    0.6851 C.2       1 RES1    0.0000
     52 O5         9.6998   -2.9451   -0.4793 O.2       1 RES1    0.0000
     53 N3        10.0938   -1.5262    1.2814 N.am      1 RES1    0.0000
     54 H20       10.5658   -1.4579    2.1370 H         1 RES1    0.0000
     55 C27        9.7759   -0.2846    0.7178 C.ar      1 RES1    0.0000
     56 N4         9.9601    0.7523    1.5566 N.ar      1 RES1    0.0000
     57 C28        9.7192    2.0066    1.1002 C.ar      1 RES1    0.0000
     58 C29        9.2886    2.2380   -0.1968 C.ar      1 RES1    0.0000
     59 H21        9.1344    3.1243   -0.5007 H         1 RES1    0.0000
     60 C30        9.0862    1.1644   -1.0434 C.ar      1 RES1    0.0000
     61 H22        8.7911    1.3084   -1.9341 H         1 RES1    0.0000
     62 C31        9.3162   -0.1219   -0.5859 C.ar      1 RES1    0.0000
     63 H23        9.1644   -0.8741   -1.1470 H         1 RES1    0.0000
     64 C32        9.9423    3.1321    2.0727 C.3       1 RES1    0.0000
     65 H24       10.9044    3.2683    2.1991 H         1 RES1    0.0000
     66 H25        9.5281    2.9084    2.9322 H         1 RES1    0.0000
     67 H26        9.5395    3.9534    1.7197 H         1 RES1    0.0000
     68 O6        14.0131   -4.8408    3.6341 O.2       1 RES1    0.0000
     69 N5         3.5588    1.1790   -6.1571 N.am      2 RES2    0.0000
     70 C33        4.1564    0.2436   -6.9895 C.2       2 RES2    0.0000
     71 O7         4.6320    0.4699   -8.0768 O.2       2 RES2    0.0000
     72 C34        4.0511   -1.1149   -6.2877 C.3       2 RES2    0.0000
     73 H27        3.3151   -1.6593   -6.6890 H         2 RES2    0.0000
     74 O8         5.2535   -1.8360   -6.2916 O.3       2 RES2    0.0000
     75 N6         6.0340   -1.1233   -5.2742 N.3       2 RES2    0.0000
     76 C35        5.1081   -0.9651   -4.1240 C.3       2 RES2    0.0000
     77 H28        5.0977   -1.7999   -3.5736 H         2 RES2    0.0000
     78 C36        3.7314   -0.7738   -4.8334 C.3       2 RES2    0.0000
     79 H29        3.0351   -1.3837   -4.4572 H         2 RES2    0.0000
     80 C37        3.2460    0.6605   -4.8875 C.2       2 RES2    0.0000
     81 O9         2.6907    1.2867   -4.0288 O.2       2 RES2    0.0000
     82 C38        3.2306    2.5384   -6.5230 C.ar      2 RES2    0.0000
     83 C39        4.1226    3.5469   -6.2360 C.ar      2 RES2    0.0000
     84 H30        4.9669    3.3394   -5.8545 H         2 RES2    0.0000
     85 C40        3.7844    4.8784   -6.5068 C.ar      2 RES2    0.0000
     86 C41        2.5361    5.1495   -7.0621 C.ar      2 RES2    0.0000
     87 H31        2.2884    6.0487   -7.2405 H         2 RES2    0.0000
     88 C42        1.6493    4.1223   -7.3573 C.ar      2 RES2    0.0000
     89 H32        0.8061    4.3224   -7.7461 H         2 RES2    0.0000
     90 C43        1.9911    2.8048   -7.0865 C.ar      2 RES2    0.0000
     91 H33        1.3878    2.0985   -7.2830 H         2 RES2    0.0000
     92 C44        4.7495    5.9928   -6.1843 C.3       2 RES2    0.0000
     93 H34        4.2969    6.8611   -6.3340 H         2 RES2    0.0000
     94 H35        5.5161    5.9422   -6.8085 H         2 RES2    0.0000
     95 C45        5.2721    5.9528   -4.7602 C.2       2 RES2    0.0000
     96 O10        4.8193    5.2298   -3.8964 O.2       2 RES2    0.0000
     97 O11        6.2606    6.7965   -4.5506 O.3       2 RES2    0.0000
     98 H36        6.4317    6.8449   -3.5867 H         2 RES2    0.0000
     99 C46        7.2251   -1.8734   -5.0696 C.ar      2 RES2    0.0000
    100 C47        7.9501   -1.7306   -3.8802 C.ar      2 RES2    0.0000
    101 H37        7.6156   -1.1783   -3.1825 H         2 RES2    0.0000
    102 C48        9.1559   -2.3952   -3.7217 C.ar      2 RES2    0.0000
    103 H38        9.6465   -2.2918   -2.9142 H         2 RES2    0.0000
    104 C49        9.6559   -3.2095   -4.7281 C.ar      2 RES2    0.0000
    105 H39       10.4817   -3.6646   -4.6143 H         2 RES2    0.0000
    106 C50        8.9328   -3.3504   -5.9017 C.ar      2 RES2    0.0000
    107 H40        9.2659   -3.9138   -6.5892 H         2 RES2    0.0000
    108 C51        7.7300   -2.6831   -6.0900 C.ar      2 RES2    0.0000
    109 H41        7.2534   -2.7767   -6.9067 H         2 RES2    0.0000
    110 C52        5.4780    0.2241   -3.2573 C.ar      2 RES2    0.0000
    111 C53        6.1711    1.3054   -3.7801 C.ar      2 RES2    0.0000
    112 H42        6.4919    1.2720   -4.6732 H         2 RES2    0.0000
    113 C54        6.3996    2.4327   -3.0115 C.ar      2 RES2    0.0000
    114 H43        6.8769    3.1657   -3.3805 H         2 RES2    0.0000
    115 C55        5.9321    2.4992   -1.6978 C.ar      2 RES2    0.0000
    116 C56        5.2553    1.4045   -1.1660 C.ar      2 RES2    0.0000
    117 H44        4.9494    1.4310   -0.2667 H         2 RES2    0.0000
    118 C57        5.0240    0.2776   -1.9367 C.ar      2 RES2    0.0000
    119 H45        4.5552   -0.4614   -1.5675 H         2 RES2    0.0000
    120 C58        6.2582    3.6638   -0.8183 C.2       2 RES2    0.0000
    121 O12        6.4188    3.5428    0.3888 O.2       2 RES2    0.0000
    122 N7         6.3899    4.8493   -1.5019 N.am      2 RES2    0.0000
    123 H46        5.9598    4.8803   -2.3824 H         2 RES2    0.0000
    124 C59        6.9508    6.0451   -1.0552 C.ar      2 RES2    0.0000
    125 N8         6.8890    7.0398   -1.9625 N.ar      2 RES2    0.0000
    126 C60        7.3950    8.2504   -1.6487 C.ar      2 RES2    0.0000
    127 C61        8.0275    8.4784   -0.4321 C.ar      2 RES2    0.0000
    128 H47        8.4071    9.3264   -0.2340 H         2 RES2    0.0000
    129 C62        8.0920    7.4429    0.4842 C.ar      2 RES2    0.0000
    130 H48        8.5130    7.5844    1.3237 H         2 RES2    0.0000
    131 C63        7.5520    6.2085    0.1926 C.ar      2 RES2    0.0000
    132 H49        7.5882    5.4952    0.8181 H         2 RES2    0.0000
    133 C64        7.2332    9.3541   -2.6504 C.3       2 RES2    0.0000
    134 H50        6.4786    9.9229   -2.3906 H         2 RES2    0.0000
    135 H51        7.0637    8.9692   -3.5360 H         2 RES2    0.0000
    136 H52        8.0521    9.8919   -2.6786 H         2 RES2    0.0000
@<TRIPOS>BOND
     1    1    2 1
     2    2    3 2
     3    4    2 1
     4    5    4 1
     5    6    4 1
     6    7    6 1
     7    8    7 1
     8    9    8 1
     9   10    4 1
    10   11   10 1
    11   12    1 1
    12   13    1 1
    13   14   13 ar
    14   15   14 1
    15   16   14 ar
    16   17   16 ar
    17   18   17 1
    18   19   17 ar
    19   20   19 1
    20   21   13 ar
    21   22   21 1
    22   23   16 1
    23   24   23 1
    24   25   23 1
    25   26   23 1
    26   27   26 2
    27   28   26 1
    28   29   28 1
    29   30    7 1
    30   31   30 ar
    31   32   31 1
    32   33   31 ar
    33   34   33 1
    34   35   33 ar
    35   36   35 1
    36   37   35 ar
    37   38   37 1
    38   39   30 ar
    39   40   39 1
    40   41    8 1
    41   42   41 ar
    42   43   42 1
    43   44   42 ar
    44   45   44 1
    45   46   44 ar
    46   47   46 ar
    47   48   47 1
    48   49   41 ar
    49   50   49 1
    50   51   46 1
    51   52   51 2
    52   53   51 1
    53   54   53 1
    54   55   53 1
    55   56   55 ar
    56   57   56 ar
    57   58   57 ar
    58   59   58 1
    59   60   58 ar
    60   61   60 1
    61   62   55 ar
    62   63   62 1
    63   64   57 1
    64   65   64 1
    65   66   64 1
    66   67   64 1
    67   68   12 2
    68   69   70 1
    69   70   71 2
    70   72   70 1
    71   73   72 1
    72   74   72 1
    73   75   74 1
    74   76   75 1
    75   77   76 1
    76   78   72 1
    77   79   78 1
    78   80   69 1
    79   81   80 2
    80   82   69 1
    81   83   82 ar
    82   84   83 1
    83   85   83 ar
    84   86   85 ar
    85   87   86 1
    86   88   86 ar
    87   89   88 1
    88   90   82 ar
    89   91   90 1
    90   92   85 1
    91   93   92 1
    92   94   92 1
    93   95   92 1
    94   96   95 2
    95   97   95 1
    96   98   97 1
    97   99   75 1
    98  100   99 ar
    99  101  100 1
   100  102  100 ar
   101  103  102 1
   102  104  102 ar
   103  105  104 1
   104  106  104 ar
   105  107  106 1
   106  108   99 ar
   107  109  108 1
   108  110   76 1
   109  111  110 ar
   110  112  111 1
   111  113  111 ar
   112  114  113 1
   113  115  113 ar
   114  116  115 ar
   115  117  116 1
   116  118  110 ar
   117  119  118 1
   118  120  115 1
   119  121  120 2
   120  122  120 1
   121  123  122 1
   122  124  122 1
   123  125  124 ar
   124  126  125 ar
   125  127  126 ar
   126  128  127 1
   127  129  127 ar
   128  130  129 1
   129  131  124 ar
   130  132  131 1
   131  133  126 1
   132  134  133 1
   133  135  133 1
   134  136  133 1
   135    8   10 1
   136   10   12 1
   137   19   21 ar
   138   37   39 ar
   139   47   49 ar
   140   60   62 ar
   141   76   78 1
   142   78   80 1
   143   88   90 ar
   144  106  108 ar
   145  116  118 ar
   146  129  131 ar
@<TRIPOS>SUBSTRUCTURE
     1 RES1 1
     2 RES2 69

@<TRIPOS>CRYSIN
  11.3480   14.2370   17.1160  88.8390  72.9550  88.6160   2 1

