# MOL2 file generated by ConQuest
# Please check atom types

@<TRIPOS>MOLECULE
EYIFEZ
    29    30     1
SMALL
NO_CHARGES
****
Generated from CSD

@<TRIPOS>ATOM
      1 N1         3.2087    4.5369   -0.5326 N.3       1 RES1    0.0000
      2 O1         7.3380    3.8407   -0.1730 O.3       1 RES1    0.0000
      3 O2         5.2777   -0.9232    1.8905 O.2       1 RES1    0.0000
      4 C1         5.2701    3.4224    0.0019 C.2       1 RES1    0.0000
      5 N2         6.0923    4.3632   -0.3879 N.2       1 RES1    0.0000
      6 C2         3.8161    3.4642   -0.0377 C.2       1 RES1    0.0000
      7 C3         0.9984    4.9926    0.5688 C.3       1 RES1    0.0000
      8 H1         0.0540    5.0506    0.3587 H         1 RES1    0.0000
      9 H2         1.1149    4.2668    1.2018 H         1 RES1    0.0000
     10 C4         3.9204    1.2206    0.9109 C.2       1 RES1    0.0000
     11 H3         3.4467    0.4864    1.2300 H         1 RES1    0.0000
     12 N3         5.9592   -0.0053    1.4154 N.pl3     1 RES1    0.0000
     13 C5         1.7600    4.6556   -0.7038 C.3       1 RES1    0.0000
     14 H4         1.4191    3.8176   -1.0546 H         1 RES1    0.0000
     15 H5         1.5812    5.3434   -1.3635 H         1 RES1    0.0000
     16 C6         6.0112    2.2920    0.4588 C.2       1 RES1    0.0000
     17 C7         5.2899    1.1584    0.9326 C.2       1 RES1    0.0000
     18 N4         7.2988    2.5498    0.3472 N.2       1 RES1    0.0000
     19 C8         1.4265    6.2783    1.2249 C.3       1 RES1    0.0000
     20 H6         1.3951    6.9916    0.5688 H         1 RES1    0.0000
     21 H7         2.3458    6.1892    1.5195 H         1 RES1    0.0000
     22 C9         3.1919    2.3116    0.4425 C.2       1 RES1    0.0000
     23 H8         2.2637    2.2709    0.4497 H         1 RES1    0.0000
     24 O3         7.1819   -0.0405    1.3650 O.2       1 RES1    0.0000
     25 C10        0.5690    6.6609    2.4066 C.3       1 RES1    0.0000
     26 H9        -0.3343    6.8011    2.1142 H         1 RES1    0.0000
     27 H10        0.9067    7.4695    2.7985 H         1 RES1    0.0000
     28 H11        0.5885    5.9561    3.0584 H         1 RES1    0.0000
     29 H12        3.7289    5.2203   -0.8445 H         1 RES1    0.0000
@<TRIPOS>BOND
     1    1    6 1
     2    2    5 1
     3    3   12 2
     4    4    5 2
     5    6    4 1
     6    7    8 1
     7    9    7 1
     8   10   11 1
     9   12   17 1
    10   13    1 1
    11   14   13 1
    12   15   13 1
    13   16    4 1
    14   17   10 2
    15   18    2 1
    16   19    7 1
    17   20   19 1
    18   21   19 1
    19   22    6 2
    20   23   22 1
    21   24   12 2
    22   25   19 1
    23   26   25 1
    24   27   25 1
    25   28   25 1
    26   29    1 1
    27    7   13 1
    28   10   22 1
    29   16   17 1
    30   16   18 2
@<TRIPOS>SUBSTRUCTURE
     1 RES1 1

@<TRIPOS>CRYSIN
  20.0154    7.7452    7.2183  90.0000  90.0000  90.0000  29 1

