# MOL2 file generated by ConQuest
# Please check atom types

@<TRIPOS>MOLECULE
EYOGAB
    92    96     2
SMALL
NO_CHARGES
****
Generated from CSD

@<TRIPOS>ATOM
      1 C1        -5.5167   11.1834    1.8887 C.2       1 RES1    0.0000
      2 C2        -6.9217   10.8678    1.8887 C.3       1 RES1    0.0000
      3 H1        -7.0865   10.1145    2.4581 H         1 RES1    0.0000
      4 H2        -7.2063   10.6620    0.9935 H         1 RES1    0.0000
      5 H3        -7.4197   11.6267    2.2121 H         1 RES1    0.0000
      6 C3        -4.8294   12.0685    1.2560 C.2       1 RES1    0.0000
      7 H4        -5.2748   12.7045    0.7428 H         1 RES1    0.0000
      8 C4        -3.3752   12.0822    1.3357 C.3       1 RES1    0.0000
      9 H5        -3.0408   12.9069    1.7270 H         1 RES1    0.0000
     10 H6        -2.9613   11.9436    0.4687 H         1 RES1    0.0000
     11 C5        -3.1675   10.8267    2.3105 C.3       1 RES1    0.0000
     12 C6        -2.5736   11.3275    3.7446 C.3       1 RES1    0.0000
     13 H7        -2.1305   10.6037    4.2132 H         1 RES1    0.0000
     14 H8        -1.9570   12.0658    3.6344 H         1 RES1    0.0000
     15 C7        -3.7371   11.7323    4.4124 C.3       1 RES1    0.0000
     16 H9        -3.5667   11.8784    5.3544 H         1 RES1    0.0000
     17 H10       -4.0970   12.5453    4.0257 H         1 RES1    0.0000
     18 C8        -4.6554   10.6414    4.2296 C.3       1 RES1    0.0000
     19 H11       -5.5569   10.8857    4.4874 H         1 RES1    0.0000
     20 H12       -4.3769    9.8565    4.7264 H         1 RES1    0.0000
     21 C9        -4.5263   10.4150    2.5987 C.3       1 RES1    0.0000
     22 C10       -4.7966    8.9536    2.4604 C.3       1 RES1    0.0000
     23 H13       -5.7078    8.7718    2.7018 H         1 RES1    0.0000
     24 H14       -4.2101    8.4589    3.0416 H         1 RES1    0.0000
     25 H15       -4.6470    8.6799    1.5536 H         1 RES1    0.0000
     26 C11       -2.2901    9.9073    1.6708 C.1       1 RES1    0.0000
     27 C12       -1.6249    9.0977    1.0873 C.1       1 RES1    0.0000
     28 C13       -0.8016    8.1509    0.5249 C.3       1 RES1    0.0000
     29 H16       -0.1454    8.6016   -0.0281 H         1 RES1    0.0000
     30 H17       -1.3312    7.5800   -0.0562 H         1 RES1    0.0000
     31 O1        -0.0939    7.2994    1.4880 O.3       1 RES1    0.0000
     32 C14        0.9126    7.8215    2.1605 C.2       1 RES1    0.0000
     33 O2         1.3077    8.9330    1.9590 O.2       1 RES1    0.0000
     34 C15        1.4367    6.8610    3.1822 C.ar      1 RES1    0.0000
     35 C16        1.0427    5.5986    3.3087 C.ar      1 RES1    0.0000
     36 H18        0.3775    5.2658    2.7510 H         1 RES1    0.0000
     37 C17        1.6258    4.7547    4.2905 C.ar      1 RES1    0.0000
     38 H19        1.3380    3.8799    4.4311 H         1 RES1    0.0000
     39 C18        2.6403    5.3173    5.0076 C.ar      1 RES1    0.0000
     40 C19        3.0202    6.6140    4.9490 C.ar      1 RES1    0.0000
     41 H20        3.6370    6.9632    5.5489 H         1 RES1    0.0000
     42 C20        2.4536    7.4030    3.9484 C.ar      1 RES1    0.0000
     43 H21        2.7518    8.2682    3.8008 H         1 RES1    0.0000
     44 N1         3.1963    4.3567    6.0808 N.pl3     1 RES1    0.0000
     45 O3         2.9026    3.2041    6.0925 O.2       1 RES1    0.0000
     46 O4         4.0262    4.8919    6.8306 O.2       1 RES1    0.0000
     47 C21        8.4685    1.0154    9.8207 C.2       2 RES2    0.0000
     48 C22        9.3052   -0.0549   10.2893 C.3       2 RES2    0.0000
     49 H22        8.7730   -0.8316   10.4557 H         2 RES2    0.0000
     50 H23        9.7452    0.2154   11.1024 H         2 RES2    0.0000
     51 H24        9.9708   -0.2559    9.6238 H         2 RES2    0.0000
     52 C23        8.8214    2.3053    9.4575 C.2       2 RES2    0.0000
     53 H25        9.6778    2.6408    9.6027 H         2 RES2    0.0000
     54 C24        7.8262    3.0463    8.8693 C.3       2 RES2    0.0000
     55 H26        8.0417    3.2075    7.9367 H         2 RES2    0.0000
     56 H27        7.7527    3.9073    9.3145 H         2 RES2    0.0000
     57 C25        6.6012    2.3396    8.9724 C.3       2 RES2    0.0000
     58 C26        5.9240    2.0240    7.5969 C.3       2 RES2    0.0000
     59 H28        4.9661    1.9355    7.7023 H         2 RES2    0.0000
     60 H29        6.1034    2.7375    6.9619 H         2 RES2    0.0000
     61 C27        6.5032    0.7890    7.1493 C.3       2 RES2    0.0000
     62 H30        7.3540    0.9592    6.7088 H         2 RES2    0.0000
     63 H31        5.9154    0.3547    6.5143 H         2 RES2    0.0000
     64 C28        6.7222   -0.0823    8.3186 C.3       2 RES2    0.0000
     65 H32        7.4745   -0.6744    8.1804 H         2 RES2    0.0000
     66 H33        5.9282   -0.6195    8.4991 H         2 RES2    0.0000
     67 C29        6.9926    0.9194    9.4879 C.3       2 RES2    0.0000
     68 C30        6.2737    0.3911   10.7228 C.3       2 RES2    0.0000
     69 H34        5.3326    0.3190   10.5424 H         2 RES2    0.0000
     70 H35        6.4131    0.9894   11.4586 H         2 RES2    0.0000
     71 H36        6.6206   -0.4775   10.9478 H         2 RES2    0.0000
     72 C31        5.5486    2.9228    9.8582 C.1       2 RES2    0.0000
     73 C32        4.7422    3.5609   10.4346 C.1       2 RES2    0.0000
     74 C33        3.7557    4.3430   11.1188 C.3       2 RES2    0.0000
     75 H37        4.1930    4.8857   11.7937 H         2 RES2    0.0000
     76 H38        3.1426    3.7440   11.5734 H         2 RES2    0.0000
     77 O5         3.0097    5.1972   10.2378 O.3       2 RES2    0.0000
     78 C34        1.9847    4.6312    9.5629 C.2       2 RES2    0.0000
     79 O6         1.7515    3.4305    9.7035 O.2       2 RES2    0.0000
     80 C35        1.3104    5.5162    8.6654 C.ar      2 RES2    0.0000
     81 C36        1.6593    6.8541    8.5108 C.ar      2 RES2    0.0000
     82 H39        2.3875    7.1691    8.9958 H         2 RES2    0.0000
     83 C37        1.0086    7.7323    7.7023 C.ar      2 RES2    0.0000
     84 H40        1.2153    8.6373    7.6906 H         2 RES2    0.0000
     85 C38        0.0331    7.2041    6.9103 C.ar      2 RES2    0.0000
     86 C39       -0.3651    5.9416    6.9759 C.ar      2 RES2    0.0000
     87 H41       -1.0673    5.6452    6.4440 H         2 RES2    0.0000
     88 C40        0.2760    5.0703    7.8523 C.ar      2 RES2    0.0000
     89 H42        0.0079    4.1797    7.8945 H         2 RES2    0.0000
     90 O7        -0.4727    9.2143    6.0574 O.2       2 RES2    0.0000
     91 O8        -1.4869    7.5745    5.2138 O.2       2 RES2    0.0000
     92 N2        -0.6724    8.0274    5.8722 N.pl3     2 RES2    0.0000
@<TRIPOS>BOND
     1    1    2 1
     2    2    3 1
     3    4    2 1
     4    5    2 1
     5    6    1 2
     6    7    6 1
     7    8    6 1
     8    9    8 1
     9   10    8 1
    10   11    8 1
    11   12   11 1
    12   13   12 1
    13   14   12 1
    14   15   12 1
    15   16   15 1
    16   17   15 1
    17   18   15 1
    18   19   18 1
    19   20   18 1
    20   21    1 1
    21   22   21 1
    22   23   22 1
    23   24   22 1
    24   25   22 1
    25   26   11 1
    26   27   26 3
    27   28   27 1
    28   29   28 1
    29   30   28 1
    30   31   28 1
    31   32   31 1
    32   33   32 2
    33   34   32 1
    34   35   34 ar
    35   36   35 1
    36   37   35 ar
    37   38   37 1
    38   39   37 ar
    39   40   39 ar
    40   41   40 1
    41   42   34 ar
    42   43   42 1
    43   44   39 1
    44   45   44 2
    45   46   44 2
    46   47   48 1
    47   48   49 1
    48   50   48 1
    49   51   48 1
    50   52   47 2
    51   53   52 1
    52   54   52 1
    53   55   54 1
    54   56   54 1
    55   57   54 1
    56   58   57 1
    57   59   58 1
    58   60   58 1
    59   61   58 1
    60   62   61 1
    61   63   61 1
    62   64   61 1
    63   65   64 1
    64   66   64 1
    65   67   47 1
    66   68   67 1
    67   69   68 1
    68   70   68 1
    69   71   68 1
    70   72   57 1
    71   73   72 3
    72   74   73 1
    73   75   74 1
    74   76   74 1
    75   77   74 1
    76   78   77 1
    77   79   78 2
    78   80   78 1
    79   81   80 ar
    80   82   81 1
    81   83   81 ar
    82   84   83 1
    83   85   83 ar
    84   86   85 ar
    85   87   86 1
    86   88   80 ar
    87   89   88 1
    88   90   92 2
    89   91   92 2
    90   92   85 1
    91   11   21 1
    92   18   21 1
    93   40   42 ar
    94   57   67 1
    95   64   67 1
    96   86   88 ar
@<TRIPOS>SUBSTRUCTURE
     1 RES1 1
     2 RES2 47

@<TRIPOS>CRYSIN
  11.1510    6.8610   24.0070  90.0000 102.5570  90.0000   4 1

