# MOL2 file generated by ConQuest
# Please check atom types

@<TRIPOS>MOLECULE
EYOKUZ
   132   136     2
SMALL
NO_CHARGES
****
Generated from CSD

@<TRIPOS>ATOM
      1 C1        -2.7075    3.5488    4.7830 C.2       1 RES1    0.0000
      2 C2         1.1226   -1.1419    9.8681 C.2       2 RES2    0.0000
      3 C3        -3.7843    3.5675    5.8391 C.3       1 RES1    0.0000
      4 H1        -4.1331    4.5028    5.8996 H         1 RES1    0.0000
      5 C4         2.1272   -1.2403    8.7659 C.3       2 RES2    0.0000
      6 H2         2.5114   -2.1611    8.8263 H         2 RES2    0.0000
      7 C5        -4.6112    1.4969    4.9815 C.2       1 RES1    0.0000
      8 C6         3.0727    0.8804    9.4249 C.2       2 RES2    0.0000
      9 C7         2.1203    1.0887   10.5789 C.3       2 RES2    0.0000
     10 H3         1.6588    1.9691   10.4696 H         2 RES2    0.0000
     11 C8        -3.5868    1.3943    3.8880 C.3       1 RES1    0.0000
     12 H4        -3.0636    0.5586    4.0520 H         1 RES1    0.0000
     13 C9         1.4719   -1.1533    7.4162 C.3       2 RES2    0.0000
     14 H5         0.7210   -1.8133    7.3903 H         2 RES2    0.0000
     15 C10       -3.2294    3.1774    7.2406 C.3       1 RES1    0.0000
     16 H6        -3.9978    2.7716    7.7328 H         1 RES1    0.0000
     17 C11       -2.1795    2.1394    7.2090 C.3       1 RES1    0.0000
     18 H7        -2.4754    1.3906    6.6507 H         1 RES1    0.0000
     19 H8        -2.0103    1.8200    8.1213 H         1 RES1    0.0000
     20 H9        -1.3551    2.5180    6.8378 H         1 RES1    0.0000
     21 C12        0.8766    0.2657    7.1802 C.3       2 RES2    0.0000
     22 H10        1.6036    0.9190    7.1198 H         2 RES2    0.0000
     23 H11        0.2875    0.5000    7.9285 H         2 RES2    0.0000
     24 H12        0.3622    0.2699    6.3456 H         2 RES2    0.0000
     25 C13        2.4170   -1.4794    6.3054 C.3       2 RES2    0.0000
     26 H13        2.7032   -0.6135    5.9255 H         2 RES2    0.0000
     27 H14        3.2186   -1.8725    6.7370 H         2 RES2    0.0000
     28 C14       -2.8009    4.3706    8.0551 C.3       1 RES1    0.0000
     29 H15       -2.1866    4.9249    7.5112 H         1 RES1    0.0000
     30 H16       -2.2999    4.0524    8.8465 H         1 RES1    0.0000
     31 C15        2.1843   -2.1557    5.4075 C.3       2 RES2    0.0000
     32 H17        1.4556   -2.7698    5.6406 H         2 RES2    0.0000
     33 H18        2.9821   -2.6732    5.1715 H         2 RES2    0.0000
     34 H19        1.9141   -1.6038    4.6448 H         2 RES2    0.0000
     35 C16       -3.9503    5.2329    8.5213 C.3       1 RES1    0.0000
     36 H20       -4.4501    5.5602    7.7443 H         1 RES1    0.0000
     37 H21       -3.6024    5.9943    9.0307 H         1 RES1    0.0000
     38 H22       -4.5453    4.7033    9.0911 H         1 RES1    0.0000
     39 C17        5.6397    2.7155    8.0608 C.3       2 RES2    0.0000
     40 H23        5.1173    3.5367    7.8767 H         2 RES2    0.0000
     41 H24        6.2589    2.5790    7.3011 H         2 RES2    0.0000
     42 C18       -7.1706   -0.4263    6.2478 C.3       1 RES1    0.0000
     43 H25       -7.7992   -0.3363    7.0047 H         1 RES1    0.0000
     44 H26       -6.6340   -1.2463    6.3888 H         1 RES1    0.0000
     45 C19        6.4310    2.9232    9.2810 C.ar      2 RES2    0.0000
     46 C20       -7.9601   -0.5543    4.9441 C.ar      1 RES1    0.0000
     47 C21       -7.8556   -1.7185    4.2016 C.ar      1 RES1    0.0000
     48 H27       -7.3149   -2.4365    4.5125 H         1 RES1    0.0000
     49 C22        6.3607    4.0759   10.0264 C.ar      2 RES2    0.0000
     50 H28        5.7606    4.7558    9.7444 H         2 RES2    0.0000
     51 C23        7.1133    4.3005   11.1574 C.ar      2 RES2    0.0000
     52 H29        7.0467    5.1224   11.6322 H         2 RES2    0.0000
     53 C24       -8.5414   -1.8278    3.0102 C.ar      1 RES1    0.0000
     54 H30       -8.4573   -2.6164    2.4865 H         1 RES1    0.0000
     55 C25        7.9645    3.3030   11.5891 C.ar      2 RES2    0.0000
     56 H31        8.4837    3.4238   12.3776 H         2 RES2    0.0000
     57 C26       -9.3441   -0.8001    2.5757 C.ar      1 RES1    0.0000
     58 H32       -9.8187   -0.8804    1.7555 H         1 RES1    0.0000
     59 C27        8.0593    2.0899   10.8466 C.ar      2 RES2    0.0000
     60 H33        8.6296    1.3876   11.1372 H         2 RES2    0.0000
     61 C28       -9.4533    0.2971    3.2980 C.ar      1 RES1    0.0000
     62 H34      -10.0312    0.9897    3.0016 H         1 RES1    0.0000
     63 C29       -8.7431    0.4728    4.4923 C.ar      1 RES1    0.0000
     64 H35       -8.8040    1.2868    4.9787 H         1 RES1    0.0000
     65 C30        7.3141    1.9570    9.7098 C.ar      2 RES2    0.0000
     66 H36        7.4083    1.1648    9.1947 H         2 RES2    0.0000
     67 C31        2.8385    1.0483   11.9718 C.3       2 RES2    0.0000
     68 H37        2.1520    0.8206   12.6654 H         2 RES2    0.0000
     69 C32       -4.2527    1.2530    2.4951 C.3       1 RES1    0.0000
     70 H38       -3.5431    1.4830    1.8303 H         1 RES1    0.0000
     71 C33        3.3643    2.4516   12.2798 C.3       2 RES2    0.0000
     72 H39        3.6563    2.4908   13.2150 H         2 RES2    0.0000
     73 H40        2.6512    3.1055   12.1301 H         2 RES2    0.0000
     74 H41        4.1210    2.6496   11.6898 H         2 RES2    0.0000
     75 C34       -5.3468    2.3036    2.3195 C.3       1 RES1    0.0000
     76 H42       -5.5725    2.3852    1.3699 H         1 RES1    0.0000
     77 H43       -5.0274    3.1677    2.6562 H         1 RES1    0.0000
     78 H44       -6.1425    2.0331    2.8232 H         1 RES1    0.0000
     79 C35        3.8854    0.0580   12.0466 C.3       2 RES2    0.0000
     80 H45        4.6465    0.3418   11.4797 H         2 RES2    0.0000
     81 H46        3.5483   -0.8037   11.6955 H         2 RES2    0.0000
     82 C36       -4.6745   -0.1546    2.1785 C.3       1 RES1    0.0000
     83 H47       -5.1950   -0.5108    2.9412 H         1 RES1    0.0000
     84 H48       -3.8652   -0.7149    2.0807 H         1 RES1    0.0000
     85 C37        4.3583   -0.1328   13.4568 C.3       2 RES2    0.0000
     86 H49        4.7873    0.6938   13.7705 H         2 RES2    0.0000
     87 H50        5.0037   -0.8671   13.4913 H         2 RES2    0.0000
     88 H51        3.5934   -0.3400   14.0324 H         2 RES2    0.0000
     89 C38       -5.5596   -0.2898    0.8432 C.3       1 RES1    0.0000
     90 H52       -6.0870    0.5290    0.7195 H         1 RES1    0.0000
     91 H53       -6.1625   -1.0561    0.9267 H         1 RES1    0.0000
     92 H54       -4.9695   -0.4166    0.0719 H         1 RES1    0.0000
     93 C39       -1.0537    0.7451   10.9041 C.3       2 RES2    0.0000
     94 H55       -1.4481    0.1008   10.2624 H         2 RES2    0.0000
     95 H56       -0.8297    1.5809   10.4235 H         2 RES2    0.0000
     96 C40       -0.4628    1.8296    3.5541 C.3       1 RES1    0.0000
     97 H57       -0.6826    1.0066    4.0606 H         1 RES1    0.0000
     98 H58       -0.0244    2.4697    4.1700 H         1 RES1    0.0000
     99 C41        0.4301    1.5144    2.4030 C.ar      1 RES1    0.0000
    100 C42       -2.0010    1.0169   12.0495 C.ar      2 RES2    0.0000
    101 C43       -2.8845    0.0453   12.4726 C.ar      2 RES2    0.0000
    102 H59       -2.9458   -0.7747   11.9977 H         2 RES2    0.0000
    103 C44        1.3090    2.4594    1.9195 C.ar      1 RES1    0.0000
    104 H60        1.3814    3.3006    2.3541 H         1 RES1    0.0000
    105 C45        2.0707    2.1962    0.8259 C.ar      1 RES1    0.0000
    106 H61        2.6786    2.8556    0.5123 H         1 RES1    0.0000
    107 C46       -3.6840    0.2560   13.5863 C.ar      2 RES2    0.0000
    108 H62       -4.2822   -0.4197   13.8856 H         2 RES2    0.0000
    109 C47       -3.6018    1.4456   14.2539 C.ar      2 RES2    0.0000
    110 H63       -4.1405    1.5972   15.0195 H         2 RES2    0.0000
    111 C48        1.9788    0.9740    0.1583 C.ar      1 RES1    0.0000
    112 H64        2.5095    0.8013   -0.6101 H         1 RES1    0.0000
    113 C49        1.1227    0.0453    0.6216 C.ar      1 RES1    0.0000
    114 H65        1.0494   -0.7928    0.1813 H         1 RES1    0.0000
    115 C50       -2.7313    2.4347   13.8108 C.ar      2 RES2    0.0000
    116 H66       -2.6762    3.2601   14.2799 H         2 RES2    0.0000
    117 C51       -1.9513    2.2221   12.6999 C.ar      2 RES2    0.0000
    118 H67       -1.3774    2.9099   12.3834 H         2 RES2    0.0000
    119 C52        0.3526    0.3001    1.7296 C.ar      1 RES1    0.0000
    120 H68       -0.2457   -0.3671    2.0433 H         1 RES1    0.0000
    121 N1        -2.6761    2.4776    3.9501 N.am      1 RES1    0.0000
    122 N2         1.1060   -0.0115   10.5341 N.am      2 RES2    0.0000
    123 N3         3.7972    1.8888    9.1400 N.2       2 RES2    0.0000
    124 N4        -5.2875    0.4656    5.2523 N.2       1 RES1    0.0000
    125 O1        -4.8959    2.7070    5.4906 O.3       1 RES1    0.0000
    126 O2         3.2549   -0.3285    8.8709 O.3       2 RES2    0.0000
    127 O3        -1.8524    4.4612    4.7329 O.2       1 RES1    0.0000
    128 O4         0.3085   -2.0386   10.0506 O.2       2 RES2    0.0000
    129 O5        -6.2976    0.7168    6.2110 O.3       1 RES1    0.0000
    130 O6         4.7321    1.5959    8.1250 O.3       2 RES2    0.0000
    131 O7         0.1292    0.1805   11.5545 O.3       2 RES2    0.0000
    132 O8        -1.6669    2.4142    2.9872 O.3       1 RES1    0.0000
@<TRIPOS>BOND
     1    1    3 1
     2    2    5 1
     3    3    4 1
     4    5    6 1
     5    7   11 1
     6    8    9 1
     7    9   10 1
     8   11   12 1
     9   13    5 1
    10   14   13 1
    11   15    3 1
    12   16   15 1
    13   17   15 1
    14   18   17 1
    15   19   17 1
    16   20   17 1
    17   21   13 1
    18   22   21 1
    19   23   21 1
    20   24   21 1
    21   25   13 1
    22   26   25 1
    23   27   25 1
    24   28   15 1
    25   29   28 1
    26   30   28 1
    27   31   25 1
    28   32   31 1
    29   33   31 1
    30   34   31 1
    31   35   28 1
    32   36   35 1
    33   37   35 1
    34   38   35 1
    35   39   40 1
    36   41   39 1
    37   42   43 1
    38   44   42 1
    39   45   39 1
    40   46   42 1
    41   47   46 ar
    42   48   47 1
    43   49   45 ar
    44   50   49 1
    45   51   49 ar
    46   52   51 1
    47   53   47 ar
    48   54   53 1
    49   55   51 ar
    50   56   55 1
    51   57   53 ar
    52   58   57 1
    53   59   55 ar
    54   60   59 1
    55   61   57 ar
    56   62   61 1
    57   63   46 ar
    58   64   63 1
    59   65   45 ar
    60   66   65 1
    61   67    9 1
    62   68   67 1
    63   69   11 1
    64   70   69 1
    65   71   67 1
    66   72   71 1
    67   73   71 1
    68   74   71 1
    69   75   69 1
    70   76   75 1
    71   77   75 1
    72   78   75 1
    73   79   67 1
    74   80   79 1
    75   81   79 1
    76   82   69 1
    77   83   82 1
    78   84   82 1
    79   85   79 1
    80   86   85 1
    81   87   85 1
    82   88   85 1
    83   89   82 1
    84   90   89 1
    85   91   89 1
    86   92   89 1
    87   93   94 1
    88   95   93 1
    89   96   97 1
    90   98   96 1
    91   99   96 1
    92  100   93 1
    93  101  100 ar
    94  102  101 1
    95  103   99 ar
    96  104  103 1
    97  105  103 ar
    98  106  105 1
    99  107  101 ar
   100  108  107 1
   101  109  107 ar
   102  110  109 1
   103  111  105 ar
   104  112  111 1
   105  113  111 ar
   106  114  113 1
   107  115  109 ar
   108  116  115 1
   109  117  100 ar
   110  118  117 1
   111  119   99 ar
   112  120  119 1
   113  121    1 1
   114  122    2 1
   115  123    8 2
   116  124    7 2
   117  125    3 1
   118  126    5 1
   119  127    1 2
   120  128    2 2
   121  129   42 1
   122  130   39 1
   123  131   93 1
   124  132   96 1
   125    7  125 1
   126    8  126 1
   127    9  122 1
   128   11  121 1
   129   59   65 ar
   130   61   63 ar
   131  113  119 ar
   132  115  117 ar
   133  121  132 1
   134  122  131 1
   135  123  130 1
   136  124  129 1
@<TRIPOS>SUBSTRUCTURE
     1 RES1 1
     2 RES2 2

@<TRIPOS>CRYSIN
  13.7524    6.0384   28.9380  90.0000  96.0200  90.0000   4 1

