# MOL2 file generated by ConQuest
# Please check atom types

@<TRIPOS>MOLECULE
EYOVIX
    20    22     1
SMALL
NO_CHARGES
****
Generated from CSD

@<TRIPOS>ATOM
      1 O1         5.9880    3.8908    9.9406 O.3       1 RES1    0.0000
      2 O2         8.6245    0.6262   10.9705 O.3       1 RES1    0.0000
      3 O3         3.9132    4.0200    8.2897 O.2       1 RES1    0.0000
      4 O4         5.8025   -0.5865    6.2936 O.3       1 RES1    0.0000
      5 O5         4.6418    3.3711    6.3766 O.2       1 RES1    0.0000
      6 N1         7.9323    1.8162   10.9438 N.2       1 RES1    0.0000
      7 N2         8.2763   -0.2130    9.9287 N.2       1 RES1    0.0000
      8 N3         4.6283    3.3342    7.5992 N.pl3     1 RES1    0.0000
      9 N4         5.2603    0.6901    6.4300 N.2       1 RES1    0.0000
     10 C1         6.2168    2.7165    9.3760 C.2       1 RES1    0.0000
     11 C2         7.1555    1.7267    9.8843 C.2       1 RES1    0.0000
     12 C3         7.3749    0.4785    9.2737 C.2       1 RES1    0.0000
     13 N5         6.6776   -0.8946    7.3102 N.2       1 RES1    0.0000
     14 C4         5.8008    1.1474    7.5310 C.2       1 RES1    0.0000
     15 C5         5.5542    2.4026    8.2142 C.2       1 RES1    0.0000
     16 C6         6.6683    0.1718    8.0586 C.2       1 RES1    0.0000
     17 C7         6.7335    4.3537   11.0831 C.3       1 RES1    0.0000
     18 H1         6.3540    5.1262   11.3365 H         1 RES1    0.0000
     19 H2         7.6163    4.4304   10.8623 H         1 RES1    0.0000
     20 H3         6.7522    3.6352   11.6922 H         1 RES1    0.0000
@<TRIPOS>BOND
     1    1   10 1
     2    2    6 1
     3    3    8 2
     4    4    9 1
     5    5    8 2
     6    6   11 2
     7    7    2 1
     8    8   15 1
     9    9   14 2
    10   10   11 1
    11   11   12 1
    12   12    7 2
    13   13    4 1
    14   14   15 1
    15   15   10 2
    16   16   12 1
    17   17    1 1
    18   18   17 1
    19   19   17 1
    20   20   17 1
    21   13   16 2
    22   14   16 1
@<TRIPOS>SUBSTRUCTURE
     1 RES1 1

@<TRIPOS>CRYSIN
   8.4720   14.2000   14.8190  90.0000  90.0000  90.0000  61 1

