# MOL2 file generated by ConQuest
# Please check atom types

@<TRIPOS>MOLECULE
EYOVET
    18    20     1
SMALL
NO_CHARGES
****
Generated from CSD

@<TRIPOS>ATOM
      1 O1        11.4311    3.6458    2.9984 O.3       1 RES1    0.0000
      2 O2         7.8336   -0.6593    1.5351 O.3       1 RES1    0.0000
      3 O3         8.6087   -0.4627    5.5857 O.3       1 RES1    0.0000
      4 N1        11.0270    2.9686    4.1413 N.2       1 RES1    0.0000
      5 N2        10.8683    3.0988    1.8468 N.2       1 RES1    0.0000
      6 N3         8.1672   -0.7610    4.3125 N.2       1 RES1    0.0000
      7 N4         9.4470    0.6287    5.6018 N.2       1 RES1    0.0000
      8 C1         9.3343    1.2153    1.4751 C.2       1 RES1    0.0000
      9 C2         8.6388    0.2503    2.0999 C.2       1 RES1    0.0000
     10 C3         8.7328    0.1207    3.5501 C.2       1 RES1    0.0000
     11 C4         9.5272    0.9781    4.3550 C.2       1 RES1    0.0000
     12 C5        10.2574    2.0305    3.6891 C.2       1 RES1    0.0000
     13 C6        10.1410    2.1033    2.2755 C.2       1 RES1    0.0000
     14 C7         7.6565   -0.5844    0.1112 C.3       1 RES1    0.0000
     15 H1         9.2130    1.2490    0.4683 H         1 RES1    0.0000
     16 H2         8.4409   -0.5375   -0.3219 H         1 RES1    0.0000
     17 H3         7.3533   -1.2068   -0.1902 H         1 RES1    0.0000
     18 H4         7.3036    0.3636   -0.1463 H         1 RES1    0.0000
@<TRIPOS>BOND
     1    1    4 1
     2    2    9 1
     3    3    6 1
     4    4   12 2
     5    5    1 1
     6    6   10 2
     7    7    3 1
     8    8    9 2
     9    9   10 1
    10   10   11 1
    11   11    7 2
    12   12   11 1
    13   13    5 2
    14   14    2 1
    15   15    8 1
    16   16   14 1
    17   17   14 1
    18   18   14 1
    19    8   13 1
    20   12   13 1
@<TRIPOS>SUBSTRUCTURE
     1 RES1 1

@<TRIPOS>CRYSIN
  10.4250    5.2700   14.8790  90.0000 100.4200  90.0000 231 1

