# MOL2 file generated by ConQuest
# Please check atom types

@<TRIPOS>MOLECULE
EYUFIN
    36    30     2
SMALL
NO_CHARGES
****
Generated from CSD

@<TRIPOS>ATOM
      1 O1         4.3280    2.4870    2.2064 O.2       1 RES1    0.0000
      2 O2         7.0652   -0.7467    3.9059 O.2       1 RES1    0.0000
      3 O3         3.7011    2.9089    6.7113 O.2       1 RES1    0.0000
      4 O4         7.2987   -1.2927    8.5521 O.3       1 RES1    0.0000
      5 O5         6.1041   -0.3653    9.7139 Du        2 SUP2    0.0000
      6 O6         8.3433   -0.7106   10.2625 O.2       1 RES1    0.0000
      7 O7         7.9922   -0.3229   10.8462 Du        2 SUP2    0.0000
      8 O8         6.2662   -0.3472   10.3083 O.2       1 RES1    0.0000
      9 O9         8.0178   -0.9512    8.8018 Du        2 SUP2    0.0000
     10 N1         5.0960    1.8250    5.4858 N.3       1 RES1    0.0000
     11 N2         4.4636    2.9463    5.7583 N.2       1 RES1    0.0000
     12 N3         7.3840   -0.6426    9.7938 N.pl3     1 RES1    0.0000
     13 N4         5.7213    1.0269    3.3126 N.am      1 RES1    0.0000
     14 C1         4.8888    1.4143    2.2519 C.2       1 RES1    0.0000
     15 C2         4.8320    0.2836    1.2708 C.3       1 RES1    0.0000
     16 C3         5.7865   -0.7822    1.8137 C.3       1 RES1    0.0000
     17 C4         6.2847   -0.2362    3.1209 C.2       1 RES1    0.0000
     18 C5         6.0664    1.8792    4.4252 C.3       1 RES1    0.0000
     19 C6         4.8927    0.6208    6.2863 C.3       1 RES1    0.0000
     20 C7         5.8668    0.5803    7.4474 C.3       1 RES1    0.0000
     21 C8         6.0209   -0.9667    7.8893 C.3       1 RES1    0.0000
     22 C9         5.4388   -0.4924    8.4428 Du        2 SUP2    0.0000
     23 H1         3.7315    0.0277    1.2791 H         1 RES1    0.0000
     24 H2         5.4264    0.4947    0.6598 H         1 RES1    0.0000
     25 H3         6.5430   -0.9065    1.1815 H         1 RES1    0.0000
     26 H4         5.3654   -1.6339    1.9089 H         1 RES1    0.0000
     27 H5         6.0668    2.6133    3.9627 H         1 RES1    0.0000
     28 H6         7.0333    1.6550    4.7061 H         1 RES1    0.0000
     29 H7         4.9882    0.0317    5.8955 H         1 RES1    0.0000
     30 H8         3.8879    0.5359    6.8673 H         1 RES1    0.0000
     31 H9         6.7260    1.0154    7.0851 H         1 RES1    0.0000
     32 H10        5.5533    1.1539    8.1725 H         1 RES1    0.0000
     33 H11        5.1353   -1.1489    8.4923 H         1 RES1    0.0000
     34 H12        5.7269   -1.5328    7.1022 H         1 RES1    0.0000
     35 H13        4.5235   -0.5001    8.5732 Du        2 SUP2    0.0000
     36 H14        5.7076   -1.3686    8.0738 Du        2 SUP2    0.0000
@<TRIPOS>BOND
     1    1   14 2
     2    2   17 2
     3    3   11 2
     4    4   12 1
     5    6   12 2
     6    8   12 2
     7   10   11 1
     8   13   14 1
     9   14   15 1
    10   15   16 1
    11   16   17 1
    12   17   13 1
    13   18   10 1
    14   19   10 1
    15   20   19 1
    16   21    4 1
    17   23   15 1
    18   24   15 1
    19   25   16 1
    20   26   16 1
    21   27   18 1
    22   28   18 1
    23   29   19 1
    24   30   19 1
    25   31   20 1
    26   32   20 1
    27   33   21 1
    28   34   21 1
    29   13   18 1
    30   20   21 1
@<TRIPOS>SUBSTRUCTURE
     1 RES1 1
     2 SUP2 5

@<TRIPOS>CRYSIN
   9.1800    6.2330   10.7300  90.0000 104.1600  90.0000   4 1

