# MOL2 file generated by ConQuest
# Please check atom types

@<TRIPOS>MOLECULE
EYUFEJ
    36    37     1
SMALL
NO_CHARGES
****
Generated from CSD

@<TRIPOS>ATOM
      1 O1         7.8815    1.5913    5.9003 O.2       1 RES1    0.0000
      2 O2        10.2815    1.4450    4.1791 O.2       1 RES1    0.0000
      3 O3         4.2248    6.8649    3.9468 O.2       1 RES1    0.0000
      4 O4         3.8429    5.3662    5.3812 O.2       1 RES1    0.0000
      5 O5        11.8328    6.3059    1.2947 O.2       1 RES1    0.0000
      6 O6        14.6043    4.7471    1.5181 O.3       1 RES1    0.0000
      7 O7        15.4620    6.3345    0.3469 O.2       1 RES1    0.0000
      8 O8        14.2905    4.8615   -0.6836 O.2       1 RES1    0.0000
      9 N1         4.5422    5.8663    4.5296 N.pl3     1 RES1    0.0000
     10 N2         9.2848    3.2838    3.1832 N.am      1 RES1    0.0000
     11 N3        11.1077    4.5168    2.2185 N.3       1 RES1    0.0000
     12 N4        10.9620    5.5085    1.3278 N.2       1 RES1    0.0000
     13 N5        14.7868    5.3336    0.2830 N.pl3     1 RES1    0.0000
     14 C1         5.7944    5.2124    4.1696 C.ar      1 RES1    0.0000
     15 C2         6.4942    5.7263    3.1188 C.ar      1 RES1    0.0000
     16 C3         7.7026    5.1484    2.7086 C.ar      1 RES1    0.0000
     17 C4         8.1202    4.0515    3.4124 C.ar      1 RES1    0.0000
     18 C5         7.4098    3.5245    4.5010 C.ar      1 RES1    0.0000
     19 C6         6.1955    4.1281    4.8794 C.ar      1 RES1    0.0000
     20 C7         8.1376    2.3813    5.0258 C.2       1 RES1    0.0000
     21 C8         9.4026    2.2681    4.1134 C.2       1 RES1    0.0000
     22 C9        10.1602    3.4445    2.0428 C.3       1 RES1    0.0000
     23 C10       12.1929    4.4453    3.2119 C.3       1 RES1    0.0000
     24 C11       13.2175    3.3947    2.8748 C.3       1 RES1    0.0000
     25 C12       13.8210    3.5182    1.5095 C.3       1 RES1    0.0000
     26 H1         6.1854    6.4476    2.6711 H         1 RES1    0.0000
     27 H2         8.1534    5.6303    2.0757 H         1 RES1    0.0000
     28 H3         5.6797    3.9498    5.4673 H         1 RES1    0.0000
     29 H4         9.8427    3.7726    1.0301 H         1 RES1    0.0000
     30 H5        10.6726    2.6751    1.9709 H         1 RES1    0.0000
     31 H6        12.4918    5.3102    3.2761 H         1 RES1    0.0000
     32 H7        11.8792    4.2013    4.0144 H         1 RES1    0.0000
     33 H8        12.8465    2.5836    3.1510 H         1 RES1    0.0000
     34 H9        13.9490    3.5268    3.7524 H         1 RES1    0.0000
     35 H10       14.2974    2.6980    1.2123 H         1 RES1    0.0000
     36 H11       13.2220    3.6182    0.5835 H         1 RES1    0.0000
@<TRIPOS>BOND
     1    1   20 2
     2    2   21 2
     3    3    9 2
     4    4    9 2
     5    5   12 2
     6    6   13 1
     7    7   13 2
     8    8   13 2
     9    9   14 1
    10   10   17 1
    11   11   12 1
    12   14   15 ar
    13   15   16 ar
    14   16   17 ar
    15   17   18 ar
    16   18   19 ar
    17   19   14 ar
    18   20   18 1
    19   21   10 1
    20   22   10 1
    21   23   11 1
    22   24   23 1
    23   25    6 1
    24   26   15 1
    25   27   16 1
    26   28   19 1
    27   29   22 1
    28   30   22 1
    29   31   23 1
    30   32   23 1
    31   33   24 1
    32   34   24 1
    33   35   25 1
    34   36   25 1
    35   11   22 1
    36   20   21 1
    37   24   25 1
@<TRIPOS>SUBSTRUCTURE
     1 RES1 1

@<TRIPOS>CRYSIN
  10.8870    5.7160   12.4750  90.0000 107.3300  90.0000   4 1

