# MOL2 file generated by ConQuest
# Please check atom types

@<TRIPOS>MOLECULE
EZAHAO
    51    51     1
SMALL
NO_CHARGES
****
Generated from CSD

@<TRIPOS>ATOM
      1 C1         0.0171    4.5425    5.3597 C.2       1 RES1    0.0000
      2 C2         1.2166    3.6607    5.6412 C.3       1 RES1    0.0000
      3 H1         1.2455    2.9238    4.9812 H         1 RES1    0.0000
      4 H2         1.1265    3.2613    6.5423 H         1 RES1    0.0000
      5 C3         2.5097    4.4564    5.5671 C.3       1 RES1    0.0000
      6 H3         2.4209    5.2549    6.1446 H         1 RES1    0.0000
      7 H4         2.6302    4.7739    4.6365 H         1 RES1    0.0000
      8 C4         3.7703    3.6908    5.9869 C.3       1 RES1    0.0000
      9 C5         3.9378    2.4189    5.1710 C.3       1 RES1    0.0000
     10 H5         4.7824    1.9857    5.4116 H         1 RES1    0.0000
     11 H6         3.9452    2.6411    4.2170 H         1 RES1    0.0000
     12 H7         3.1939    1.8096    5.3586 H         1 RES1    0.0000
     13 C6         4.9967    4.5875    5.7957 C.3       1 RES1    0.0000
     14 H8         4.8990    5.3946    6.3442 H         1 RES1    0.0000
     15 H9         5.0722    4.8406    4.8517 H         1 RES1    0.0000
     16 H10        5.8027    4.1019    6.0697 H         1 RES1    0.0000
     17 C7        -2.3813    4.8651    5.4200 C.3       1 RES1    0.0000
     18 H11       -2.7238    5.1432    6.2959 H         1 RES1    0.0000
     19 H12       -3.0725    4.3556    4.9469 H         1 RES1    0.0000
     20 H13       -2.1441    5.6579    4.8954 H         1 RES1    0.0000
     21 C8        -1.4436    2.7141    6.1426 C.3       1 RES1    0.0000
     22 H14       -0.6826    2.1328    5.9340 H         1 RES1    0.0000
     23 H15       -2.2589    2.3414    5.7453 H         1 RES1    0.0000
     24 H16       -1.5527    2.7745    7.1146 H         1 RES1    0.0000
     25 C9         3.4145    4.3641    8.4714 C.3       1 RES1    0.0000
     26 H17        3.5832    5.2561    8.0519 H         1 RES1    0.0000
     27 C10        4.3935    4.2148    9.6551 C.3       1 RES1    0.0000
     28 H18        4.1808    3.3633   10.1354 H         1 RES1    0.0000
     29 C11        4.1859    5.3741   10.6191 C.3       1 RES1    0.0000
     30 H19        4.7571    5.2509   11.4065 H         1 RES1    0.0000
     31 H20        3.2462    5.4031   10.8981 H         1 RES1    0.0000
     32 H21        4.4196    6.2153   10.1744 H         1 RES1    0.0000
     33 C12        5.8348    4.1612    9.1997 C.3       1 RES1    0.0000
     34 H22        6.0483    4.9740    8.6944 H         1 RES1    0.0000
     35 H23        5.9677    3.3770    8.6274 H         1 RES1    0.0000
     36 H24        6.4218    4.0985    9.9810 H         1 RES1    0.0000
     37 C13        1.9601    4.3286    8.8916 C.ar      1 RES1    0.0000
     38 C14        1.1220    5.4008    8.6082 C.ar      1 RES1    0.0000
     39 H25        1.4745    6.1708    8.1782 H         1 RES1    0.0000
     40 C15       -0.2185    5.3604    8.9449 C.ar      1 RES1    0.0000
     41 H26       -0.7825    6.0956    8.7334 H         1 RES1    0.0000
     42 C16       -0.7428    4.2547    9.5884 C.ar      1 RES1    0.0000
     43 H27       -1.6637    4.2279    9.8220 H         1 RES1    0.0000
     44 C17        0.0834    3.1883    9.8881 C.ar      1 RES1    0.0000
     45 H28       -0.2726    2.4274   10.3319 H         1 RES1    0.0000
     46 C18        1.4214    3.2191    9.5475 C.ar      1 RES1    0.0000
     47 H29        1.9787    2.4804    9.7612 H         1 RES1    0.0000
     48 N1        -1.2040    4.0330    5.6016 N.am      1 RES1    0.0000
     49 N2         3.6699    3.3318    7.4382 N.3       1 RES1    0.0000
     50 O1         0.1650    5.6817    4.9186 O.2       1 RES1    0.0000
     51 O2         3.6895    2.1041    7.8072 O.2       1 RES1    0.0000
@<TRIPOS>BOND
     1    1    2 1
     2    2    3 1
     3    4    2 1
     4    5    2 1
     5    6    5 1
     6    7    5 1
     7    8    5 1
     8    9    8 1
     9   10    9 1
    10   11    9 1
    11   12    9 1
    12   13    8 1
    13   14   13 1
    14   15   13 1
    15   16   13 1
    16   17   18 1
    17   19   17 1
    18   20   17 1
    19   21   22 1
    20   23   21 1
    21   24   21 1
    22   25   26 1
    23   27   25 1
    24   28   27 1
    25   29   27 1
    26   30   29 1
    27   31   29 1
    28   32   29 1
    29   33   27 1
    30   34   33 1
    31   35   33 1
    32   36   33 1
    33   37   25 1
    34   38   37 ar
    35   39   38 1
    36   40   38 ar
    37   41   40 1
    38   42   40 ar
    39   43   42 1
    40   44   42 ar
    41   45   44 1
    42   46   37 ar
    43   47   46 1
    44   48    1 1
    45   49    8 1
    46   50    1 2
    47   51   49 1
    48   17   48 1
    49   21   48 1
    50   25   49 1
    51   44   46 ar
@<TRIPOS>SUBSTRUCTURE
     1 RES1 1

@<TRIPOS>CRYSIN
  19.8700    5.6995   16.7793  90.0000 111.6520  90.0000  14 1

