# MOL2 file generated by ConQuest
# Please check atom types

@<TRIPOS>MOLECULE
EZAROM
    40    43     1
SMALL
NO_CHARGES
****
Generated from CSD

@<TRIPOS>ATOM
      1 O1         5.1323    1.5860    4.4452 O.3       1 RES1    0.0000
      2 O2         4.2415    5.3580    6.2081 O.3       1 RES1    0.0000
      3 N1         4.9610    3.0175    4.5530 N.3       1 RES1    0.0000
      4 C1         3.8419    0.9396    4.6348 C.3       1 RES1    0.0000
      5 C2         2.8750    2.0583    4.9598 C.3       1 RES1    0.0000
      6 C3         2.2117    2.6495    3.7029 C.3       1 RES1    0.0000
      7 C4         3.0158    3.8553    3.2425 C.3       1 RES1    0.0000
      8 C5         2.8017    4.9703    4.2323 C.3       1 RES1    0.0000
      9 C6         3.2623    4.4846    5.6024 C.3       1 RES1    0.0000
     10 C7         3.8552    3.0936    5.5150 C.3       1 RES1    0.0000
     11 C8         4.4890    3.5266    3.2278 C.3       1 RES1    0.0000
     12 C9         4.0189   -0.1239    5.6849 C.3       1 RES1    0.0000
     13 C10        3.7391    6.2326    7.0329 C.3       1 RES1    0.0000
     14 C11        4.7421    7.2335    7.5487 C.ar      1 RES1    0.0000
     15 C12        5.4283    6.9771    8.7169 C.ar      1 RES1    0.0000
     16 C13        6.2629    7.9302    9.2413 C.ar      1 RES1    0.0000
     17 C14        6.4009    9.0894    8.6640 C.ar      1 RES1    0.0000
     18 C15        5.7242    9.3850    7.5610 C.ar      1 RES1    0.0000
     19 C16        4.9087    8.4859    6.9812 C.ar      1 RES1    0.0000
     20 H1         3.5583    0.4882    3.8359 H         1 RES1    0.0000
     21 H2         2.1936    1.7737    5.5741 H         1 RES1    0.0000
     22 H3         2.1964    1.9884    3.0074 H         1 RES1    0.0000
     23 H4         1.3133    2.9182    3.9085 H         1 RES1    0.0000
     24 H5         2.7332    4.1387    2.3710 H         1 RES1    0.0000
     25 H6         3.3127    5.7394    3.9688 H         1 RES1    0.0000
     26 H7         1.8691    5.1973    4.2520 H         1 RES1    0.0000
     27 H8         2.5076    4.4527    6.1945 H         1 RES1    0.0000
     28 H9         4.1159    2.8446    6.4050 H         1 RES1    0.0000
     29 H10        4.9857    4.3104    2.9840 H         1 RES1    0.0000
     30 H11        4.6260    2.8421    2.5679 H         1 RES1    0.0000
     31 H12        3.1843   -0.5741    5.8289 H         1 RES1    0.0000
     32 H13        4.3186    0.2686    6.5085 H         1 RES1    0.0000
     33 H14        4.6727   -0.7532    5.3734 H         1 RES1    0.0000
     34 H15        3.0291    6.7159    6.6032 H         1 RES1    0.0000
     35 H16        3.3917    5.7677    7.7973 H         1 RES1    0.0000
     36 H17        5.3198    6.1307    9.1576 H         1 RES1    0.0000
     37 H18        6.7435    7.7303   10.0489 H         1 RES1    0.0000
     38 H19        6.9890    9.7432    9.0505 H         1 RES1    0.0000
     39 H20        5.8308   10.2326    7.1240 H         1 RES1    0.0000
     40 H21        4.4090    8.7300    6.1982 H         1 RES1    0.0000
@<TRIPOS>BOND
     1    1    3 1
     2    2    9 1
     3    3   10 1
     4    4    1 1
     5    5    4 1
     6    6    5 1
     7    7    6 1
     8    8    7 1
     9    9    8 1
    10   10    5 1
    11   11    3 1
    12   12    4 1
    13   13    2 1
    14   14   13 1
    15   15   14 ar
    16   16   15 ar
    17   17   16 ar
    18   18   17 ar
    19   19   14 ar
    20   20    4 1
    21   21    5 1
    22   22    6 1
    23   23    6 1
    24   24    7 1
    25   25    8 1
    26   26    8 1
    27   27    9 1
    28   28   10 1
    29   29   11 1
    30   30   11 1
    31   31   12 1
    32   32   12 1
    33   33   12 1
    34   34   13 1
    35   35   13 1
    36   36   15 1
    37   37   16 1
    38   38   17 1
    39   39   18 1
    40   40   19 1
    41    7   11 1
    42    9   10 1
    43   18   19 ar
@<TRIPOS>SUBSTRUCTURE
     1 RES1 1

@<TRIPOS>CRYSIN
   9.5166   12.2664   12.3103  90.0000  90.0000  90.0000  19 1

