# MOL2 file generated by ConQuest
# Please check atom types

@<TRIPOS>MOLECULE
EZAYAF
    32    33     1
SMALL
NO_CHARGES
****
Generated from CSD

@<TRIPOS>ATOM
      1 O1         7.3118    0.4637    5.0835 O.2       1 RES1    0.0000
      2 N1         8.1677    2.4279    4.3480 N.am      1 RES1    0.0000
      3 H1         8.0990    3.2837    4.3972 H         1 RES1    0.0000
      4 C1        11.4803    1.9595    2.8658 C.ar      1 RES1    0.0000
      5 H2        12.3336    2.3218    2.9463 H         1 RES1    0.0000
      6 C2        10.4753    2.4251    3.6643 C.ar      1 RES1    0.0000
      7 H3        10.6473    3.0855    4.2955 H         1 RES1    0.0000
      8 C3         5.3848    1.8897    6.5915 C.ar      1 RES1    0.0000
      9 N2         6.4020    2.4288    5.7761 N.am      1 RES1    0.0000
     10 H4         6.4616    3.2851    5.7231 H         1 RES1    0.0000
     11 N3         2.2671    0.4679    9.0125 N.pl3     1 RES1    0.0000
     12 C4        11.2526    0.9507    1.9338 C.ar      1 RES1    0.0000
     13 C5         9.1817    1.9009    3.5224 C.ar      1 RES1    0.0000
     14 C6         4.6125    0.4451    8.3263 C.ar      1 RES1    0.0000
     15 H5         4.7801   -0.2135    8.9617 H         1 RES1    0.0000
     16 C7         8.9445    0.9014    2.5926 C.ar      1 RES1    0.0000
     17 H6         8.0887    0.5498    2.4930 H         1 RES1    0.0000
     18 C8         7.2985    1.6860    5.0665 C.2       1 RES1    0.0000
     19 C9         5.6360    0.9121    7.5150 C.ar      1 RES1    0.0000
     20 H7         6.4932    0.5600    7.5976 H         1 RES1    0.0000
     21 C10        3.3553    0.9656    8.1822 C.ar      1 RES1    0.0000
     22 C11       12.3446    0.4702    1.1226 C.1       1 RES1    0.0000
     23 C12        3.0904    1.9325    7.2778 C.ar      1 RES1    0.0000
     24 H8         2.2293    2.2749    7.1931 H         1 RES1    0.0000
     25 C13        9.9758    0.4330    1.8152 C.ar      1 RES1    0.0000
     26 H9         9.8131   -0.2446    1.2010 H         1 RES1    0.0000
     27 C14        4.1185    2.4093    6.4751 C.ar      1 RES1    0.0000
     28 H10        3.9495    3.0823    5.8566 H         1 RES1    0.0000
     29 O2         2.4949   -0.4451    9.7729 O.2       1 RES1    0.0000
     30 O3         1.1867    1.0167    8.9342 O.2       1 RES1    0.0000
     31 C15       13.2585    0.0888    0.5062 C.1       1 RES1    0.0000
     32 H11       13.9860   -0.2153    0.0127 H         1 RES1    0.0000
@<TRIPOS>BOND
     1    1   18 2
     2    2    3 1
     3    4    5 1
     4    6    4 ar
     5    7    6 1
     6    8    9 1
     7    9   10 1
     8   11   21 1
     9   12    4 ar
    10   13    2 1
    11   14   15 1
    12   16   13 ar
    13   17   16 1
    14   18    2 1
    15   19    8 ar
    16   20   19 1
    17   21   14 ar
    18   22   12 1
    19   23   21 ar
    20   24   23 1
    21   25   12 ar
    22   26   25 1
    23   27    8 ar
    24   28   27 1
    25   29   11 2
    26   30   11 2
    27   31   22 3
    28   32   31 1
    29    6   13 ar
    30    9   18 1
    31   14   19 ar
    32   16   25 ar
    33   23   27 ar
@<TRIPOS>SUBSTRUCTURE
     1 RES1 1

@<TRIPOS>CRYSIN
  13.4220    4.6511   21.2610  90.0000  94.9700  90.0000   9 1

