# MOL2 file generated by ConQuest
# Please check atom types

@<TRIPOS>MOLECULE
EZETAF
    35    37     1
SMALL
NO_CHARGES
****
Generated from CSD

@<TRIPOS>ATOM
      1 O1         4.5000    0.2028    6.0751 O.2       1 RES1    0.0000
      2 O2         6.0200    1.2154    7.1833 O.2       1 RES1    0.0000
      3 O3         1.3800    5.2868    8.6052 O.3       1 RES1    0.0000
      4 N1         2.3220    1.5315    4.6197 N.pl3     1 RES1    0.0000
      5 N2         1.2736    0.7369    4.2659 N.2       1 RES1    0.0000
      6 N3         5.3237    1.0648    6.1752 N.pl3     1 RES1    0.0000
      7 C1         1.7337    0.0279    3.2445 C.2       1 RES1    0.0000
      8 C2         3.0610    0.3533    2.9174 C.2       1 RES1    0.0000
      9 C3         3.4050    1.3113    3.8453 C.2       1 RES1    0.0000
     10 C4         4.6864    2.0531    3.9655 C.ar      1 RES1    0.0000
     11 C5         5.5786    1.9718    5.0537 C.ar      1 RES1    0.0000
     12 C6         6.7381    2.7282    5.1004 C.ar      1 RES1    0.0000
     13 C7         7.0330    3.5781    4.0523 C.ar      1 RES1    0.0000
     14 C8         6.1959    3.6765    2.9775 C.ar      1 RES1    0.0000
     15 C9         5.0175    2.9140    2.9307 C.ar      1 RES1    0.0000
     16 C10        2.1370    2.4647    5.6812 C.ar      1 RES1    0.0000
     17 C11        2.5981    3.7712    5.5610 C.ar      1 RES1    0.0000
     18 C12        2.3450    4.6684    6.5691 C.ar      1 RES1    0.0000
     19 C13        1.6138    4.3018    7.6840 C.ar      1 RES1    0.0000
     20 C14        1.1611    2.9880    7.8108 C.ar      1 RES1    0.0000
     21 C15        1.4462    2.0762    6.8094 C.ar      1 RES1    0.0000
     22 C16        0.4151    5.0473    9.6066 C.3       1 RES1    0.0000
     23 H1         1.1780   -0.6876    2.7030 H         1 RES1    0.0000
     24 H2         3.6481   -0.0392    2.1187 H         1 RES1    0.0000
     25 H3         7.3744    2.6532    5.8837 H         1 RES1    0.0000
     26 H4         7.8949    4.1487    4.0492 H         1 RES1    0.0000
     27 H5         6.4204    4.3199    2.1532 H         1 RES1    0.0000
     28 H6         4.3848    2.9914    2.0730 H         1 RES1    0.0000
     29 H7         3.1298    4.0673    4.6842 H         1 RES1    0.0000
     30 H8         2.7128    5.6399    6.4590 H         1 RES1    0.0000
     31 H9         0.6178    2.6998    8.6108 H         1 RES1    0.0000
     32 H10        1.1395    1.0902    6.8762 H         1 RES1    0.0000
     33 H11        0.2554    5.9196   10.1125 H         1 RES1    0.0000
     34 H12        0.7605    4.3012   10.2103 H         1 RES1    0.0000
     35 H13       -0.4743    4.7417    9.1306 H         1 RES1    0.0000
@<TRIPOS>BOND
     1    1    6 2
     2    2    6 2
     3    3   19 1
     4    4    5 1
     5    5    7 2
     6    6   11 1
     7    7    8 1
     8    8    9 2
     9    9    4 1
    10   10    9 1
    11   11   10 ar
    12   12   11 ar
    13   13   12 ar
    14   14   13 ar
    15   15   10 ar
    16   16    4 1
    17   17   16 ar
    18   18   17 ar
    19   19   18 ar
    20   20   19 ar
    21   21   16 ar
    22   22    3 1
    23   23    7 1
    24   24    8 1
    25   25   12 1
    26   26   13 1
    27   27   14 1
    28   28   15 1
    29   29   17 1
    30   30   18 1
    31   31   20 1
    32   32   21 1
    33   33   22 1
    34   34   22 1
    35   35   22 1
    36   14   15 ar
    37   20   21 ar
@<TRIPOS>SUBSTRUCTURE
     1 RES1 1

@<TRIPOS>CRYSIN
  17.5869   12.1416    6.6759  90.0000  90.0000  90.0000  33 1

