# MOL2 file generated by ConQuest
# Please check atom types

@<TRIPOS>MOLECULE
EZUDUY
    45    45     1
SMALL
NO_CHARGES
****
Generated from CSD

@<TRIPOS>ATOM
      1 O1         2.4527   -0.3681    5.3181 O.2       1 RES1    0.0000
      2 O2         0.3704    1.5058    8.5042 O.3       1 RES1    0.0000
      3 O3         0.3328    3.2078   10.5995 O.2       1 RES1    0.0000
      4 N1         2.9112    1.7179    4.6617 N.am      1 RES1    0.0000
      5 N2         0.3982    1.1034    9.8310 N.am      1 RES1    0.0000
      6 C1         2.2516    0.8440    5.3962 C.2       1 RES1    0.0000
      7 C2         1.2219    1.3937    6.3402 C.3       1 RES1    0.0000
      8 H1         0.3497    1.0478    6.0988 H         1 RES1    0.0000
      9 H2         1.1941    2.3599    6.2559 H         1 RES1    0.0000
     10 C3         1.5243    1.0276    7.7773 C.3       1 RES1    0.0000
     11 H3         1.5864    0.0531    7.8631 H         1 RES1    0.0000
     12 C4         2.8012    1.6672    8.2893 C.3       1 RES1    0.0000
     13 H4         2.9599    1.3850    9.1940 H         1 RES1    0.0000
     14 H5         2.7123    2.6227    8.2631 H         1 RES1    0.0000
     15 H6         3.5374    1.3986    7.7365 H         1 RES1    0.0000
     16 C5         3.9770    1.3739    3.7265 C.3       1 RES1    0.0000
     17 H7         3.9874    0.3981    3.6363 H         1 RES1    0.0000
     18 C6         5.3244    1.7966    4.2486 C.3       1 RES1    0.0000
     19 H8         5.4913    1.3556    5.0966 H         1 RES1    0.0000
     20 H9         5.3212    2.7537    4.4057 H         1 RES1    0.0000
     21 C7         6.4410    1.4503    3.2726 C.3       1 RES1    0.0000
     22 H10        7.2808    1.8029    3.6072 H         1 RES1    0.0000
     23 H11        6.5253    0.4860    3.2101 H         1 RES1    0.0000
     24 C8         6.1745    2.0160    1.9010 C.3       1 RES1    0.0000
     25 H12        6.2146    2.9841    1.9389 H         1 RES1    0.0000
     26 H13        6.8619    1.7111    1.2872 H         1 RES1    0.0000
     27 C9         4.8310    1.5937    1.3905 C.3       1 RES1    0.0000
     28 H14        4.8300    0.6348    1.2451 H         1 RES1    0.0000
     29 H15        4.6620    2.0256    0.5382 H         1 RES1    0.0000
     30 C10        3.7249    1.9537    2.3636 C.3       1 RES1    0.0000
     31 H16        3.6597    2.9194    2.4334 H         1 RES1    0.0000
     32 H17        2.8784    1.6208    2.0261 H         1 RES1    0.0000
     33 C11        0.2738    1.9996   10.8056 C.2       1 RES1    0.0000
     34 C12        0.0497    1.4247   12.1713 C.3       1 RES1    0.0000
     35 H18        0.1303    0.4488   12.1306 H         1 RES1    0.0000
     36 C13       -1.3378    1.7928   12.6324 C.3       1 RES1    0.0000
     37 H19       -1.9842    1.4382   12.0172 H         1 RES1    0.0000
     38 H20       -1.4204    2.7488   12.6673 H         1 RES1    0.0000
     39 H21       -1.4925    1.4261   13.5066 H         1 RES1    0.0000
     40 C14        1.0643    1.9691   13.1430 C.3       1 RES1    0.0000
     41 H22        1.9460    1.7160   12.8608 H         1 RES1    0.0000
     42 H23        0.8935    1.6121   14.0171 H         1 RES1    0.0000
     43 H24        0.9994    2.9266   13.1706 H         1 RES1    0.0000
     44 H25        2.8068    2.4155    4.6981 H         1 RES1    0.0000
     45 H26        0.3597    0.3092    9.9489 H         1 RES1    0.0000
@<TRIPOS>BOND
     1    1    6 2
     2    2    5 1
     3    3   33 2
     4    4    6 1
     5    5   33 1
     6    6    7 1
     7    7    8 1
     8    9    7 1
     9   10    2 1
    10   11   10 1
    11   12   10 1
    12   13   12 1
    13   14   12 1
    14   15   12 1
    15   16    4 1
    16   17   16 1
    17   18   16 1
    18   19   18 1
    19   20   18 1
    20   21   18 1
    21   22   21 1
    22   23   21 1
    23   24   21 1
    24   25   24 1
    25   26   24 1
    26   27   24 1
    27   28   27 1
    28   29   27 1
    29   30   16 1
    30   31   30 1
    31   32   30 1
    32   33   34 1
    33   34   35 1
    34   36   34 1
    35   37   36 1
    36   38   36 1
    37   39   36 1
    38   40   34 1
    39   41   40 1
    40   42   40 1
    41   43   40 1
    42   44    4 1
    43   45    5 1
    44    7   10 1
    45   27   30 1
@<TRIPOS>SUBSTRUCTURE
     1 RES1 1

@<TRIPOS>CRYSIN
  11.4690    4.8310   14.5750  90.0000  93.6700  90.0000   4 1

