# MOL2 file generated by ConQuest
# Please check atom types

@<TRIPOS>MOLECULE
EZUFUA
    59    59     1
SMALL
NO_CHARGES
****
Generated from CSD

@<TRIPOS>ATOM
      1 O1         5.0898    4.8618   26.5453 O.2       1 RES1    0.0000
      2 O2         3.7871    3.7306   22.6707 O.3       1 RES1    0.0000
      3 O3         3.9199    5.8873   18.9590 O.3       1 RES1    0.0000
      4 O4         5.6398    5.6845   16.8789 O.2       1 RES1    0.0000
      5 O5         1.9947    5.4975   21.7481 O.2       1 RES1    0.0000
      6 N1         2.9675    5.0867   27.1851 N.am      1 RES1    0.0000
      7 N2         4.1591    4.9452   22.1122 N.am      1 RES1    0.0000
      8 N3         3.5352    5.6839   17.6426 N.am      1 RES1    0.0000
      9 C1         3.8933    4.8862   26.2691 C.2       1 RES1    0.0000
     10 C2         3.4024    4.7359   24.8505 C.3       1 RES1    0.0000
     11 H1         2.4618    4.5006   24.8663 H         1 RES1    0.0000
     12 H2         3.4870    5.5888   24.3974 H         1 RES1    0.0000
     13 C3         4.1466    3.7017   24.0808 C.3       1 RES1    0.0000
     14 H3         5.1129    3.8276   24.1877 H         1 RES1    0.0000
     15 C4         3.7459    2.2877   24.5141 C.3       1 RES1    0.0000
     16 H4         4.2449    1.6434   24.0096 H         1 RES1    0.0000
     17 H5         2.8053    2.1593   24.3558 H         1 RES1    0.0000
     18 H6         3.9277    2.1747   25.4500 H         1 RES1    0.0000
     19 C5         3.2204    5.3514   28.5899 C.3       1 RES1    0.0000
     20 H7         4.1902    5.4252   28.7086 H         1 RES1    0.0000
     21 C6         2.7485    4.2341   29.4328 C.3       1 RES1    0.0000
     22 H8         3.2181    3.4229   29.1795 H         1 RES1    0.0000
     23 H9         1.8028    4.0927   29.2784 H         1 RES1    0.0000
     24 C7         2.9875    4.5117   30.9206 C.3       1 RES1    0.0000
     25 H10        2.6082    3.7903   31.4469 H         1 RES1    0.0000
     26 H11        3.9398    4.5431   31.0947 H         1 RES1    0.0000
     27 C8         2.3611    5.8139   31.3302 C.3       1 RES1    0.0000
     28 H12        1.3955    5.7481   31.2491 H         1 RES1    0.0000
     29 H13        2.5747    5.9987   32.2581 H         1 RES1    0.0000
     30 C9         2.8614    6.9100   30.4715 C.3       1 RES1    0.0000
     31 H14        3.8131    7.0163   30.6159 H         1 RES1    0.0000
     32 H15        2.4261    7.7378   30.7327 H         1 RES1    0.0000
     33 C10        2.6058    6.6638   29.0094 C.3       1 RES1    0.0000
     34 H16        2.9909    7.3850   28.4870 H         1 RES1    0.0000
     35 H17        1.6518    6.6452   28.8432 H         1 RES1    0.0000
     36 C11        3.1942    5.7265   21.6492 C.2       1 RES1    0.0000
     37 C12        3.6772    6.9944   20.9705 C.3       1 RES1    0.0000
     38 H18        3.3118    7.7611   21.4375 H         1 RES1    0.0000
     39 H19        4.6438    7.0391   21.0378 H         1 RES1    0.0000
     40 C13        3.2874    7.0735   19.5321 C.3       1 RES1    0.0000
     41 H20        2.3134    7.0088   19.4451 H         1 RES1    0.0000
     42 C14        3.7809    8.3240   18.8654 C.3       1 RES1    0.0000
     43 H21        3.4974    8.3302   17.9473 H         1 RES1    0.0000
     44 H22        4.7383    8.3516   18.9050 H         1 RES1    0.0000
     45 H23        3.4183    9.0906   19.3165 H         1 RES1    0.0000
     46 C15        4.4416    5.5210   16.6989 C.2       1 RES1    0.0000
     47 C16        3.8648    5.1061   15.3574 C.3       1 RES1    0.0000
     48 H24        2.8864    5.1052   15.4128 H         1 RES1    0.0000
     49 C17        4.3433    3.7166   15.0349 C.3       1 RES1    0.0000
     50 H25        4.0074    3.4534   14.1762 H         1 RES1    0.0000
     51 H26        4.0294    3.1052   15.7037 H         1 RES1    0.0000
     52 H27        5.3049    3.7059   15.0191 H         1 RES1    0.0000
     53 C18        4.3000    6.0658   14.2771 C.3       1 RES1    0.0000
     54 H28        3.9280    5.7914   13.4363 H         1 RES1    0.0000
     55 H29        5.2592    6.0659   14.2178 H         1 RES1    0.0000
     56 H30        3.9931    6.9495   14.4908 H         1 RES1    0.0000
     57 H31        2.2903    5.1314   26.9081 H         1 RES1    0.0000
     58 H32        5.1588    5.1358   21.9618 H         1 RES1    0.0000
     59 H33        2.7735    5.5178   17.5101 H         1 RES1    0.0000
@<TRIPOS>BOND
     1    1    9 2
     2    2    7 1
     3    3    8 1
     4    4   46 2
     5    5   36 2
     6    6    9 1
     7    7   36 1
     8    8   46 1
     9    9   10 1
    10   10   11 1
    11   12   10 1
    12   13    2 1
    13   14   13 1
    14   15   13 1
    15   16   15 1
    16   17   15 1
    17   18   15 1
    18   19    6 1
    19   20   19 1
    20   21   19 1
    21   22   21 1
    22   23   21 1
    23   24   21 1
    24   25   24 1
    25   26   24 1
    26   27   24 1
    27   28   27 1
    28   29   27 1
    29   30   27 1
    30   31   30 1
    31   32   30 1
    32   33   19 1
    33   34   33 1
    34   35   33 1
    35   36   37 1
    36   37   38 1
    37   39   37 1
    38   40    3 1
    39   41   40 1
    40   42   40 1
    41   43   42 1
    42   44   42 1
    43   45   42 1
    44   46   47 1
    45   47   48 1
    46   49   47 1
    47   50   49 1
    48   51   49 1
    49   52   49 1
    50   53   47 1
    51   54   53 1
    52   55   53 1
    53   56   53 1
    54   57    6 1
    55   58    7 1
    56   59    8 1
    57   10   13 1
    58   30   33 1
    59   37   40 1
@<TRIPOS>SUBSTRUCTURE
     1 RES1 1

@<TRIPOS>CRYSIN
   4.8460    5.9490   19.8610  85.0000  88.2300  68.3100   1 1

