# MOL2 file generated by ConQuest
# Please check atom types

@<TRIPOS>MOLECULE
EZUFOU
    47    46     2
SMALL
NO_CHARGES
****
Generated from CSD

@<TRIPOS>ATOM
      1 C1         2.7971    7.4985    6.0800 C.3       1 RES1    0.0000
      2 H1         2.1570    7.7620    6.7738 H         1 RES1    0.0000
      3 C2         2.3542    6.1592    5.4882 C.3       1 RES1    0.0000
      4 H2         2.1704    5.5404    6.2130 H         1 RES1    0.0000
      5 H3         1.5298    6.2896    4.9953 H         1 RES1    0.0000
      6 C3         3.3776    5.5510    4.5758 C.2       1 RES1    0.0000
      7 C4         4.2942    5.7422    2.2771 C.ar      1 RES1    0.0000
      8 C5         3.9475    6.1797    1.0237 C.ar      1 RES1    0.0000
      9 H4         3.1787    6.6909    0.9080 H         1 RES1    0.0000
     10 C6         4.7275    5.8679   -0.0556 C.ar      1 RES1    0.0000
     11 H5         4.4701    6.1671   -0.8986 H         1 RES1    0.0000
     12 C7         5.8808    5.1264    0.0617 C.ar      1 RES1    0.0000
     13 C8         6.2202    4.7169    1.3294 C.ar      1 RES1    0.0000
     14 H6         6.9980    4.2217    1.4453 H         1 RES1    0.0000
     15 C9         5.4514    5.0128    2.4336 C.ar      1 RES1    0.0000
     16 H7         5.7122    4.7221    3.2778 H         1 RES1    0.0000
     17 C10        6.7215    4.7698   -1.1333 C.3       1 RES1    0.0000
     18 H8         7.4673    4.2348   -0.8517 H         1 RES1    0.0000
     19 H9         7.0424    5.5729   -1.5509 H         1 RES1    0.0000
     20 H10        6.1904    4.2738   -1.7621 H         1 RES1    0.0000
     21 C11        4.1920    7.5246    6.6705 C.3       1 RES1    0.0000
     22 H11        4.8310    7.3580    5.9455 H         1 RES1    0.0000
     23 C12        4.3870    6.4560    7.7196 C.3       1 RES1    0.0000
     24 H12        4.2060    5.5951    7.3369 H         1 RES1    0.0000
     25 H13        3.7873    6.6127    8.4514 H         1 RES1    0.0000
     26 H14        5.2929    6.4811    8.0361 H         1 RES1    0.0000
     27 C13        4.5050    8.8879    7.2717 C.3       1 RES1    0.0000
     28 H15        4.3960    9.5666    6.6001 H         1 RES1    0.0000
     29 H16        5.4104    8.8969    7.5903 H         1 RES1    0.0000
     30 H17        3.9070    9.0611    8.0032 H         1 RES1    0.0000
     31 C14        1.0847    8.9176    3.5720 C.2       1 RES1    0.0000
     32 C15       -0.6710    9.6584    2.1652 C.3       1 RES1    0.0000
     33 H18       -0.0438    9.6318    1.4266 H         1 RES1    0.0000
     34 H19       -1.1858    8.8356    2.1516 H         1 RES1    0.0000
     35 C16       -1.5354   10.7498    2.0014 C.3       1 RES1    0.0000
     36 H20       -1.9985   10.6690    1.1638 H         1 RES1    0.0000
     37 H21       -1.0273   11.5641    2.0084 H         1 RES1    0.0000
     38 H22       -2.1727   10.7641    2.7194 H         1 RES1    0.0000
     39 N1         3.4467    6.0920    3.3508 N.am      1 RES1    0.0000
     40 H23        2.9010    6.7391    3.1980 H         1 RES1    0.0000
     41 N2         1.5219    9.0140    4.8435 N.am      1 RES1    0.0000
     42 H24        1.0476    9.3555    5.4739 H         1 RES1    0.0000
     43 O1         1.5292    8.1875    2.7372 O.2       1 RES1    0.0000
     44 O2         0.0534    9.7450    3.4010 O.3       1 RES1    0.0000
     45 O3         2.8087    8.5128    5.0528 O.3       1 RES1    0.0000
     46 O4         4.0880    4.6193    4.9387 O.2       1 RES1    0.0000
     47 C17       -0.4496   10.7380    1.3327 Du        2 SUP2    0.0000
@<TRIPOS>BOND
     1    1    2 1
     2    3    1 1
     3    4    3 1
     4    5    3 1
     5    6    3 1
     6    7    8 ar
     7    8    9 1
     8   10    8 ar
     9   11   10 1
    10   12   10 ar
    11   13   12 ar
    12   14   13 1
    13   15    7 ar
    14   16   15 1
    15   17   12 1
    16   18   17 1
    17   19   17 1
    18   20   17 1
    19   21    1 1
    20   22   21 1
    21   23   21 1
    22   24   23 1
    23   25   23 1
    24   26   23 1
    25   27   21 1
    26   28   27 1
    27   29   27 1
    28   30   27 1
    29   31   41 1
    30   32   33 1
    31   34   32 1
    32   35   32 1
    33   36   35 1
    34   37   35 1
    35   38   35 1
    36   39    6 1
    37   40   39 1
    38   41   42 1
    39   43   31 2
    40   44   31 1
    41   45    1 1
    42   46    6 2
    43    7   39 1
    44   13   15 ar
    45   32   44 1
    46   41   45 1
@<TRIPOS>SUBSTRUCTURE
     1 RES1 1
     2 SUP2 47

@<TRIPOS>CRYSIN
   5.6200   13.0300   23.4630  90.0000  90.0000  90.0000  19 1

