# MOL2 file generated by ConQuest
# Please check atom types

@<TRIPOS>MOLECULE
EZUFEK
    57    57     1
SMALL
NO_CHARGES
****
Generated from CSD

@<TRIPOS>ATOM
      1 O1         3.5074    6.3877   17.0320 O.2       1 RES1    0.0000
      2 O2         5.3596    7.3706   17.9139 O.3       1 RES1    0.0000
      3 O3         4.4315    7.0434   14.5891 O.3       1 RES1    0.0000
      4 O4         2.9597    3.3232   13.2904 O.2       1 RES1    0.0000
      5 N1         5.2176    7.1513   15.7560 N.am      1 RES1    0.0000
      6 N2         2.3511    4.7953   14.8594 N.am      1 RES1    0.0000
      7 C1         4.5857    6.9444   16.9257 C.2       1 RES1    0.0000
      8 C2         5.0137    7.0917   19.3201 C.3       1 RES1    0.0000
      9 C3         6.2146    7.7125   20.0801 C.3       1 RES1    0.0000
     10 H1         6.2379    8.6594   19.9248 H         1 RES1    0.0000
     11 H2         7.0311    7.3155   19.7675 H         1 RES1    0.0000
     12 H3         6.1172    7.5449   21.0199 H         1 RES1    0.0000
     13 C4         3.7428    7.8092   19.6702 C.3       1 RES1    0.0000
     14 H4         3.8452    8.7471   19.4942 H         1 RES1    0.0000
     15 H5         3.5480    7.6788   20.6006 H         1 RES1    0.0000
     16 H6         3.0216    7.4617   19.1404 H         1 RES1    0.0000
     17 C5         5.0106    5.5960   19.5503 C.3       1 RES1    0.0000
     18 H7         5.8566    5.2294   19.2826 H         1 RES1    0.0000
     19 H8         4.3098    5.1934   19.0318 H         1 RES1    0.0000
     20 H9         4.8646    5.4161   20.4808 H         1 RES1    0.0000
     21 C6         3.2620    4.1756   14.1175 C.2       1 RES1    0.0000
     22 C7         4.6891    4.6345   14.3066 C.3       1 RES1    0.0000
     23 H10        4.8889    4.6412   15.2557 H         1 RES1    0.0000
     24 H11        5.2804    3.9901   13.8891 H         1 RES1    0.0000
     25 C8         4.9873    6.0009   13.7412 C.3       1 RES1    0.0000
     26 H12        5.9590    6.1189   13.6869 H         1 RES1    0.0000
     27 C9         4.3858    6.2235   12.3708 C.3       1 RES1    0.0000
     28 H13        4.3432    5.3553   11.9384 H         1 RES1    0.0000
     29 H14        3.4699    6.5103   12.5094 H         1 RES1    0.0000
     30 C10        4.9447    7.0917   11.4666 C.3       1 RES1    0.0000
     31 C11        6.3657    7.0737   11.1540 C.3       1 RES1    0.0000
     32 H15        6.5595    7.7597   10.5100 H         1 RES1    0.0000
     33 H16        6.6031    6.2179   10.7908 H         1 RES1    0.0000
     34 H17        6.8719    7.2334   11.9534 H         1 RES1    0.0000
     35 C12        4.1170    7.2570   10.1936 C.3       1 RES1    0.0000
     36 H18        4.5664    7.8587    9.5964 H         1 RES1    0.0000
     37 H19        3.2539    7.6124   10.4164 H         1 RES1    0.0000
     38 H20        4.0116    6.4035    9.7686 H         1 RES1    0.0000
     39 C13        0.9139    4.5625   14.7615 C.3       1 RES1    0.0000
     40 H21        0.7242    4.2780   13.8423 H         1 RES1    0.0000
     41 C14        0.4493    3.4795   15.6676 C.3       1 RES1    0.0000
     42 H22        0.7242    3.6797   16.5756 H         1 RES1    0.0000
     43 H23        0.8632    2.6417   15.4074 H         1 RES1    0.0000
     44 C15       -1.0539    3.3322   15.6208 C.3       1 RES1    0.0000
     45 H24       -1.3115    3.0106   14.7428 H         1 RES1    0.0000
     46 H25       -1.3257    2.6664   16.2723 H         1 RES1    0.0000
     47 C16       -1.7720    4.5974   15.8979 C.3       1 RES1    0.0000
     48 H26       -2.7275    4.4557   15.8136 H         1 RES1    0.0000
     49 H27       -1.5894    4.8841   16.8077 H         1 RES1    0.0000
     50 C17       -1.3389    5.6444   14.9506 C.3       1 RES1    0.0000
     51 H28       -1.7740    6.4822   15.1734 H         1 RES1    0.0000
     52 H29       -1.6056    5.3970   14.0520 H         1 RES1    0.0000
     53 C18        0.1755    5.8311   14.9993 C.3       1 RES1    0.0000
     54 H30        0.4361    6.4799   14.3272 H         1 RES1    0.0000
     55 H31        0.4240    6.1853   15.8660 H         1 RES1    0.0000
     56 H32        2.6778    5.4093   15.4748 H         1 RES1    0.0000
     57 H33        5.7105    7.7260   15.8005 H         1 RES1    0.0000
@<TRIPOS>BOND
     1    1    7 2
     2    2    7 1
     3    3    5 1
     4    4   21 2
     5    5    7 1
     6    6   21 1
     7    8    2 1
     8    9    8 1
     9   10    9 1
    10   11    9 1
    11   12    9 1
    12   13    8 1
    13   14   13 1
    14   15   13 1
    15   16   13 1
    16   17    8 1
    17   18   17 1
    18   19   17 1
    19   20   17 1
    20   21   22 1
    21   22   23 1
    22   24   22 1
    23   25    3 1
    24   26   25 1
    25   27   25 1
    26   28   27 1
    27   29   27 1
    28   30   27 1
    29   31   30 1
    30   32   31 1
    31   33   31 1
    32   34   31 1
    33   35   30 1
    34   36   35 1
    35   37   35 1
    36   38   35 1
    37   39    6 1
    38   40   39 1
    39   41   39 1
    40   42   41 1
    41   43   41 1
    42   44   41 1
    43   45   44 1
    44   46   44 1
    45   47   44 1
    46   48   47 1
    47   49   47 1
    48   50   47 1
    49   51   50 1
    50   52   50 1
    51   53   39 1
    52   54   53 1
    53   55   53 1
    54   56    6 1
    55   57    5 1
    56   22   25 1
    57   50   53 1
@<TRIPOS>SUBSTRUCTURE
     1 RES1 1

@<TRIPOS>CRYSIN
  10.1430   11.2460   18.7210  90.0000  90.0000  90.0000  19 1

