# MOL2 file generated by ConQuest
# Please check atom types

@<TRIPOS>MOLECULE
EZUQEX
    80    86     2
SMALL
NO_CHARGES
****
Generated from CSD

@<TRIPOS>ATOM
      1 O1         9.0338   14.7306   -0.2632 O.3       1 RES1    0.0000
      2 O2        10.6291   13.4265   -1.0455 O.2       1 RES1    0.0000
      3 O3        11.4875   12.6516    6.6727 O.3       1 RES1    0.0000
      4 H1        11.3457   12.9718    7.4109 H         1 RES1    0.0000
      5 N1        10.8288   12.4796    3.1612 N.3       1 RES1    0.0000
      6 N2         9.8186   13.3344    3.5019 N.2       1 RES1    0.0000
      7 N3        10.6116   11.5973    6.4501 N.2       1 RES1    0.0000
      8 C1         7.5827   15.4278    3.0541 C.ar      1 RES1    0.0000
      9 H2         7.6681   15.1850    3.9478 H         1 RES1    0.0000
     10 C2         6.6322   16.3525    2.6852 C.ar      1 RES1    0.0000
     11 H3         6.0748   16.7275    3.3286 H         1 RES1    0.0000
     12 C3         6.5039   16.7234    1.3625 C.ar      1 RES1    0.0000
     13 H4         5.8615   17.3515    1.1208 H         1 RES1    0.0000
     14 C4         7.3104   16.1788    0.4017 C.ar      1 RES1    0.0000
     15 H5         7.2202   16.4341   -0.4886 H         1 RES1    0.0000
     16 C5         8.2623   15.2448    0.7670 C.ar      1 RES1    0.0000
     17 C6         8.4156   14.8554    2.1002 C.ar      1 RES1    0.0000
     18 C7         9.4481   13.8728    2.3398 C.2       1 RES1    0.0000
     19 C8        10.2107   13.3769    1.2850 C.2       1 RES1    0.0000
     20 C9        10.0264   13.7916   -0.0752 C.2       1 RES1    0.0000
     21 C10       11.0930   12.4779    1.8546 C.2       1 RES1    0.0000
     22 H6        11.7399   11.9739    1.4148 H         1 RES1    0.0000
     23 C11       11.5557   11.7430    4.1953 C.3       1 RES1    0.0000
     24 H7        12.1907   12.3403    4.6218 H         1 RES1    0.0000
     25 H8        12.0576   11.0247    3.7792 H         1 RES1    0.0000
     26 C12       10.6467   11.1621    5.2450 C.2       1 RES1    0.0000
     27 C13        9.7828   10.0031    4.9312 C.ar      1 RES1    0.0000
     28 C14        9.5456    9.5904    3.6366 C.ar      1 RES1    0.0000
     29 H9         9.9324   10.0578    2.9314 H         1 RES1    0.0000
     30 C15        8.7439    8.4955    3.3636 C.ar      1 RES1    0.0000
     31 H10        8.5907    8.2542    2.4781 H         1 RES1    0.0000
     32 C16        8.1704    7.7560    4.3675 C.ar      1 RES1    0.0000
     33 C17        8.4318    8.1437    5.6663 C.ar      1 RES1    0.0000
     34 H11        8.0770    7.6462    6.3684 H         1 RES1    0.0000
     35 C18        9.2033    9.2485    5.9491 C.ar      1 RES1    0.0000
     36 H12        9.3399    9.4947    6.8348 H         1 RES1    0.0000
     37 C19        7.2887    6.5731    4.0792 C.3       1 RES1    0.0000
     38 H13        6.3709    6.8170    4.2182 H         1 RES1    0.0000
     39 H14        7.5209    5.8507    4.6663 H         1 RES1    0.0000
     40 H15        7.4117    6.2971    3.1679 H         1 RES1    0.0000
     41 O4         9.7713    0.4435   13.0672 O.3       2 RES2    0.0000
     42 O5         8.2086    1.7954   13.8161 O.2       2 RES2    0.0000
     43 O6         7.2492    2.4577    5.9780 O.3       2 RES2    0.0000
     44 H16        7.4746    2.0887    5.2842 H         2 RES2    0.0000
     45 N4         7.9303    2.5469    9.5721 N.3       2 RES2    0.0000
     46 N5         8.9447    1.6858    9.2588 N.2       2 RES2    0.0000
     47 N6         8.1419    3.4849    6.2715 N.2       2 RES2    0.0000
     48 C20       11.1920   -0.3687    9.7628 C.ar      2 RES2    0.0000
     49 H17       11.1144   -0.1375    8.8648 H         2 RES2    0.0000
     50 C21       12.1146   -1.3058   10.1505 C.ar      2 RES2    0.0000
     51 H18       12.6664   -1.7025    9.5154 H         2 RES2    0.0000
     52 C22       12.2271   -1.6641   11.4792 C.ar      2 RES2    0.0000
     53 H19       12.8467   -2.3122   11.7283 H         2 RES2    0.0000
     54 C23       11.4423   -1.0795   12.4334 C.ar      2 RES2    0.0000
     55 H20       11.5257   -1.3220   13.3273 H         2 RES2    0.0000
     56 C24       10.5217   -0.1231   12.0485 C.ar      2 RES2    0.0000
     57 C25       10.3734    0.2372   10.7080 C.ar      2 RES2    0.0000
     58 C26        9.3433    1.2162   10.4347 C.2       2 RES2    0.0000
     59 C27        8.5983    1.7634   11.4801 C.2       2 RES2    0.0000
     60 C28        8.7885    1.3897   12.8536 C.2       2 RES2    0.0000
     61 C29        7.6950    2.6169   10.8826 C.2       2 RES2    0.0000
     62 H21        7.0517    3.1360   11.3077 H         2 RES2    0.0000
     63 C30        7.1806    3.1958    8.4974 C.3       2 RES2    0.0000
     64 H22        6.5946    3.8689    8.8766 H         2 RES2    0.0000
     65 H23        6.6278    2.5364    8.0484 H         2 RES2    0.0000
     66 C31        8.0937    3.8389    7.4993 C.2       2 RES2    0.0000
     67 C32        9.0193    4.9086    7.9239 C.ar      2 RES2    0.0000
     68 C33       10.1361    5.2294    7.1589 C.ar      2 RES2    0.0000
     69 H24       10.3007    4.7635    6.3710 H         2 RES2    0.0000
     70 C34       10.9971    6.2225    7.5487 C.ar      2 RES2    0.0000
     71 H25       11.7311    6.4204    7.0138 H         2 RES2    0.0000
     72 C35       10.8029    6.9391    8.7189 C.ar      2 RES2    0.0000
     73 C36        9.7156    6.6067    9.4868 C.ar      2 RES2    0.0000
     74 H26        9.5650    7.0620   10.2835 H         2 RES2    0.0000
     75 C37        8.8389    5.6129    9.1025 C.ar      2 RES2    0.0000
     76 H27        8.1126    5.4110    9.6460 H         2 RES2    0.0000
     77 C38       11.7619    8.0268    9.1418 C.3       2 RES2    0.0000
     78 H28       12.6618    7.7515    8.9511 H         2 RES2    0.0000
     79 H29       11.6690    8.1856   10.0837 H         2 RES2    0.0000
     80 H30       11.5638    8.8322    8.6597 H         2 RES2    0.0000
@<TRIPOS>BOND
     1    1   16 1
     2    2   20 2
     3    3    4 1
     4    5    6 1
     5    6   18 2
     6    7    3 1
     7    8    9 1
     8   10    8 ar
     9   11   10 1
    10   12   10 ar
    11   13   12 1
    12   14   12 ar
    13   15   14 1
    14   16   14 ar
    15   17    8 ar
    16   18   17 1
    17   19   18 1
    18   20    1 1
    19   21    5 1
    20   22   21 1
    21   23    5 1
    22   24   23 1
    23   25   23 1
    24   26    7 2
    25   27   26 1
    26   28   27 ar
    27   29   28 1
    28   30   28 ar
    29   31   30 1
    30   32   30 ar
    31   33   32 ar
    32   34   33 1
    33   35   27 ar
    34   36   35 1
    35   37   32 1
    36   38   37 1
    37   39   37 1
    38   40   37 1
    39   41   56 1
    40   42   60 2
    41   43   44 1
    42   45   46 1
    43   46   58 2
    44   47   43 1
    45   48   49 1
    46   50   48 ar
    47   51   50 1
    48   52   50 ar
    49   53   52 1
    50   54   52 ar
    51   55   54 1
    52   56   54 ar
    53   57   48 ar
    54   58   57 1
    55   59   58 1
    56   60   41 1
    57   61   45 1
    58   62   61 1
    59   63   45 1
    60   64   63 1
    61   65   63 1
    62   66   47 2
    63   67   66 1
    64   68   67 ar
    65   69   68 1
    66   70   68 ar
    67   71   70 1
    68   72   70 ar
    69   73   72 ar
    70   74   73 1
    71   75   67 ar
    72   76   75 1
    73   77   72 1
    74   78   77 1
    75   79   77 1
    76   80   77 1
    77   16   17 ar
    78   19   20 1
    79   19   21 2
    80   23   26 1
    81   33   35 ar
    82   56   57 ar
    83   59   60 1
    84   59   61 2
    85   63   66 1
    86   73   75 ar
@<TRIPOS>SUBSTRUCTURE
     1 RES1 1
     2 RES2 41

@<TRIPOS>CRYSIN
  10.2139   12.0821   13.5275  75.9330  82.7040  81.3360   2 1

