# MOL2 file generated by ConQuest
# Please check atom types

@<TRIPOS>MOLECULE
FABFIA
    34    36     1
SMALL
NO_CHARGES
****
Generated from CSD

@<TRIPOS>ATOM
      1 O1        -2.0046    7.6417    4.9542 O.3       1 RES1    0.0000
      2 O2        -0.6339    7.9217    3.1909 O.2       1 RES1    0.0000
      3 O3         2.1306    3.2060    7.1134 O.2       1 RES1    0.0000
      4 O4         3.5423    1.6271    6.6575 O.2       1 RES1    0.0000
      5 N1         1.0647    5.9943    4.5617 N.2       1 RES1    0.0000
      6 N2         1.7216    5.0587    5.2677 N.pl3     1 RES1    0.0000
      7 H1         1.4057    4.6848    5.9969 H         1 RES1    0.0000
      8 N3         3.0732    2.7478    6.4523 N.pl3     1 RES1    0.0000
      9 C1        -0.8481    7.3880    4.2466 C.2       1 RES1    0.0000
     10 C2        -0.0781    6.3961    5.0288 C.2       1 RES1    0.0000
     11 C3        -0.8779    6.0832    6.1833 C.2       1 RES1    0.0000
     12 H2        -0.6558    5.4734    6.8774 H         1 RES1    0.0000
     13 C4        -2.0004    6.8194    6.0920 C.2       1 RES1    0.0000
     14 C5        -3.1947    6.9125    6.9099 C.ar      1 RES1    0.0000
     15 C6        -3.3459    6.0903    8.0361 C.ar      1 RES1    0.0000
     16 H3        -2.6701    5.4617    8.2629 H         1 RES1    0.0000
     17 C7        -4.4893    6.1989    8.8200 C.ar      1 RES1    0.0000
     18 H4        -4.5910    5.6491    9.5876 H         1 RES1    0.0000
     19 C8        -5.4845    7.1112    8.4833 C.ar      1 RES1    0.0000
     20 H5        -6.2607    7.1863    9.0265 H         1 RES1    0.0000
     21 C9        -5.3477    7.9107    7.3573 C.ar      1 RES1    0.0000
     22 H6        -6.0348    8.5232    7.1221 H         1 RES1    0.0000
     23 C10       -4.2072    7.8147    6.5781 C.ar      1 RES1    0.0000
     24 H7        -4.1132    8.3675    5.8115 H         1 RES1    0.0000
     25 C11        2.9562    4.6362    4.8178 C.ar      1 RES1    0.0000
     26 C12        3.5783    5.2967    3.7460 C.ar      1 RES1    0.0000
     27 H8         3.1367    6.0275    3.3304 H         1 RES1    0.0000
     28 C13        4.8150    4.9058    3.2866 C.ar      1 RES1    0.0000
     29 H9         5.2071    5.3603    2.5496 H         1 RES1    0.0000
     30 C14        5.5005    3.8502    3.8891 C.ar      1 RES1    0.0000
     31 H10        6.3653    3.6038    3.5829 H         1 RES1    0.0000
     32 C15        4.9123    3.1697    4.9294 C.ar      1 RES1    0.0000
     33 H11        5.3671    2.4438    5.3392 H         1 RES1    0.0000
     34 C16        3.6510    3.5444    5.3824 C.ar      1 RES1    0.0000
@<TRIPOS>BOND
     1    1    9 1
     2    2    9 2
     3    3    8 2
     4    4    8 2
     5    5    6 1
     6    6    7 1
     7    8   34 1
     8    9   10 1
     9   10    5 2
    10   11   10 1
    11   12   11 1
    12   13    1 1
    13   14   13 1
    14   15   14 ar
    15   16   15 1
    16   17   15 ar
    17   18   17 1
    18   19   17 ar
    19   20   19 1
    20   21   19 ar
    21   22   21 1
    22   23   14 ar
    23   24   23 1
    24   25    6 1
    25   26   25 ar
    26   27   26 1
    27   28   26 ar
    28   29   28 1
    29   30   28 ar
    30   31   30 1
    31   32   30 ar
    32   33   32 1
    33   34   25 ar
    34   11   13 2
    35   21   23 ar
    36   32   34 ar
@<TRIPOS>SUBSTRUCTURE
     1 RES1 1

@<TRIPOS>CRYSIN
   7.4772   11.7886   15.5845  90.0000  90.0000  90.0000  19 1

