# MOL2 file generated by ConQuest
# Please check atom types

@<TRIPOS>MOLECULE
FABHUL
    42    42     2
SMALL
NO_CHARGES
****
Generated from CSD

@<TRIPOS>ATOM
      1 C1         2.8660    3.0014    2.4448 C.2       1 RES1    0.0000
      2 C2         3.0488    4.3636    2.4970 C.2       1 RES1    0.0000
      3 C3         4.0341    4.6611    1.5508 C.2       1 RES1    0.0000
      4 C4         4.3822    3.4915    0.9580 C.2       1 RES1    0.0000
      5 C5         3.7336    1.0130    1.1785 C.3       1 RES1    0.0000
      6 N1         1.9613    2.2092    3.2534 N.pl3     1 RES1    0.0000
      7 N2         2.3238    5.3156    3.2771 N.pl3     1 RES1    0.0000
      8 N3         4.4999    5.9998    1.1880 N.pl3     1 RES1    0.0000
      9 N4         5.4026    3.3177   -0.0237 N.pl3     1 RES1    0.0000
     10 N5         3.6530    2.4472    1.5129 N.pl3     1 RES1    0.0000
     11 O1         1.1857    1.4686    2.6559 O.2       1 RES1    0.0000
     12 O2         2.0036    2.3532    4.4343 O.2       1 RES1    0.0000
     13 O3         1.2652    4.9445    3.7751 O.2       1 RES1    0.0000
     14 O4         2.7679    6.4131    3.4052 O.2       1 RES1    0.0000
     15 O5         3.8751    6.5932    0.3676 O.2       1 RES1    0.0000
     16 O6         5.4687    6.4272    1.7856 O.2       1 RES1    0.0000
     17 O7         6.0078    4.3213   -0.3154 O.2       1 RES1    0.0000
     18 O8         5.5792    2.2311   -0.5407 O.2       1 RES1    0.0000
     19 H1         3.2213    0.8032    0.3438 H         1 RES1    0.0000
     20 H2         3.3463    0.4588    1.9255 H         1 RES1    0.0000
     21 H3         4.6817    0.7312    1.0410 H         1 RES1    0.0000
     22 C6         4.3305    0.8862    6.4618 C.2       2 RES2    0.0000
     23 C7         3.9752    2.1262    6.9123 C.2       2 RES2    0.0000
     24 C8         3.2254    1.9180    8.0790 C.2       2 RES2    0.0000
     25 C9         3.1376    0.5605    8.2640 C.2       2 RES2    0.0000
     26 C10        3.9887   -1.5469    7.0119 C.3       2 RES2    0.0000
     27 N6         5.1320    0.5370    5.3165 N.pl3     2 RES2    0.0000
     28 N7         4.2923    3.3835    6.3195 N.pl3     2 RES2    0.0000
     29 N8         2.6935    2.9404    8.9730 N.pl3     2 RES2    0.0000
     30 N9         2.3538   -0.1018    9.2647 N.pl3     2 RES2    0.0000
     31 N10        3.8327   -0.0736    7.2633 N.pl3     2 RES2    0.0000
     32 O9         6.1576   -0.0470    5.5512 O.2       2 RES2    0.0000
     33 O10        4.7375    0.8220    4.2257 O.2       2 RES2    0.0000
     34 O11        5.0752    3.3944    5.4042 O.2       2 RES2    0.0000
     35 O12        3.7418    4.3636    6.7535 O.2       2 RES2    0.0000
     36 O13        3.4671    3.4524    9.7271 O.2       2 RES2    0.0000
     37 O14        1.5213    3.2144    8.8829 O.2       2 RES2    0.0000
     38 O15        1.9386    0.5965   10.1563 O.2       2 RES2    0.0000
     39 O16        2.1296   -1.2980    9.1485 O.2       2 RES2    0.0000
     40 H4         4.6548   -1.9133    7.6688 H         2 RES2    0.0000
     41 H5         4.3749   -1.6784    6.0919 H         2 RES2    0.0000
     42 H6         3.1284   -2.0057    7.0949 H         2 RES2    0.0000
@<TRIPOS>BOND
     1    1    2 2
     2    2    3 1
     3    3    4 2
     4    4    9 1
     5    5   10 1
     6    6    1 1
     7    7    2 1
     8    8    3 1
     9    9   17 2
    10   10    1 1
    11   11    6 2
    12   12    6 2
    13   13    7 2
    14   14    7 2
    15   15    8 2
    16   16    8 2
    17   18    9 2
    18   19    5 1
    19   20    5 1
    20   21    5 1
    21   22   23 2
    22   23   24 1
    23   24   25 2
    24   25   30 1
    25   26   31 1
    26   27   22 1
    27   28   23 1
    28   29   24 1
    29   30   38 2
    30   31   22 1
    31   32   27 2
    32   33   27 2
    33   34   28 2
    34   35   28 2
    35   36   29 2
    36   37   29 2
    37   39   30 2
    38   40   26 1
    39   41   26 1
    40   42   26 1
    41    4   10 1
    42   25   31 1
@<TRIPOS>SUBSTRUCTURE
     1 RES1 1
     2 RES2 22

@<TRIPOS>CRYSIN
  10.3280   15.6570   23.7130  90.0000  90.0000  90.0000  61 1

