# MOL2 file generated by ConQuest
# Please check atom types

@<TRIPOS>MOLECULE
FABJAW
    33    34     1
SMALL
NO_CHARGES
****
Generated from CSD

@<TRIPOS>ATOM
      1 N1         7.5393    4.3072   10.7303 N.1       1 RES1    0.0000
      2 N2         6.6898    4.9366    7.4566 N.pl3     1 RES1    0.0000
      3 H1         6.9750    4.2734    7.9240 H         1 RES1    0.0000
      4 H2         6.5400    4.8373    6.6160 H         1 RES1    0.0000
      5 O1         6.5520    7.4205    5.1234 O.2       1 RES1    0.0000
      6 O2         4.7410    6.5811    5.5689 O.2       1 RES1    0.0000
      7 C1         6.2119   10.4068    6.3124 C.ar      1 RES1    0.0000
      8 H3         7.1212   10.2116    6.3143 H         1 RES1    0.0000
      9 C2         5.7338   11.4679    5.5660 C.ar      1 RES1    0.0000
     10 H4         6.3303   11.9826    5.0710 H         1 RES1    0.0000
     11 C3         4.4140   11.7733    5.5451 C.ar      1 RES1    0.0000
     12 H5         4.1090   12.4943    5.0434 H         1 RES1    0.0000
     13 C4         3.5399   11.0185    6.2581 C.ar      1 RES1    0.0000
     14 H6         2.6316   11.2152    6.2429 H         1 RES1    0.0000
     15 C5         4.0099    9.9545    7.0082 C.ar      1 RES1    0.0000
     16 H7         3.4066    9.4415    7.4956 H         1 RES1    0.0000
     17 C6         5.3419    9.6406    7.0492 C.ar      1 RES1    0.0000
     18 C7         5.8281    8.5055    7.8973 C.ar      1 RES1    0.0000
     19 C8         6.0225    7.2617    7.3300 C.ar      1 RES1    0.0000
     20 C9         6.4766    6.1397    8.0459 C.ar      1 RES1    0.0000
     21 C10        6.7047    6.3541    9.4109 C.ar      1 RES1    0.0000
     22 C11        6.5026    7.5916   10.0250 C.ar      1 RES1    0.0000
     23 C12        6.0637    8.6826    9.2672 C.ar      1 RES1    0.0000
     24 C13        5.8520   10.0254    9.9231 C.3       1 RES1    0.0000
     25 H8         5.0860    9.9824   10.5000 H         1 RES1    0.0000
     26 H9         5.7069   10.6922    9.2472 H         1 RES1    0.0000
     27 H10        6.6287   10.2563   10.4381 H         1 RES1    0.0000
     28 C14        6.7622    7.7301   11.4938 C.3       1 RES1    0.0000
     29 H11        7.1730    6.9278   11.8232 H         1 RES1    0.0000
     30 H12        5.9313    7.8754   11.9526 H         1 RES1    0.0000
     31 H13        7.3473    8.4760   11.6461 H         1 RES1    0.0000
     32 C15        7.1810    5.2212   10.1725 C.1       1 RES1    0.0000
     33 N3         5.7600    7.0857    5.9106 N.pl3     1 RES1    0.0000
@<TRIPOS>BOND
     1    1   32 3
     2    2    3 1
     3    4    2 1
     4    5   33 2
     5    6   33 2
     6    7    8 1
     7    9    7 ar
     8   10    9 1
     9   11    9 ar
    10   12   11 1
    11   13   11 ar
    12   14   13 1
    13   15   13 ar
    14   16   15 1
    15   17    7 ar
    16   18   17 1
    17   19   18 ar
    18   20    2 1
    19   21   20 ar
    20   22   21 ar
    21   23   18 ar
    22   24   23 1
    23   25   24 1
    24   26   24 1
    25   27   24 1
    26   28   22 1
    27   29   28 1
    28   30   28 1
    29   31   28 1
    30   32   21 1
    31   33   19 1
    32   15   17 ar
    33   19   20 ar
    34   22   23 ar
@<TRIPOS>SUBSTRUCTURE
     1 RES1 1

@<TRIPOS>CRYSIN
   8.6070    8.6160   10.5400  69.0670  72.2790  78.5070   2 1

