# MOL2 file generated by ConQuest
# Please check atom types

@<TRIPOS>MOLECULE
FABROP10
    80    86     2
SMALL
NO_CHARGES
****
Generated from CSD

@<TRIPOS>ATOM
      1 C1         4.5264    8.5242    0.5817 C.ar      1 RES1    0.0000
      2 C2         4.3078    7.7690   -0.6018 C.ar      1 RES1    0.0000
      3 C3         3.1157    7.1269   -0.8554 C.ar      1 RES1    0.0000
      4 C4         2.1102    7.2007    0.0555 C.ar      1 RES1    0.0000
      5 C5         2.2348    7.9510    1.2027 C.ar      1 RES1    0.0000
      6 C6         3.4025    8.6054    1.4266 C.ar      1 RES1    0.0000
      7 N1         5.3329    7.6263   -1.6199 N.pl3     1 RES1    0.0000
      8 O1         6.4157    8.1946   -1.4745 O.2       1 RES1    0.0000
      9 O2         5.0960    6.9424   -2.5997 O.2       1 RES1    0.0000
     10 N2         0.8604    6.4750   -0.1646 N.pl3     1 RES1    0.0000
     11 O3         0.6765    5.9780   -1.2592 O.2       1 RES1    0.0000
     12 O4         0.0766    6.3864    0.7511 O.2       1 RES1    0.0000
     13 N3         3.3750    9.5255    2.5901 N.pl3     1 RES1    0.0000
     14 O5         3.5374   10.7088    2.3720 O.2       1 RES1    0.0000
     15 O6         3.0948    9.0187    3.6665 O.2       1 RES1    0.0000
     16 N4         5.7324    9.0728    0.8697 N.3       1 RES1    0.0000
     17 N5         6.0540    9.5353    2.1308 N.pl3     1 RES1    0.0000
     18 C7         6.4263   10.8712    2.3806 C.ar      1 RES1    0.0000
     19 C8         6.3261   11.9758    1.5654 C.ar      1 RES1    0.0000
     20 C9         6.7392   13.1763    2.0868 C.ar      1 RES1    0.0000
     21 C10        7.2193   13.2599    3.3804 C.ar      1 RES1    0.0000
     22 C11        7.3036   12.1578    4.1947 C.ar      1 RES1    0.0000
     23 C12        6.9040   10.9228    3.6952 C.ar      1 RES1    0.0000
     24 C13        6.8342    9.5821    4.2435 C.ar      1 RES1    0.0000
     25 C14        7.1142    9.0236    5.4874 C.ar      1 RES1    0.0000
     26 C15        6.9462    7.6829    5.6634 C.ar      1 RES1    0.0000
     27 C16        6.5321    6.8538    4.6272 C.ar      1 RES1    0.0000
     28 C17        6.2280    7.3803    3.3804 C.ar      1 RES1    0.0000
     29 C18        6.3589    8.7358    3.2283 C.ar      1 RES1    0.0000
     30 H1         3.0739    6.5931   -1.6649 H         1 RES1    0.0000
     31 H2         6.3546    8.9548    0.3349 H         1 RES1    0.0000
     32 H3         1.5123    8.0199    1.7893 H         1 RES1    0.0000
     33 H4         5.9860   11.8823    0.6602 H         1 RES1    0.0000
     34 H5         6.6801   13.9980    1.4735 H         1 RES1    0.0000
     35 H6         7.4524   14.0718    3.6933 H         1 RES1    0.0000
     36 H7         7.5894   12.2267    5.0998 H         1 RES1    0.0000
     37 H8         7.4169    9.6190    6.1428 H         1 RES1    0.0000
     38 H9         7.1113    7.3065    6.5925 H         1 RES1    0.0000
     39 H10        6.4575    5.8796    4.7363 H         1 RES1    0.0000
     40 H11        5.8968    6.8145    2.7269 H         1 RES1    0.0000
     41 C19       -2.5115    3.6311    0.4775 C.ar      2 RES2    0.0000
     42 C20       -2.9825    4.6250   -0.4133 C.ar      2 RES2    0.0000
     43 C21       -3.3933    4.3175   -1.7031 C.ar      2 RES2    0.0000
     44 C22       -3.3267    3.0358   -2.1356 C.ar      2 RES2    0.0000
     45 C23       -2.9115    2.0148   -1.3089 C.ar      2 RES2    0.0000
     46 C24       -2.5597    2.3273   -0.0277 C.ar      2 RES2    0.0000
     47 N6        -3.1152    6.0199   -0.0220 N.pl3     2 RES2    0.0000
     48 O7        -2.9605    6.3249    1.1549 O.2       2 RES2    0.0000
     49 O8        -3.4097    6.8415   -0.8678 O.2       2 RES2    0.0000
     50 N7        -3.7881    2.7012   -3.4876 N.pl3     2 RES2    0.0000
     51 O9        -4.3805    3.5671   -4.1277 O.2       2 RES2    0.0000
     52 O10       -3.5594    1.5769   -3.8943 O.2       2 RES2    0.0000
     53 N8        -2.3722    1.1513    0.8497 N.pl3     2 RES2    0.0000
     54 O11       -3.1901    1.0086    1.7433 O.2       2 RES2    0.0000
     55 O12       -1.4773    0.3887    0.5454 O.2       2 RES2    0.0000
     56 N9        -2.0339    3.9534    1.7098 N.3       2 RES2    0.0000
     57 N10       -1.3327    3.0407    2.4734 N.pl3     2 RES2    0.0000
     58 C25       -1.7532    2.6298    3.7268 C.ar      2 RES2    0.0000
     59 C26       -2.9281    2.8832    4.3870 C.ar      2 RES2    0.0000
     60 C27       -3.0555    2.3691    5.6605 C.ar      2 RES2    0.0000
     61 C28       -2.0807    1.6064    6.2624 C.ar      2 RES2    0.0000
     62 C29       -0.9210    1.3555    5.5945 C.ar      2 RES2    0.0000
     63 C30       -0.7133    1.8869    4.3086 C.ar      2 RES2    0.0000
     64 C31        0.3693    1.8869    3.3862 C.ar      2 RES2    0.0000
     65 C32        1.6397    1.3334    3.4273 C.ar      2 RES2    0.0000
     66 C33        2.4709    1.5720    2.3911 C.ar      2 RES2    0.0000
     67 C34        2.1145    2.3223    1.3032 C.ar      2 RES2    0.0000
     68 C35        0.8305    2.8931    1.2037 C.ar      2 RES2    0.0000
     69 C36       -0.0094    2.6495    2.2715 C.ar      2 RES2    0.0000
     70 H12       -3.6856    5.0678   -2.2485 H         2 RES2    0.0000
     71 H13       -1.9726    4.7972    1.8945 H         2 RES2    0.0000
     72 H14       -2.9664    1.0578   -1.5596 H         2 RES2    0.0000
     73 H15       -3.4515    3.3949    3.9899 H         2 RES2    0.0000
     74 H16       -3.7978    2.6077    6.1715 H         2 RES2    0.0000
     75 H17       -2.1823    1.1808    7.2718 H         2 RES2    0.0000
     76 H18       -0.2106    0.8610    5.8844 H         2 RES2    0.0000
     77 H19        1.7876    0.8364    4.2770 H         2 RES2    0.0000
     78 H20        3.3196    1.2547    2.3825 H         2 RES2    0.0000
     79 H21        2.5710    2.6077    0.5932 H         2 RES2    0.0000
     80 H22        0.4636    3.3999    0.4784 H         2 RES2    0.0000
@<TRIPOS>BOND
     1    1    2 ar
     2    2    3 ar
     3    3    4 ar
     4    4    5 ar
     5    5    6 ar
     6    6    1 ar
     7    7    2 1
     8    8    7 2
     9    9    7 2
    10   10    4 1
    11   11   10 2
    12   12   10 2
    13   13    6 1
    14   14   13 2
    15   15   13 2
    16   16    1 1
    17   17   16 1
    18   18   17 1
    19   19   18 ar
    20   20   19 ar
    21   21   20 ar
    22   22   21 ar
    23   23   18 ar
    24   24   23 1
    25   25   24 ar
    26   26   25 ar
    27   27   26 ar
    28   28   27 ar
    29   29   17 1
    30   30    3 1
    31   31   16 1
    32   32    5 1
    33   33   19 1
    34   34   20 1
    35   35   21 1
    36   36   22 1
    37   37   25 1
    38   38   26 1
    39   39   27 1
    40   40   28 1
    41   41   42 ar
    42   42   43 ar
    43   43   44 ar
    44   44   45 ar
    45   45   46 ar
    46   46   41 ar
    47   47   42 1
    48   48   47 2
    49   49   47 2
    50   50   44 1
    51   51   50 2
    52   52   50 2
    53   53   46 1
    54   54   53 2
    55   55   53 2
    56   56   41 1
    57   57   56 1
    58   58   57 1
    59   59   58 ar
    60   60   59 ar
    61   61   60 ar
    62   62   61 ar
    63   63   58 ar
    64   64   63 1
    65   65   64 ar
    66   66   65 ar
    67   67   66 ar
    68   68   67 ar
    69   69   57 1
    70   70   43 1
    71   71   56 1
    72   72   45 1
    73   73   59 1
    74   74   60 1
    75   75   61 1
    76   76   62 1
    77   77   65 1
    78   78   66 1
    79   79   67 1
    80   80   68 1
    81   22   23 ar
    82   24   29 ar
    83   28   29 ar
    84   62   63 ar
    85   64   69 ar
    86   68   69 ar
@<TRIPOS>SUBSTRUCTURE
     1 RES1 1
     2 RES2 41

@<TRIPOS>CRYSIN
  14.6860   24.6010   10.0470  90.0000 107.7600  90.0000  14 1

