# MOL2 file generated by ConQuest
# Please check atom types

@<TRIPOS>MOLECULE
FABSUY
    56    59     1
SMALL
NO_CHARGES
****
Generated from CSD

@<TRIPOS>ATOM
      1 O1         1.9185    5.0684    2.2383 O.3       1 RES1    0.0000
      2 N1         1.3026    4.9196    3.5696 N.3       1 RES1    0.0000
      3 C1         2.0327    6.4573    1.9041 C.3       1 RES1    0.0000
      4 H1         2.5686    6.4919    1.0840 H         1 RES1    0.0000
      5 N2         0.8010    7.1448    1.5996 N.3       1 RES1    0.0000
      6 O2         0.0196    7.3217    2.8019 O.3       1 RES1    0.0000
      7 H2         0.0214    6.5593    3.2082 H         1 RES1    0.0000
      8 C2         2.8379    7.2088    2.9597 C.3       1 RES1    0.0000
      9 H3         2.6309    8.1657    2.9186 H         1 RES1    0.0000
     10 O3         4.0074    6.9804    4.9504 O.3       1 RES1    0.0000
     11 C3         2.7145    6.7112    4.3925 C.3       1 RES1    0.0000
     12 H4         2.0334    7.2317    4.8669 H         1 RES1    0.0000
     13 O4         4.2243    6.9969    2.6761 O.3       1 RES1    0.0000
     14 C4         2.4036    5.2158    4.5147 C.3       1 RES1    0.0000
     15 H5         3.1967    4.6952    4.2673 H         1 RES1    0.0000
     16 C5         2.0091    4.8878    5.9491 C.3       1 RES1    0.0000
     17 H6         1.9579    3.9356    6.0567 H         1 RES1    0.0000
     18 H7         1.1541    5.2778    6.1424 H         1 RES1    0.0000
     19 H8         2.6667    5.2434    6.5504 H         1 RES1    0.0000
     20 C6         4.9368    7.2347    3.8884 C.3       1 RES1    0.0000
     21 C7         6.0990    6.2670    3.9636 C.3       1 RES1    0.0000
     22 H9         6.5538    6.3769    4.8015 H         1 RES1    0.0000
     23 H10        6.7091    6.4430    3.2441 H         1 RES1    0.0000
     24 H11        5.7715    5.3676    3.8919 H         1 RES1    0.0000
     25 C8         5.3825    8.6853    3.9642 C.3       1 RES1    0.0000
     26 H12        5.7888    8.8514    4.8186 H         1 RES1    0.0000
     27 H13        4.6215    9.2596    3.8546 H         1 RES1    0.0000
     28 H14        6.0186    8.8619    3.2674 H         1 RES1    0.0000
     29 C9         0.9128    3.4955    3.5967 C.3       1 RES1    0.0000
     30 H15        0.5791    3.2697    4.4791 H         1 RES1    0.0000
     31 H16        1.6913    2.9447    3.4201 H         1 RES1    0.0000
     32 C10       -0.1512    3.2016    2.5682 C.ar      1 RES1    0.0000
     33 C11        0.1476    2.4800    1.4232 C.ar      1 RES1    0.0000
     34 H17        1.0070    2.1455    1.3004 H         1 RES1    0.0000
     35 C12       -0.8262    2.2522    0.4563 C.ar      1 RES1    0.0000
     36 H18       -0.6138    1.7729   -0.3115 H         1 RES1    0.0000
     37 C13       -2.1029    2.7324    0.6328 C.ar      1 RES1    0.0000
     38 H19       -2.7514    2.5880   -0.0171 H         1 RES1    0.0000
     39 C14       -2.4146    3.4283    1.7776 C.ar      1 RES1    0.0000
     40 H20       -3.2795    3.7453    1.9047 H         1 RES1    0.0000
     41 C15       -1.4434    3.6608    2.7462 C.ar      1 RES1    0.0000
     42 H21       -1.6648    4.1284    3.5197 H         1 RES1    0.0000
     43 C16       -0.0107    6.4574    0.5903 C.3       1 RES1    0.0000
     44 H22       -0.3912    5.6517    0.9734 H         1 RES1    0.0000
     45 H23        0.5515    6.1986   -0.1557 H         1 RES1    0.0000
     46 C17       -1.1232    7.3550    0.0962 C.ar      1 RES1    0.0000
     47 C18       -2.4454    7.0063    0.2246 C.ar      1 RES1    0.0000
     48 H24       -2.6718    6.1999    0.6292 H         1 RES1    0.0000
     49 C19       -3.4521    7.8513   -0.2458 C.ar      1 RES1    0.0000
     50 H25       -4.3447    7.6135   -0.1339 H         1 RES1    0.0000
     51 C20       -3.1324    9.0309   -0.8735 C.ar      1 RES1    0.0000
     52 H26       -3.8014    9.5780   -1.2163 H         1 RES1    0.0000
     53 C21       -1.8261    9.3892   -0.9879 C.ar      1 RES1    0.0000
     54 H27       -1.6055   10.1962   -1.3923 H         1 RES1    0.0000
     55 C22       -0.8179    8.5665   -0.5083 C.ar      1 RES1    0.0000
     56 H28        0.0705    8.8289   -0.5918 H         1 RES1    0.0000
@<TRIPOS>BOND
     1    1    2 1
     2    2   14 1
     3    3    1 1
     4    4    3 1
     5    5    3 1
     6    6    5 1
     7    7    6 1
     8    8    3 1
     9    9    8 1
    10   10   11 1
    11   11    8 1
    12   12   11 1
    13   13    8 1
    14   14   11 1
    15   15   14 1
    16   16   14 1
    17   17   16 1
    18   18   16 1
    19   19   16 1
    20   20   10 1
    21   21   20 1
    22   22   21 1
    23   23   21 1
    24   24   21 1
    25   25   20 1
    26   26   25 1
    27   27   25 1
    28   28   25 1
    29   29    2 1
    30   30   29 1
    31   31   29 1
    32   32   29 1
    33   33   32 ar
    34   34   33 1
    35   35   33 ar
    36   36   35 1
    37   37   35 ar
    38   38   37 1
    39   39   37 ar
    40   40   39 1
    41   41   32 ar
    42   42   41 1
    43   43    5 1
    44   44   43 1
    45   45   43 1
    46   46   43 1
    47   47   46 ar
    48   48   47 1
    49   49   47 ar
    50   50   49 1
    51   51   49 ar
    52   52   51 1
    53   53   51 ar
    54   54   53 1
    55   55   46 ar
    56   56   55 1
    57   13   20 1
    58   39   41 ar
    59   53   55 ar
@<TRIPOS>SUBSTRUCTURE
     1 RES1 1

@<TRIPOS>CRYSIN
  10.2132   13.2110   15.5740  90.0000  90.0000  90.0000  19 1

