# MOL2 file generated by ConQuest
# Please check atom types

@<TRIPOS>MOLECULE
FABTAF
    48    50     1
SMALL
NO_CHARGES
****
Generated from CSD

@<TRIPOS>ATOM
      1 O1        -0.5352    5.1176   14.0516 O.3       1 RES1    0.0000
      2 N1         0.3949    4.3215   14.8830 N.3       1 RES1    0.0000
      3 C1         0.1775    5.6770   12.9561 C.3       1 RES1    0.0000
      4 H1        -0.4713    6.1611   12.4031 H         1 RES1    0.0000
      5 O2         1.2632    2.3494   11.9200 O.3       1 RES1    0.0000
      6 C2         0.7914    4.5973   12.0853 C.3       1 RES1    0.0000
      7 H2         1.4762    4.9845   11.5010 H         1 RES1    0.0000
      8 N2         1.6837    7.4876   12.2231 N.pl3     1 RES1    0.0000
      9 O3        -0.2206    3.9687   11.3033 O.3       1 RES1    0.0000
     10 C3         1.3664    3.4214   12.8540 C.3       1 RES1    0.0000
     11 H3         2.3074    3.5891   13.0714 H         1 RES1    0.0000
     12 C4         0.5893    3.0707   14.1184 C.3       1 RES1    0.0000
     13 H4        -0.2840    2.7015   13.8714 H         1 RES1    0.0000
     14 O4         0.8574    7.9462   11.4862 O.2       1 RES1    0.0000
     15 C5         1.3626    2.0379   14.9266 C.3       1 RES1    0.0000
     16 H5         2.1179    2.4581   15.3433 H         1 RES1    0.0000
     17 H6         1.6668    1.3376   14.3447 H         1 RES1    0.0000
     18 H7         0.7903    1.6668   15.6014 H         1 RES1    0.0000
     19 O5         2.8732    7.6384   12.0506 O.2       1 RES1    0.0000
     20 C6         0.3108    2.7048   10.9007 C.3       1 RES1    0.0000
     21 C7         1.0573    2.8162    9.5819 C.3       1 RES1    0.0000
     22 H8         1.4041    1.9556    9.3367 H         1 RES1    0.0000
     23 H9         1.7821    3.4386    9.6764 H         1 RES1    0.0000
     24 H10        0.4566    3.1252    8.8986 H         1 RES1    0.0000
     25 C8        -0.8154    1.7102   10.8632 C.3       1 RES1    0.0000
     26 H11       -0.4768    0.8526   10.5952 H         1 RES1    0.0000
     27 H12       -1.4800    2.0029   10.2351 H         1 RES1    0.0000
     28 H13       -1.2092    1.6387   11.7368 H         1 RES1    0.0000
     29 C9         1.2234    6.6916   13.4224 C.3       1 RES1    0.0000
     30 H14        1.9901    6.2083   13.7953 H         1 RES1    0.0000
     31 C10        0.7111    7.6706   14.4552 C.3       1 RES1    0.0000
     32 H15        1.3435    8.3846   14.5600 H         1 RES1    0.0000
     33 H16        0.5947    7.2185   15.2951 H         1 RES1    0.0000
     34 H17       -0.1311    8.0292   14.1665 H         1 RES1    0.0000
     35 C11       -0.4047    4.0795   16.0996 C.3       1 RES1    0.0000
     36 H18        0.0552    3.4281   16.6520 H         1 RES1    0.0000
     37 H19       -1.2583    3.6959   15.8427 H         1 RES1    0.0000
     38 C12       -0.6570    5.3202   16.9194 C.ar      1 RES1    0.0000
     39 C13       -1.7930    6.0702   16.7676 C.ar      1 RES1    0.0000
     40 H20       -2.4265    5.8284   16.1322 H         1 RES1    0.0000
     41 C14       -2.0027    7.1930   17.5608 C.ar      1 RES1    0.0000
     42 H21       -2.7684    7.7070   17.4371 H         1 RES1    0.0000
     43 C15       -1.0906    7.5519   18.5247 C.ar      1 RES1    0.0000
     44 H22       -1.2419    8.2970   19.0613 H         1 RES1    0.0000
     45 C16        0.0410    6.8031   18.6862 C.ar      1 RES1    0.0000
     46 H23        0.6690    7.0435   19.3286 H         1 RES1    0.0000
     47 C17        0.2545    5.6890   17.8964 C.ar      1 RES1    0.0000
     48 H24        1.0213    5.1789   18.0218 H         1 RES1    0.0000
@<TRIPOS>BOND
     1    1    2 1
     2    2   12 1
     3    3    1 1
     4    4    3 1
     5    5   10 1
     6    6    3 1
     7    7    6 1
     8    8   14 2
     9    9    6 1
    10   10    6 1
    11   11   10 1
    12   12   10 1
    13   13   12 1
    14   15   12 1
    15   16   15 1
    16   17   15 1
    17   18   15 1
    18   19    8 2
    19   20    5 1
    20   21   20 1
    21   22   21 1
    22   23   21 1
    23   24   21 1
    24   25   20 1
    25   26   25 1
    26   27   25 1
    27   28   25 1
    28   29    3 1
    29   30   29 1
    30   31   29 1
    31   32   31 1
    32   33   31 1
    33   34   31 1
    34   35    2 1
    35   36   35 1
    36   37   35 1
    37   38   35 1
    38   39   38 ar
    39   40   39 1
    40   41   39 ar
    41   42   41 1
    42   43   41 ar
    43   44   43 1
    44   45   43 ar
    45   46   45 1
    46   47   38 ar
    47   48   47 1
    48    8   29 1
    49    9   20 1
    50   45   47 ar
@<TRIPOS>SUBSTRUCTURE
     1 RES1 1

@<TRIPOS>CRYSIN
   5.4614   17.5080   18.5620  90.0000  90.0000  90.0000  19 1

