# MOL2 file generated by ConQuest
# Please check atom types

@<TRIPOS>MOLECULE
FACCAP
    32    25     2
SMALL
NO_CHARGES
****
Generated from CSD

@<TRIPOS>ATOM
      1 N1         1.1882    1.1249    0.8548 N.am      1 RES1    0.0000
      2 H1         1.1478    0.3310    0.4199 H         1 RES1    0.0000
      3 N2        -2.1789    4.3056    1.7951 N.1       1 RES1    0.0000
      4 N3         3.6221    3.1336    2.6738 N.pl3     1 RES1    0.0000
      5 O1        -1.0411    1.3091    0.4524 O.2       1 RES1    0.0000
      6 O2         2.3257    5.4403    3.0428 O.3       1 RES1    0.0000
      7 O3         3.5905    3.0251    4.0146 O.2       1 RES1    0.0000
      8 O4         4.5429    3.3829    2.1275 O.2       1 RES1    0.0000
      9 C1        -0.0103    1.7813    0.9581 C.2       1 RES1    0.0000
     10 C2         0.0413    3.0216    1.6773 C.2       1 RES1    0.0000
     11 C3         1.1977    3.4872    2.2507 C.2       1 RES1    0.0000
     12 C4         2.3586    2.7138    2.0736 C.2       1 RES1    0.0000
     13 C5         2.3613    1.5503    1.3587 C.2       1 RES1    0.0000
     14 C6        -1.1926    3.7443    1.7613 C.1       1 RES1    0.0000
     15 C7         1.1909    4.7649    3.0413 C.3       1 RES1    0.0000
     16 H2         0.4935    5.3396    2.6884 H         1 RES1    0.0000
     17 H3         0.9581    4.5557    3.9593 H         1 RES1    0.0000
     18 C8         2.4416    5.8390    4.6839 C.3       1 RES1    0.0000
     19 H4         3.2397    6.3510    4.8329 H         1 RES1    0.0000
     20 H5         2.4754    5.0346    5.2065 H         1 RES1    0.0000
     21 H6         1.6757    6.3574    4.9423 H         1 RES1    0.0000
     22 C9         3.5600    0.7198    1.0402 C.3       1 RES1    0.0000
     23 H7         3.2909   -0.1923    0.9063 H         1 RES1    0.0000
     24 H8         4.1837    0.7656    1.7686 H         1 RES1    0.0000
     25 H9         3.9751    1.0516    0.2415 H         1 RES1    0.0000
     26 O5         2.0605    4.6071    4.0575 Du        2 SUP2    0.0000
     27 O6         4.0681    4.2486    2.0045 Du        2 SUP2    0.0000
     28 O7         4.3106    2.5039    3.2471 Du        2 SUP2    0.0000
     29 C10        2.6126    6.2630    4.1546 Du        2 SUP2    0.0000
     30 H10        3.2618    6.3433    4.8577 Du        2 SUP2    0.0000
     31 H11        1.8664    6.8384    4.3408 Du        2 SUP2    0.0000
     32 H12        3.0126    6.5173    3.3194 Du        2 SUP2    0.0000
@<TRIPOS>BOND
     1    1    2 1
     2    3   14 3
     3    4    7 2
     4    5    9 2
     5    6   15 1
     6    8    4 2
     7    9    1 1
     8   10    9 1
     9   11   10 2
    10   12    4 1
    11   13    1 1
    12   14   10 1
    13   15   11 1
    14   16   15 1
    15   17   15 1
    16   18    6 1
    17   19   18 1
    18   20   18 1
    19   21   18 1
    20   22   13 1
    21   23   22 1
    22   24   22 1
    23   25   22 1
    24   11   12 1
    25   12   13 2
@<TRIPOS>SUBSTRUCTURE
     1 RES1 1
     2 SUP2 26

@<TRIPOS>CRYSIN
  13.1791    7.0434   12.5685  90.0000 116.1040  90.0000  14 1

