# MOL2 file generated by ConQuest
# Please check atom types

@<TRIPOS>MOLECULE
FACPOO
    45    45     1
SMALL
NO_CHARGES
****
Generated from CSD

@<TRIPOS>ATOM
      1 C1         3.2166    1.5242    5.1212 C.3       1 RES1    0.0000
      2 N1         2.5602    0.6200    4.1026 N.pl3     1 RES1    0.0000
      3 O1         2.2092   -0.4956    4.4582 O.2       1 RES1    0.0000
      4 O2         2.3463    1.1136    3.0051 O.2       1 RES1    0.0000
      5 C2         2.1022    2.2231    5.9092 C.3       1 RES1    0.0000
      6 O3         1.3144    3.0362    5.0399 O.3       1 RES1    0.0000
      7 C3         2.7660    3.1010    6.9541 C.3       1 RES1    0.0000
      8 O4         1.7308    3.6390    7.7816 O.3       1 RES1    0.0000
      9 C4         3.6828    2.2382    7.8146 C.3       1 RES1    0.0000
     10 O5         4.3849    3.1434    8.6904 O.3       1 RES1    0.0000
     11 C5         4.6886    1.4777    6.9475 C.3       1 RES1    0.0000
     12 O6         3.9555    0.7090    5.9685 O.3       1 RES1    0.0000
     13 C6         5.5368    0.5057    7.7202 C.3       1 RES1    0.0000
     14 O7         4.6461   -0.4612    8.3216 O.3       1 RES1    0.0000
     15 C7         0.0343    2.6276    4.8029 C.2       1 RES1    0.0000
     16 O8        -0.4343    1.6496    5.2990 O.2       1 RES1    0.0000
     17 C8        -0.6319    3.5551    3.8436 C.3       1 RES1    0.0000
     18 C9         1.8312    4.9579    8.1241 C.2       1 RES1    0.0000
     19 O9         2.7227    5.6729    7.7509 O.2       1 RES1    0.0000
     20 C10        0.7086    5.3392    9.0175 C.3       1 RES1    0.0000
     21 C11        4.3008    2.9270   10.0250 C.2       1 RES1    0.0000
     22 O10        3.8501    1.9115   10.4794 O.2       1 RES1    0.0000
     23 C12        4.8527    4.0891   10.7845 C.3       1 RES1    0.0000
     24 C13        5.1401   -1.1742    9.3533 C.2       1 RES1    0.0000
     25 O11        6.2724   -1.0751    9.7331 O.2       1 RES1    0.0000
     26 C14        4.0812   -2.0602    9.9306 C.3       1 RES1    0.0000
     27 H1         3.7252    2.1361    4.6273 H         1 RES1    0.0000
     28 H2         1.5389    1.5252    6.2912 H         1 RES1    0.0000
     29 H3         3.2517    3.8170    6.5480 H         1 RES1    0.0000
     30 H4         3.1684    1.6112    8.3172 H         1 RES1    0.0000
     31 H5         5.2854    2.0552    6.4602 H         1 RES1    0.0000
     32 H6         6.0193    0.9750    8.4028 H         1 RES1    0.0000
     33 H7         6.1026    0.0506    7.1209 H         1 RES1    0.0000
     34 H8        -1.5161    3.3093    3.7426 H         1 RES1    0.0000
     35 H9        -0.5682    4.4481    4.1948 H         1 RES1    0.0000
     36 H10       -0.2212    3.5278    3.0029 H         1 RES1    0.0000
     37 H11       -0.0408    5.0944    8.6114 H         1 RES1    0.0000
     38 H12        0.6948    4.7991    9.7616 H         1 RES1    0.0000
     39 H13        0.6686    6.2950    9.2370 H         1 RES1    0.0000
     40 H14        5.6364    4.3581   10.4157 H         1 RES1    0.0000
     41 H15        4.2436    4.5847   10.9096 H         1 RES1    0.0000
     42 H16        5.1352    3.7584   11.7087 H         1 RES1    0.0000
     43 H17        4.5718   -2.5973   10.6572 H         1 RES1    0.0000
     44 H18        3.6934   -2.5993    9.2545 H         1 RES1    0.0000
     45 H19        3.3652   -1.5222   10.4245 H         1 RES1    0.0000
@<TRIPOS>BOND
     1    1    2 1
     2    2    3 2
     3    4    2 2
     4    5    1 1
     5    6    5 1
     6    7    5 1
     7    8    7 1
     8    9    7 1
     9   10    9 1
    10   11    9 1
    11   12    1 1
    12   13   11 1
    13   14   13 1
    14   15    6 1
    15   16   15 2
    16   17   15 1
    17   18    8 1
    18   19   18 2
    19   20   18 1
    20   21   10 1
    21   22   21 2
    22   23   21 1
    23   24   14 1
    24   25   24 2
    25   26   24 1
    26   27    1 1
    27   28    5 1
    28   29    7 1
    29   30    9 1
    30   31   11 1
    31   32   13 1
    32   33   13 1
    33   34   17 1
    34   35   17 1
    35   36   17 1
    36   37   20 1
    37   38   20 1
    38   39   20 1
    39   40   23 1
    40   41   23 1
    41   42   23 1
    42   43   26 1
    43   44   26 1
    44   45   26 1
    45   11   12 1
@<TRIPOS>SUBSTRUCTURE
     1 RES1 1

@<TRIPOS>CRYSIN
   8.1640   10.1140   21.9510  90.0000  90.0000  90.0000  19 1

