# MOL2 file generated by ConQuest
# Please check atom types

@<TRIPOS>MOLECULE
FACYUG
    72    61     2
SMALL
NO_CHARGES
****
Generated from CSD

@<TRIPOS>ATOM
      1 O1         5.6393    0.7809   10.9395 O.2       1 RES1    0.0000
      2 O2         7.6596    1.3518   11.3420 O.2       1 RES1    0.0000
      3 O3         9.1552    2.7274   15.5644 O.2       1 RES1    0.0000
      4 O4         7.7519    3.0406   17.1732 O.2       1 RES1    0.0000
      5 N1         3.9016    0.6055   12.8812 N.3       1 RES1    0.0000
      6 N2         2.6261    0.4525   13.3909 N.2       1 RES1    0.0000
      7 N3         6.5145    1.1439   11.7221 N.pl3     1 RES1    0.0000
      8 N4         8.0266    2.6725   16.0383 N.pl3     1 RES1    0.0000
      9 C1         4.8838    1.1511   13.6202 C.ar      1 RES1    0.0000
     10 C2         6.1890    1.3677   13.1102 C.ar      1 RES1    0.0000
     11 C3         7.2176    1.8447   13.9084 C.ar      1 RES1    0.0000
     12 H1         8.0927    1.9566   13.5547 H         1 RES1    0.0000
     13 C4         6.9512    2.1514   15.2156 C.ar      1 RES1    0.0000
     14 C5         5.6678    2.0122   15.7495 C.ar      1 RES1    0.0000
     15 H2         5.4979    2.2604   16.6496 H         1 RES1    0.0000
     16 C6         4.6591    1.5171   14.9723 C.ar      1 RES1    0.0000
     17 H3         3.7911    1.4160   15.3450 H         1 RES1    0.0000
     18 C7         1.8211   -0.1321   12.5853 C.2       1 RES1    0.0000
     19 C8         2.1693   -0.7701   11.2480 C.3       1 RES1    0.0000
     20 H4         2.8077   -1.5163   11.3696 H         1 RES1    0.0000
     21 H5         2.5669   -0.1039   10.6325 H         1 RES1    0.0000
     22 C9         0.8322   -1.2803   10.7076 C.3       1 RES1    0.0000
     23 H6         0.4120   -0.6099   10.1128 H         1 RES1    0.0000
     24 H7         0.9523   -2.1255   10.2053 H         1 RES1    0.0000
     25 C10       -0.0114   -1.5041   11.9548 C.3       1 RES1    0.0000
     26 H8        -0.9768   -1.4608   11.7427 H         1 RES1    0.0000
     27 H9         0.1896   -2.3817   12.3673 H         1 RES1    0.0000
     28 C11        0.3966   -0.3717   12.8633 C.2       1 RES1    0.0000
     29 C12       -0.4353    0.3840   13.6014 C.2       1 RES1    0.0000
     30 C13       -0.0315    1.5907   14.4049 C.3       1 RES1    0.0000
     31 H10       -0.5661    2.3716   14.1129 H         1 RES1    0.0000
     32 H11        0.9224    1.7920   14.2347 H         1 RES1    0.0000
     33 C14       -0.2387    1.3691   15.8923 C.ar      1 RES1    0.0000
     34 C15        0.7996    0.8834   16.6807 C.ar      1 RES1    0.0000
     35 H12        1.6448    0.6957   16.2903 H         1 RES1    0.0000
     36 C16        0.6010    0.6734   18.0380 C.ar      1 RES1    0.0000
     37 H13        1.3157    0.3457   18.5725 H         1 RES1    0.0000
     38 C17       -0.6185    0.9332   18.6180 C.ar      1 RES1    0.0000
     39 H14       -0.7444    0.7932   19.5486 H         1 RES1    0.0000
     40 C18       -1.6521    1.3980   17.8413 C.ar      1 RES1    0.0000
     41 H15       -2.4993    1.5690   18.2348 H         1 RES1    0.0000
     42 C19       -1.4666    1.6174   16.4910 C.ar      1 RES1    0.0000
     43 H16       -2.1884    1.9421   15.9649 H         1 RES1    0.0000
     44 C20       -1.8784    0.4013   13.4745 C.ar      1 RES1    0.0000
     45 C21       -2.5973   -0.6683   14.0157 C.ar      1 RES1    0.0000
     46 C22       -3.9978   -0.6409   13.9124 C.ar      1 RES1    0.0000
     47 H17       -4.5079   -1.3554   14.2732 H         1 RES1    0.0000
     48 C23       -4.6390    0.4071   13.2925 C.ar      1 RES1    0.0000
     49 H18       -5.5871    0.3998   13.2308 H         1 RES1    0.0000
     50 C24       -3.9410    1.4593   12.7636 C.ar      1 RES1    0.0000
     51 H19       -4.3935    2.1760   12.3349 H         1 RES1    0.0000
     52 C25       -2.5665    1.4550   12.8715 C.ar      1 RES1    0.0000
     53 H20       -2.0731    2.1897   12.5246 H         1 RES1    0.0000
     54 C26       -1.9157   -1.8050   14.6819 C.3       1 RES1    0.0000
     55 H21       -1.6563   -2.4704   14.0096 H         1 RES1    0.0000
     56 H22       -2.5250   -2.2164   15.3311 H         1 RES1    0.0000
     57 H23       -1.1146   -1.4810   15.1445 H         1 RES1    0.0000
     58 H24        4.1168    0.3969   12.0527 H         1 RES1    0.0000
     59 C27       -1.8870   -0.3840   13.8739 Du        2 SUP2    0.0000
     60 C28       -3.0256    0.2331   13.3619 Du        2 SUP2    0.0000
     61 C29       -4.2684   -0.3573   13.6318 Du        2 SUP2    0.0000
     62 H25       -5.0598    0.0534   13.3064 Du        2 SUP2    0.0000
     63 C30       -4.3601   -1.5221   14.3611 Du        2 SUP2    0.0000
     64 H26       -5.2140   -1.8996   14.5308 Du        2 SUP2    0.0000
     65 C31       -3.2448   -2.1435   14.8438 Du        2 SUP2    0.0000
     66 H27       -3.3096   -2.9627   15.3203 Du        2 SUP2    0.0000
     67 C32       -2.0162   -1.5474   14.6187 Du        2 SUP2    0.0000
     68 H28       -1.2379   -1.9472   14.9857 Du        2 SUP2    0.0000
     69 C33       -2.9478    1.4550   12.5276 Du        2 SUP2    0.0000
     70 H29       -2.0614    1.5106   12.1128 Du        2 SUP2    0.0000
     71 H30       -3.0950    2.2438   13.0905 Du        2 SUP2    0.0000
     72 H31       -3.6335    1.4182   11.8291 Du        2 SUP2    0.0000
@<TRIPOS>BOND
     1    1    7 2
     2    2    7 2
     3    3    8 2
     4    4    8 2
     5    5    6 1
     6    6   18 2
     7    7   10 1
     8    8   13 1
     9    9    5 1
    10   10    9 ar
    11   11   10 ar
    12   12   11 1
    13   13   11 ar
    14   14   13 ar
    15   15   14 1
    16   16    9 ar
    17   17   16 1
    18   18   19 1
    19   19   20 1
    20   21   19 1
    21   22   19 1
    22   23   22 1
    23   24   22 1
    24   25   22 1
    25   26   25 1
    26   27   25 1
    27   28   18 1
    28   29   28 2
    29   30   29 1
    30   31   30 1
    31   32   30 1
    32   33   30 1
    33   34   33 ar
    34   35   34 1
    35   36   34 ar
    36   37   36 1
    37   38   36 ar
    38   39   38 1
    39   40   38 ar
    40   41   40 1
    41   42   33 ar
    42   43   42 1
    43   44   29 1
    44   45   44 ar
    45   46   45 ar
    46   47   46 1
    47   48   46 ar
    48   49   48 1
    49   50   48 ar
    50   51   50 1
    51   52   44 ar
    52   53   52 1
    53   54   45 1
    54   55   54 1
    55   56   54 1
    56   57   54 1
    57   58    5 1
    58   14   16 ar
    59   25   28 1
    60   40   42 ar
    61   50   52 ar
@<TRIPOS>SUBSTRUCTURE
     1 RES1 1
     2 SUP2 59

@<TRIPOS>CRYSIN
  20.4150    7.2172   16.1720  90.0000 107.5350  90.0000  14 1

