# MOL2 file generated by ConQuest
# Please check atom types

@<TRIPOS>MOLECULE
FACYOA
    63    66     1
SMALL
NO_CHARGES
****
Generated from CSD

@<TRIPOS>ATOM
      1 C1         8.8354    6.5235    9.7572 C.ar      1 RES1    0.0000
      2 C2         7.7386    5.7085   10.1572 C.ar      1 RES1    0.0000
      3 C3         6.7299    6.1930   10.9810 C.ar      1 RES1    0.0000
      4 H1         6.0000    5.6374   11.2289 H         1 RES1    0.0000
      5 C4         6.8066    7.4937   11.4322 C.ar      1 RES1    0.0000
      6 C5         7.8739    8.3365   11.0843 C.ar      1 RES1    0.0000
      7 H2         7.9108    9.2266   11.4151 H         1 RES1    0.0000
      8 C6         8.8641    7.8619   10.2606 C.ar      1 RES1    0.0000
      9 H3         9.5831    8.4341   10.0196 H         1 RES1    0.0000
     10 C7        11.7980    6.3962    7.9078 C.2       1 RES1    0.0000
     11 C8        11.9891    4.9199    7.5841 C.3       1 RES1    0.0000
     12 H4        11.2505    4.5831    7.0176 H         1 RES1    0.0000
     13 H5        12.0318    4.3782    8.4119 H         1 RES1    0.0000
     14 C9        13.3272    4.8720    6.8273 C.3       1 RES1    0.0000
     15 H6        13.8367    4.0583    7.0695 H         1 RES1    0.0000
     16 H7        13.1757    4.8745    5.8484 H         1 RES1    0.0000
     17 C10       14.0847    6.1352    7.2615 C.3       1 RES1    0.0000
     18 H8        14.5823    5.9807    8.1031 H         1 RES1    0.0000
     19 H9        14.7196    6.4283    6.5603 H         1 RES1    0.0000
     20 C11       12.9792    7.1599    7.4609 C.2       1 RES1    0.0000
     21 C12       13.0386    8.4785    7.1621 C.2       1 RES1    0.0000
     22 C13       11.8368    9.3966    7.1863 C.3       1 RES1    0.0000
     23 H10       11.0223    8.8549    7.0388 H         1 RES1    0.0000
     24 H11       11.9118   10.0357    6.4330 H         1 RES1    0.0000
     25 C14       11.6681   10.1875    8.4810 C.ar      1 RES1    0.0000
     26 C15       12.2188    9.7843    9.6909 C.ar      1 RES1    0.0000
     27 H12       12.7594    9.0037    9.7143 H         1 RES1    0.0000
     28 C16       11.9991   10.4971   10.8787 C.ar      1 RES1    0.0000
     29 H13       12.3887   10.2055   11.6945 H         1 RES1    0.0000
     30 C17       11.2029   11.6375   10.8460 C.ar      1 RES1    0.0000
     31 C18       10.6455   12.0656    9.6395 C.ar      1 RES1    0.0000
     32 H14       10.1089   12.8497    9.6153 H         1 RES1    0.0000
     33 C19       10.8749   11.3471    8.4785 C.ar      1 RES1    0.0000
     34 H15       10.4882   11.6447    7.6635 H         1 RES1    0.0000
     35 C20       11.5217   12.0378   13.1821 C.3       1 RES1    0.0000
     36 H16       11.2561   11.1260   13.4235 H         1 RES1    0.0000
     37 H17       11.2384   12.6571   13.8867 H         1 RES1    0.0000
     38 H18       12.4954   12.0795   13.0817 H         1 RES1    0.0000
     39 C21       14.3361    9.0869    6.7556 C.ar      1 RES1    0.0000
     40 C22       14.4857    9.7244    5.5193 C.ar      1 RES1    0.0000
     41 H19       13.7303    9.8103    4.9503 H         1 RES1    0.0000
     42 C23       15.7097   10.2371    5.0993 C.ar      1 RES1    0.0000
     43 H20       15.7901   10.6497    4.2478 H         1 RES1    0.0000
     44 C24       16.8205   10.1381    5.9431 C.ar      1 RES1    0.0000
     45 C25       16.6845    9.5428    7.2023 C.ar      1 RES1    0.0000
     46 H21       17.4291    9.5019    7.7908 H         1 RES1    0.0000
     47 C26       15.4670    9.0139    7.5900 C.ar      1 RES1    0.0000
     48 H22       15.3923    8.5920    8.4379 H         1 RES1    0.0000
     49 C27       18.3017   11.0475    4.2963 C.3       1 RES1    0.0000
     50 H23       18.0292   10.3648    3.6479 H         1 RES1    0.0000
     51 H24       19.2525   11.2514    4.1759 H         1 RES1    0.0000
     52 H25       17.7736   11.8607    4.1559 H         1 RES1    0.0000
     53 N1        10.8284    6.9456    8.5589 N.2       1 RES1    0.0000
     54 N2         9.8255    6.0749    8.9454 N.pl3     1 RES1    0.0000
     55 N3         7.6264    4.3140    9.7448 N.pl3     1 RES1    0.0000
     56 N4         5.7633    7.9907   12.3269 N.pl3     1 RES1    0.0000
     57 O1         8.5783    3.7843    9.1482 O.2       1 RES1    0.0000
     58 O2         6.6040    3.7021   10.0118 O.2       1 RES1    0.0000
     59 O3         4.8587    7.2224   12.6488 O.2       1 RES1    0.0000
     60 O4         5.8532    9.1350   12.7531 O.2       1 RES1    0.0000
     61 O5        10.9014   12.4032   11.9508 O.3       1 RES1    0.0000
     62 O6        18.0825   10.5591    5.6233 O.3       1 RES1    0.0000
     63 H26        9.7833    5.1958    8.6889 H         1 RES1    0.0000
@<TRIPOS>BOND
     1    1    2 ar
     2    2    3 ar
     3    3    4 1
     4    5    3 ar
     5    6    5 ar
     6    7    6 1
     7    8    1 ar
     8    9    8 1
     9   10   11 1
    10   11   12 1
    11   13   11 1
    12   14   11 1
    13   15   14 1
    14   16   14 1
    15   17   14 1
    16   18   17 1
    17   19   17 1
    18   20   10 1
    19   21   20 2
    20   22   21 1
    21   23   22 1
    22   24   22 1
    23   25   22 1
    24   26   25 ar
    25   27   26 1
    26   28   26 ar
    27   29   28 1
    28   30   28 ar
    29   31   30 ar
    30   32   31 1
    31   33   25 ar
    32   34   33 1
    33   35   36 1
    34   37   35 1
    35   38   35 1
    36   39   21 1
    37   40   39 ar
    38   41   40 1
    39   42   40 ar
    40   43   42 1
    41   44   42 ar
    42   45   44 ar
    43   46   45 1
    44   47   39 ar
    45   48   47 1
    46   49   50 1
    47   51   49 1
    48   52   49 1
    49   53   10 2
    50   54    1 1
    51   55    2 1
    52   56    5 1
    53   57   55 2
    54   58   55 2
    55   59   56 2
    56   60   56 2
    57   61   30 1
    58   62   44 1
    59   63   54 1
    60    6    8 ar
    61   17   20 1
    62   31   33 ar
    63   35   61 1
    64   45   47 ar
    65   49   62 1
    66   53   54 1
@<TRIPOS>SUBSTRUCTURE
     1 RES1 1

@<TRIPOS>CRYSIN
   8.8860   11.9100   12.3600  87.8370  72.4860  84.6910   2 1

