# MOL2 file generated by ConQuest
# Please check atom types

@<TRIPOS>MOLECULE
FACZAN
    61    64     1
SMALL
NO_CHARGES
****
Generated from CSD

@<TRIPOS>ATOM
      1 C1         4.8426    6.0050    7.9266 C.2       1 RES1    0.0000
      2 C2         6.2183    6.0768    7.3094 C.3       1 RES1    0.0000
      3 H1         6.7020    6.8866    7.6094 H         1 RES1    0.0000
      4 H2         6.1657    6.0788    6.3213 H         1 RES1    0.0000
      5 C3         6.8966    4.8133    7.8182 C.3       1 RES1    0.0000
      6 H3         7.2806    4.9536    8.7199 H         1 RES1    0.0000
      7 H4         7.6150    4.5215    7.2027 H         1 RES1    0.0000
      8 C4         5.7533    3.7904    7.8589 C.3       1 RES1    0.0000
      9 H5         5.6316    3.3663    6.9735 H         1 RES1    0.0000
     10 H6         5.9371    3.0845    8.5287 H         1 RES1    0.0000
     11 C5         4.5191    4.5950    8.2462 C.2       1 RES1    0.0000
     12 C6         3.3689    4.1081    8.7814 C.2       1 RES1    0.0000
     13 C7         2.2177    5.0248    9.1502 C.3       1 RES1    0.0000
     14 H7         1.3857    4.4896    9.1674 H         1 RES1    0.0000
     15 H8         2.1189    5.7050    8.4379 H         1 RES1    0.0000
     16 C8         2.3554    5.7446   10.4862 C.ar      1 RES1    0.0000
     17 C9         3.4971    5.6877   11.2704 C.ar      1 RES1    0.0000
     18 H9         4.2341    5.1602   10.9857 H         1 RES1    0.0000
     19 C10        3.5799    6.3918   12.4696 C.ar      1 RES1    0.0000
     20 H10        4.3632    6.3193   13.0019 H         1 RES1    0.0000
     21 C11        2.5324    7.2005   12.8981 C.ar      1 RES1    0.0000
     22 C12        1.3982    7.2595   12.1131 C.ar      1 RES1    0.0000
     23 H11        0.6720    7.8089   12.3863 H         1 RES1    0.0000
     24 C13        1.2934    6.5332   10.9302 C.ar      1 RES1    0.0000
     25 H12        0.4919    6.5748   10.4216 H         1 RES1    0.0000
     26 C14        2.6191    7.9511   14.2046 C.3       1 RES1    0.0000
     27 H13        3.2496    8.6956   14.1124 H         1 RES1    0.0000
     28 H14        2.9295    7.3449   14.9097 H         1 RES1    0.0000
     29 H15        1.7342    8.2992   14.4406 H         1 RES1    0.0000
     30 C15        3.1332    2.6648    9.0622 C.ar      1 RES1    0.0000
     31 C16        3.6011    1.6288    8.2440 C.ar      1 RES1    0.0000
     32 H16        4.1430    1.8428    7.4928 H         1 RES1    0.0000
     33 C17        3.2967    0.3032    8.4976 C.ar      1 RES1    0.0000
     34 H17        3.6465   -0.3719    7.9294 H         1 RES1    0.0000
     35 C18        2.4859   -0.0594    9.5708 C.ar      1 RES1    0.0000
     36 C19        2.0115    0.9530   10.3971 C.ar      1 RES1    0.0000
     37 H18        1.4616    0.7345   11.1403 H         1 RES1    0.0000
     38 C20        2.3338    2.2843   10.1485 C.ar      1 RES1    0.0000
     39 H19        2.0027    2.9549   10.7335 H         1 RES1    0.0000
     40 C21        2.1126   -1.5047    9.7938 C.3       1 RES1    0.0000
     41 H20        1.7135   -1.8691    8.9762 H         1 RES1    0.0000
     42 H21        1.4662   -1.5648   10.5274 H         1 RES1    0.0000
     43 H22        2.9154   -2.0175   10.0216 H         1 RES1    0.0000
     44 C22        3.8697    9.3568    8.1673 C.ar      1 RES1    0.0000
     45 C23        4.2402   10.6554    7.7043 C.ar      1 RES1    0.0000
     46 C24        3.5224   11.7838    8.0658 C.ar      1 RES1    0.0000
     47 H23        3.7952   12.6423    7.7654 H         1 RES1    0.0000
     48 C25        2.4202   11.6516    8.8562 C.ar      1 RES1    0.0000
     49 C26        2.0175   10.4005    9.3526 C.ar      1 RES1    0.0000
     50 H24        1.2525   10.3299    9.9118 H         1 RES1    0.0000
     51 C27        2.7390    9.2843    9.0216 C.ar      1 RES1    0.0000
     52 H25        2.4762    8.4420    9.3721 H         1 RES1    0.0000
     53 N1         4.0595    7.0008    8.2147 N.2       1 RES1    0.0000
     54 N2         4.5366    8.2367    7.8109 N.pl3     1 RES1    0.0000
     55 N3         5.3728   10.8621    6.8263 N.pl3     1 RES1    0.0000
     56 N4         1.6339   12.8341    9.1895 N.pl3     1 RES1    0.0000
     57 O1         6.0579    9.8892    6.4768 O.2       1 RES1    0.0000
     58 O2         5.6176   12.0044    6.4444 O.2       1 RES1    0.0000
     59 O3         2.0362   13.9300    8.8110 O.2       1 RES1    0.0000
     60 O4         0.5898   12.6716    9.8241 O.2       1 RES1    0.0000
     61 H26        5.2977    8.3105    7.2677 H         1 RES1    0.0000
@<TRIPOS>BOND
     1    1    2 1
     2    2    3 1
     3    4    2 1
     4    5    2 1
     5    6    5 1
     6    7    5 1
     7    8    5 1
     8    9    8 1
     9   10    8 1
    10   11    1 1
    11   12   11 2
    12   13   12 1
    13   14   13 1
    14   15   13 1
    15   16   13 1
    16   17   16 ar
    17   18   17 1
    18   19   17 ar
    19   20   19 1
    20   21   19 ar
    21   22   21 ar
    22   23   22 1
    23   24   16 ar
    24   25   24 1
    25   26   21 1
    26   27   26 1
    27   28   26 1
    28   29   26 1
    29   30   12 1
    30   31   30 ar
    31   32   31 1
    32   33   31 ar
    33   34   33 1
    34   35   33 ar
    35   36   35 ar
    36   37   36 1
    37   38   30 ar
    38   39   38 1
    39   40   35 1
    40   41   40 1
    41   42   40 1
    42   43   40 1
    43   44   45 ar
    44   45   46 ar
    45   46   47 1
    46   48   46 ar
    47   49   48 ar
    48   50   49 1
    49   51   44 ar
    50   52   51 1
    51   53    1 2
    52   54   44 1
    53   55   45 1
    54   56   48 1
    55   57   55 2
    56   58   55 2
    57   59   56 2
    58   60   56 2
    59   61   54 1
    60    8   11 1
    61   22   24 ar
    62   36   38 ar
    63   49   51 ar
    64   53   54 1
@<TRIPOS>SUBSTRUCTURE
     1 RES1 1

@<TRIPOS>CRYSIN
   9.0490   18.7850   13.9240  90.0000 103.1440  90.0000 231 1

