# MOL2 file generated by ConQuest
# Please check atom types

@<TRIPOS>MOLECULE
FADGUM
    35    36     1
SMALL
NO_CHARGES
****
Generated from CSD

@<TRIPOS>ATOM
      1 C1         1.1399    6.1332    8.1733 C.2       1 RES1    0.0000
      2 O1         2.0658    5.6402    8.9698 O.3       1 RES1    0.0000
      3 O2         0.3804    7.0343    8.4468 O.2       1 RES1    0.0000
      4 C2         2.1691    6.2369   10.3219 C.3       1 RES1    0.0000
      5 C3         3.3090    7.2207   10.3111 C.3       1 RES1    0.0000
      6 C4         1.1077    5.4340    6.8473 C.ar      1 RES1    0.0000
      7 C5         2.0813    4.5142    6.4718 C.ar      1 RES1    0.0000
      8 C6         1.9421    3.8855    5.2478 C.ar      1 RES1    0.0000
      9 C7         0.8857    4.1105    4.3905 C.ar      1 RES1    0.0000
     10 C8        -0.0272    5.0612    4.7920 C.ar      1 RES1    0.0000
     11 C9         0.0550    5.7174    5.9987 C.ar      1 RES1    0.0000
     12 N1         2.9731    2.9139    4.8398 N.pl3     1 RES1    0.0000
     13 O3         4.0178    2.8863    5.4713 O.2       1 RES1    0.0000
     14 O4         2.7263    2.1904    3.8827 O.2       1 RES1    0.0000
     15 N2        -1.1813    5.3447    3.9152 N.pl3     1 RES1    0.0000
     16 O5        -1.9427    6.2325    4.2494 O.2       1 RES1    0.0000
     17 O6        -1.3162    4.6774    2.9082 O.2       1 RES1    0.0000
     18 C10        2.3274    5.0954   11.2877 C.ar      1 RES1    0.0000
     19 C11        1.3570    4.8892   12.2470 C.ar      1 RES1    0.0000
     20 C12        1.4819    3.8723   13.1716 C.ar      1 RES1    0.0000
     21 C13        2.5612    3.0484   13.1390 C.ar      1 RES1    0.0000
     22 C14        3.5391    3.2304   12.1949 C.ar      1 RES1    0.0000
     23 C15        3.4240    4.2539   11.2639 C.ar      1 RES1    0.0000
     24 H1         1.3935    6.7343   10.5911 H         1 RES1    0.0000
     25 H2         3.4450    7.5615   11.1966 H         1 RES1    0.0000
     26 H3         3.1420    7.9508    9.7099 H         1 RES1    0.0000
     27 H4         4.0932    6.7453   10.0268 H         1 RES1    0.0000
     28 H5         2.8278    4.3223    7.0426 H         1 RES1    0.0000
     29 H6         0.7917    3.6330    3.5615 H         1 RES1    0.0000
     30 H7        -0.6098    6.3637    6.2461 H         1 RES1    0.0000
     31 H8         0.5851    5.4605   12.2709 H         1 RES1    0.0000
     32 H9         0.8028    3.7454   13.8378 H         1 RES1    0.0000
     33 H10        2.6410    2.3381   13.7792 H         1 RES1    0.0000
     34 H11        4.3029    2.6492   12.1754 H         1 RES1    0.0000
     35 H12        4.1081    4.3785   10.6019 H         1 RES1    0.0000
@<TRIPOS>BOND
     1    1    2 1
     2    2    4 1
     3    3    1 2
     4    4    5 1
     5    5   25 1
     6    6    1 1
     7    7    6 ar
     8    8    7 ar
     9    9    8 ar
    10   10    9 ar
    11   11    6 ar
    12   12    8 1
    13   13   12 2
    14   14   12 2
    15   15   10 1
    16   16   15 2
    17   17   15 2
    18   18    4 1
    19   19   18 ar
    20   20   19 ar
    21   21   20 ar
    22   22   21 ar
    23   23   18 ar
    24   24    4 1
    25   26    5 1
    26   27    5 1
    27   28    7 1
    28   29    9 1
    29   30   11 1
    30   31   19 1
    31   32   20 1
    32   33   21 1
    33   34   22 1
    34   35   23 1
    35   10   11 ar
    36   22   23 ar
@<TRIPOS>SUBSTRUCTURE
     1 RES1 1

@<TRIPOS>CRYSIN
   6.1850   11.0290   21.7030  90.0000  90.0000  90.0000  19 1

