# MOL2 file generated by ConQuest
# Please check atom types

@<TRIPOS>MOLECULE
FADGOG
    39    40     1
SMALL
NO_CHARGES
****
Generated from CSD

@<TRIPOS>ATOM
      1 C1         2.8937    6.9591   10.4310 C.2       1 RES1    0.0000
      2 O1         2.1505    6.3564   11.3468 O.3       1 RES1    0.0000
      3 O2         2.7585    8.0862   10.0260 O.2       1 RES1    0.0000
      4 C2         1.0629    7.1398   11.9729 C.3       1 RES1    0.0000
      5 C3         1.6229    7.6658   13.2770 C.3       1 RES1    0.0000
      6 C4         3.9701    6.0495    9.9220 C.ar      1 RES1    0.0000
      7 C5         4.2305    4.8169   10.5257 C.ar      1 RES1    0.0000
      8 C6         5.2219    4.0223   10.0019 C.ar      1 RES1    0.0000
      9 C7         5.9819    4.3756    8.9225 C.ar      1 RES1    0.0000
     10 C8         5.7114    5.6002    8.3559 C.ar      1 RES1    0.0000
     11 C9         4.7200    6.4460    8.8259 C.ar      1 RES1    0.0000
     12 N1         5.4756    2.7066   10.6446 N.pl3     1 RES1    0.0000
     13 O3         6.2200    1.9344   10.0706 O.2       1 RES1    0.0000
     14 O4         4.9156    2.4796   11.7035 O.2       1 RES1    0.0000
     15 N2         6.5017    6.0111    7.1782 N.pl3     1 RES1    0.0000
     16 O5         7.4796    5.3493    6.8902 O.2       1 RES1    0.0000
     17 O6         6.1250    7.0039    6.5670 O.2       1 RES1    0.0000
     18 C10       -0.1017    6.2109   12.0918 C.ar      1 RES1    0.0000
     19 C11       -0.1028    5.1238   12.9667 C.ar      1 RES1    0.0000
     20 C12       -1.1434    4.2445   13.0206 C.ar      1 RES1    0.0000
     21 C13       -2.2432    4.4172   12.2032 C.ar      1 RES1    0.0000
     22 C14       -2.2812    5.5187   11.3375 C.ar      1 RES1    0.0000
     23 C15       -1.2261    6.3884   11.3041 C.ar      1 RES1    0.0000
     24 O7        -3.3285    3.5891   12.1456 O.3       1 RES1    0.0000
     25 C16       -3.2145    2.3421   12.8404 C.3       1 RES1    0.0000
     26 H1         0.7533    7.9024   11.4787 H         1 RES1    0.0000
     27 H2         0.8651    8.1342   13.6355 H         1 RES1    0.0000
     28 H3         2.3639    8.2701   13.1971 H         1 RES1    0.0000
     29 H4         1.8599    6.9448   13.8640 H         1 RES1    0.0000
     30 H5         3.7275    4.5307   11.2930 H         1 RES1    0.0000
     31 H6         6.6671    3.7985    8.5770 H         1 RES1    0.0000
     32 H7         4.5569    7.2917    8.4005 H         1 RES1    0.0000
     33 H8         0.6505    4.9911   13.5463 H         1 RES1    0.0000
     34 H9        -1.1110    3.5012   13.6281 H         1 RES1    0.0000
     35 H10       -3.0435    5.6610   10.7709 H         1 RES1    0.0000
     36 H11       -1.2675    7.1478   10.7171 H         1 RES1    0.0000
     37 H12       -4.0148    1.8273   12.7104 H         1 RES1    0.0000
     38 H13       -3.0971    2.5211   13.7767 H         1 RES1    0.0000
     39 H14       -2.4601    1.8465   12.5135 H         1 RES1    0.0000
@<TRIPOS>BOND
     1    1    2 1
     2    2    4 1
     3    3    1 2
     4    4    5 1
     5    5   27 1
     6    6    1 1
     7    7    6 ar
     8    8    7 ar
     9    9    8 ar
    10   10    9 ar
    11   11    6 ar
    12   12    8 1
    13   13   12 2
    14   14   12 2
    15   15   10 1
    16   16   15 2
    17   17   15 2
    18   18    4 1
    19   19   18 ar
    20   20   19 ar
    21   21   20 ar
    22   22   21 ar
    23   23   18 ar
    24   24   21 1
    25   25   24 1
    26   26    4 1
    27   28    5 1
    28   29    5 1
    29   30    7 1
    30   31    9 1
    31   32   11 1
    32   33   19 1
    33   34   20 1
    34   35   22 1
    35   36   23 1
    36   37   25 1
    37   38   25 1
    38   39   25 1
    39   10   11 ar
    40   22   23 ar
@<TRIPOS>SUBSTRUCTURE
     1 RES1 1

@<TRIPOS>CRYSIN
  11.1770   15.9870   18.5770  90.0000  90.0000  90.0000  61 1

