# MOL2 file generated by ConQuest
# Please check atom types

@<TRIPOS>MOLECULE
FADHAW
   130   138     2
SMALL
NO_CHARGES
****
Generated from CSD

@<TRIPOS>ATOM
      1 C1         4.8899    3.0065   11.7615 C.2       1 RES1    0.0000
      2 C2         5.1228    2.7742   13.1962 C.2       1 RES1    0.0000
      3 C3         6.2261    1.7325   13.2926 C.3       1 RES1    0.0000
      4 H1         6.0780    1.1295   14.0626 H         1 RES1    0.0000
      5 H2         7.1120    2.1632   13.3880 H         1 RES1    0.0000
      6 C4         6.1283    0.9649   11.9693 C.3       1 RES1    0.0000
      7 H3         5.3698    0.3201   12.0607 H         1 RES1    0.0000
      8 C5         5.6927    2.0275   10.9445 C.3       1 RES1    0.0000
      9 H4         6.4782    2.4680   10.5350 H         1 RES1    0.0000
     10 H5         5.1396    1.6245   10.2295 H         1 RES1    0.0000
     11 C6         7.3568    0.1549   11.5822 C.ar      1 RES1    0.0000
     12 C7         8.0817   -0.5339   12.5547 C.ar      1 RES1    0.0000
     13 H6         7.8232   -0.4622   13.4654 H         1 RES1    0.0000
     14 C8         9.1708   -1.3192   12.2175 C.ar      1 RES1    0.0000
     15 H7         9.6557   -1.7741   12.8960 H         1 RES1    0.0000
     16 C9         9.5539   -1.4429   10.8987 C.ar      1 RES1    0.0000
     17 H8        10.2999   -1.9830   10.6660 H         1 RES1    0.0000
     18 C10        8.8412   -0.7743    9.9168 C.ar      1 RES1    0.0000
     19 H9         9.0985   -0.8587    9.0054 H         1 RES1    0.0000
     20 C11        7.7566    0.0172   10.2571 C.ar      1 RES1    0.0000
     21 H10        7.2772    0.4731    9.5748 H         1 RES1    0.0000
     22 C12        4.4028    3.2623   14.2267 C.2       1 RES1    0.0000
     23 C13        4.7198    2.8540   15.6292 C.ar      1 RES1    0.0000
     24 C14        5.8590    3.3097   16.2863 C.ar      1 RES1    0.0000
     25 H11        6.4829    3.8620   15.8283 H         1 RES1    0.0000
     26 C15        6.0852    2.9567   17.6167 C.ar      1 RES1    0.0000
     27 H12        6.8540    3.2895   18.0643 H         1 RES1    0.0000
     28 C16        5.2069    2.1293   18.2939 C.ar      1 RES1    0.0000
     29 H13        5.3717    1.8899   19.1992 H         1 RES1    0.0000
     30 C17        4.0841    1.6538   17.6356 C.ar      1 RES1    0.0000
     31 H14        3.4818    1.0724   18.0842 H         1 RES1    0.0000
     32 C18        3.8386    2.0281   16.3186 C.ar      1 RES1    0.0000
     33 H15        3.0554    1.7148   15.8819 H         1 RES1    0.0000
     34 C19        3.1793    4.1426   14.0693 C.3       1 RES1    0.0000
     35 H16        2.6040    4.0090   14.8641 H         1 RES1    0.0000
     36 H17        2.6720    3.8191   13.2829 H         1 RES1    0.0000
     37 C20        3.3990    5.6361   13.9001 C.ar      1 RES1    0.0000
     38 C21        4.6602    6.2173   13.8005 C.ar      1 RES1    0.0000
     39 H18        5.4364    5.6775   13.8880 H         1 RES1    0.0000
     40 C22        4.7920    7.5837   13.5729 C.ar      1 RES1    0.0000
     41 H19        5.6585    7.9677   13.5150 H         1 RES1    0.0000
     42 C23        3.6821    8.3871   13.4309 C.ar      1 RES1    0.0000
     43 H20        3.7815    9.3162   13.2630 H         1 RES1    0.0000
     44 C24        2.4166    7.8276   13.5348 C.ar      1 RES1    0.0000
     45 H21        1.6454    8.3746   13.4396 H         1 RES1    0.0000
     46 C25        2.2793    6.4666   13.7793 C.ar      1 RES1    0.0000
     47 H22        1.4106    6.0929   13.8662 H         1 RES1    0.0000
     48 C26        3.1296    4.9296    9.4343 C.ar      1 RES1    0.0000
     49 C27        2.9276    5.0838    8.0396 C.ar      1 RES1    0.0000
     50 C28        2.0427    6.0285    7.5303 C.ar      1 RES1    0.0000
     51 H23        1.9391    6.1363    6.5928 H         1 RES1    0.0000
     52 C29        1.3243    6.8005    8.4012 C.ar      1 RES1    0.0000
     53 C30        1.5033    6.6983    9.7839 C.ar      1 RES1    0.0000
     54 H24        1.0049    7.2541   10.3724 H         1 RES1    0.0000
     55 C31        2.3990    5.7954   10.2868 C.ar      1 RES1    0.0000
     56 H25        2.5342    5.7475   11.2255 H         1 RES1    0.0000
     57 N1         4.1078    3.9409   11.3322 N.2       1 RES1    0.0000
     58 N2         3.9857    4.0186    9.9623 N.pl3     1 RES1    0.0000
     59 N3         3.6208    4.2639    7.0710 N.pl3     1 RES1    0.0000
     60 N4         0.3254    7.7165    7.8660 N.pl3     1 RES1    0.0000
     61 O1         4.3502    3.3419    7.4715 O.2       1 RES1    0.0000
     62 O2         3.4606    4.5042    5.8774 O.2       1 RES1    0.0000
     63 O3         0.2787    7.8800    6.6474 O.2       1 RES1    0.0000
     64 O4        -0.4466    8.2559    8.6615 O.2       1 RES1    0.0000
     65 H26        4.4520    3.4720    9.3427 H         1 RES1    0.0000
     66 C32        6.4508    1.3219   -1.7261 C.2       2 RES2    0.0000
     67 C33        6.7468    1.1604   -3.1597 C.2       2 RES2    0.0000
     68 C34        7.7069   -0.0154   -3.2764 C.3       2 RES2    0.0000
     69 H27        8.3708    0.1379   -3.9958 H         2 RES2    0.0000
     70 H28        7.2182   -0.8559   -3.4641 H         2 RES2    0.0000
     71 C35        8.3873   -0.0702   -1.9031 C.3       2 RES2    0.0000
     72 H29        9.0709    0.6589   -1.8888 H         2 RES2    0.0000
     73 C36        7.2773    0.3422   -0.9226 C.3       2 RES2    0.0000
     74 H30        6.7355   -0.4394   -0.6468 H         2 RES2    0.0000
     75 H31        7.6563    0.7729   -0.1151 H         2 RES2    0.0000
     76 C37        9.1134   -1.3575   -1.5763 C.ar      2 RES2    0.0000
     77 C38        9.0074   -1.9805   -0.3295 C.ar      2 RES2    0.0000
     78 H32        8.4108   -1.6279    0.3214 H         2 RES2    0.0000
     79 C39        9.7617   -3.1088   -0.0272 C.ar      2 RES2    0.0000
     80 H33        9.6828   -3.5146    0.8273 H         2 RES2    0.0000
     81 C40       10.6271   -3.6426   -0.9652 C.ar      2 RES2    0.0000
     82 H34       11.1491   -4.4083   -0.7559 H         2 RES2    0.0000
     83 C41       10.7249   -3.0485   -2.2159 C.ar      2 RES2    0.0000
     84 H35       11.3047   -3.4192   -2.8708 H         2 RES2    0.0000
     85 C42        9.9819   -1.9171   -2.5167 C.ar      2 RES2    0.0000
     86 H36       10.0638   -1.5170   -3.3748 H         2 RES2    0.0000
     87 C43        6.3008    1.9287   -4.1771 C.2       2 RES2    0.0000
     88 C44        6.5984    1.5415   -5.5873 C.ar      2 RES2    0.0000
     89 C45        6.1195    0.3316   -6.0982 C.ar      2 RES2    0.0000
     90 H37        5.6482   -0.2677   -5.5314 H         2 RES2    0.0000
     91 C46        6.3311    0.0025   -7.4325 C.ar      2 RES2    0.0000
     92 H38        5.9815   -0.8108   -7.7773 H         2 RES2    0.0000
     93 C47        7.0458    0.8467   -8.2616 C.ar      2 RES2    0.0000
     94 H39        7.1976    0.6123   -9.1700 H         2 RES2    0.0000
     95 C48        7.5408    2.0397   -7.7562 C.ar      2 RES2    0.0000
     96 H40        8.0420    2.6195   -8.3169 H         2 RES2    0.0000
     97 C49        7.3071    2.3904   -6.4335 C.ar      2 RES2    0.0000
     98 H41        7.6340    3.2185   -6.1028 H         2 RES2    0.0000
     99 C50        5.4882    3.1937   -3.9910 C.3       2 RES2    0.0000
    100 H42        5.6617    3.7894   -4.7616 H         2 RES2    0.0000
    101 H43        5.8171    3.6563   -3.1804 H         2 RES2    0.0000
    102 C51        3.9833    3.0141   -3.8587 C.ar      2 RES2    0.0000
    103 C52        3.3638    1.7745   -3.8140 C.ar      2 RES2    0.0000
    104 H44        3.8878    0.9871   -3.8966 H         2 RES2    0.0000
    105 C53        1.9885    1.6680   -3.6519 C.ar      2 RES2    0.0000
    106 H45        1.5822    0.8101   -3.6287 H         2 RES2    0.0000
    107 C54        1.2040    2.8038   -3.5238 C.ar      2 RES2    0.0000
    108 H46        0.2631    2.7280   -3.4125 H         2 RES2    0.0000
    109 C55        1.8070    4.0493   -3.5597 C.ar      2 RES2    0.0000
    110 H47        1.2792    4.8331   -3.4621 H         2 RES2    0.0000
    111 C56        3.1791    4.1565   -3.7367 C.ar      2 RES2    0.0000
    112 H48        3.5790    5.0173   -3.7756 H         2 RES2    0.0000
    113 C57        4.4251    2.9319    0.6172 C.ar      2 RES2    0.0000
    114 C58        4.1463    2.9572    2.0066 C.ar      2 RES2    0.0000
    115 C59        3.2296    3.8526    2.5528 C.ar      2 RES2    0.0000
    116 H49        3.0476    3.8521    3.4859 H         2 RES2    0.0000
    117 C60        2.5936    4.7366    1.7140 C.ar      2 RES2    0.0000
    118 C61        2.8146    4.7260    0.3333 C.ar      2 RES2    0.0000
    119 H50        2.3469    5.3308   -0.2301 H         2 RES2    0.0000
    120 C62        3.7069    3.8400   -0.2006 C.ar      2 RES2    0.0000
    121 H51        3.8483    3.8325   -1.1388 H         2 RES2    0.0000
    122 N5         5.5466    2.1368   -1.2908 N.2       2 RES2    0.0000
    123 N6         5.3340    2.0879    0.0675 N.pl3     2 RES2    0.0000
    124 N7         4.8261    2.0790    2.9403 N.pl3     2 RES2    0.0000
    125 N8         1.7404    5.7603    2.2939 N.pl3     2 RES2    0.0000
    126 O5         5.6077    1.2227    2.5006 O.2       2 RES2    0.0000
    127 O6         4.5941    2.1994    4.1360 O.2       2 RES2    0.0000
    128 O7         1.5757    5.7654    3.5137 O.2       2 RES2    0.0000
    129 O8         1.2559    6.6080    1.5354 O.2       2 RES2    0.0000
    130 H52        5.7812    1.5218    0.6071 H         2 RES2    0.0000
@<TRIPOS>BOND
     1    1    2 1
     2    2    3 1
     3    3    4 1
     4    5    3 1
     5    6    3 1
     6    7    6 1
     7    8    1 1
     8    9    8 1
     9   10    8 1
    10   11    6 1
    11   12   11 ar
    12   13   12 1
    13   14   12 ar
    14   15   14 1
    15   16   14 ar
    16   17   16 1
    17   18   16 ar
    18   19   18 1
    19   20   11 ar
    20   21   20 1
    21   22    2 2
    22   23   22 1
    23   24   23 ar
    24   25   24 1
    25   26   24 ar
    26   27   26 1
    27   28   26 ar
    28   29   28 1
    29   30   28 ar
    30   31   30 1
    31   32   23 ar
    32   33   32 1
    33   34   22 1
    34   35   34 1
    35   36   34 1
    36   37   34 1
    37   38   37 ar
    38   39   38 1
    39   40   38 ar
    40   41   40 1
    41   42   40 ar
    42   43   42 1
    43   44   42 ar
    44   45   44 1
    45   46   37 ar
    46   47   46 1
    47   48   49 ar
    48   49   50 ar
    49   50   51 1
    50   52   50 ar
    51   53   52 ar
    52   54   53 1
    53   55   48 ar
    54   56   55 1
    55   57    1 2
    56   58   48 1
    57   59   49 1
    58   60   52 1
    59   61   59 2
    60   62   59 2
    61   63   60 2
    62   64   60 2
    63   65   58 1
    64   66   67 1
    65   67   68 1
    66   68   69 1
    67   70   68 1
    68   71   68 1
    69   72   71 1
    70   73   66 1
    71   74   73 1
    72   75   73 1
    73   76   71 1
    74   77   76 ar
    75   78   77 1
    76   79   77 ar
    77   80   79 1
    78   81   79 ar
    79   82   81 1
    80   83   81 ar
    81   84   83 1
    82   85   76 ar
    83   86   85 1
    84   87   67 2
    85   88   87 1
    86   89   88 ar
    87   90   89 1
    88   91   89 ar
    89   92   91 1
    90   93   91 ar
    91   94   93 1
    92   95   93 ar
    93   96   95 1
    94   97   88 ar
    95   98   97 1
    96   99   87 1
    97  100   99 1
    98  101   99 1
    99  102   99 1
   100  103  102 ar
   101  104  103 1
   102  105  103 ar
   103  106  105 1
   104  107  105 ar
   105  108  107 1
   106  109  107 ar
   107  110  109 1
   108  111  102 ar
   109  112  111 1
   110  113  114 ar
   111  114  115 ar
   112  115  116 1
   113  117  115 ar
   114  118  117 ar
   115  119  118 1
   116  120  113 ar
   117  121  120 1
   118  122   66 2
   119  123  113 1
   120  124  114 1
   121  125  117 1
   122  126  124 2
   123  127  124 2
   124  128  125 2
   125  129  125 2
   126  130  123 1
   127    6    8 1
   128   18   20 ar
   129   30   32 ar
   130   44   46 ar
   131   53   55 ar
   132   57   58 1
   133   71   73 1
   134   83   85 ar
   135   95   97 ar
   136  109  111 ar
   137  118  120 ar
   138  122  123 1
@<TRIPOS>SUBSTRUCTURE
     1 RES1 1
     2 RES2 66

@<TRIPOS>CRYSIN
   9.6120   13.7220   20.6600  98.7790 100.8440 104.4140   2 1

