# MOL2 file generated by ConQuest
# Please check atom types

@<TRIPOS>MOLECULE
FADJEC
    72    59     2
SMALL
NO_CHARGES
****
Generated from CSD

@<TRIPOS>ATOM
      1 C1         4.1969    4.2064   14.3498 C.2       1 RES1    0.0000
      2 C2         2.7778    3.8583   14.2622 C.2       1 RES1    0.0000
      3 C3         2.1324    4.4479   15.4845 C.3       1 RES1    0.0000
      4 H1         2.0496    3.7712   16.1893 H         1 RES1    0.0000
      5 H2         1.2400    4.7890   15.2717 H         1 RES1    0.0000
      6 C4         3.0321    5.5707   15.9370 C.3       1 RES1    0.0000
      7 H3         3.0302    5.6384   16.9151 H         1 RES1    0.0000
      8 H4         2.7290    6.4244   15.5637 H         1 RES1    0.0000
      9 C5         4.4133    5.2356   15.4348 C.3       1 RES1    0.0000
     10 H5         4.9656    4.8685   16.1560 H         1 RES1    0.0000
     11 H6         4.8539    6.0330   15.0736 H         1 RES1    0.0000
     12 C6         2.1417    3.2369   13.2687 C.2       1 RES1    0.0000
     13 C7         0.6806    2.9905   13.2927 C.ar      1 RES1    0.0000
     14 C8        -2.0675    2.5553   13.2864 C.ar      1 RES1    0.0000
     15 C9        -0.1286    3.3608   12.2374 C.ar      1 RES1    0.0000
     16 H7         0.2522    3.7788   11.4867 H         1 RES1    0.0000
     17 C10       -1.4886    3.1275   12.2687 C.ar      1 RES1    0.0000
     18 H8        -2.0112    3.3890   11.5325 H         1 RES1    0.0000
     19 C11       -1.2812    2.1346   14.4355 C.ar      1 RES1    0.0000
     20 H9        -1.6881    1.7161   15.1716 H         1 RES1    0.0000
     21 C12        0.0858    2.3685   14.4125 C.ar      1 RES1    0.0000
     22 H10        0.6167    2.1124   15.1445 H         1 RES1    0.0000
     23 C13        2.8212    2.8254   11.9463 C.3       1 RES1    0.0000
     24 H11        2.2032    2.9656   11.1989 H         1 RES1    0.0000
     25 H12        3.6162    3.3792   11.7953 H         1 RES1    0.0000
     26 C14        3.2100    1.4016   12.0122 C.3       1 RES1    0.0000
     27 H13        2.4165    0.8613   12.2103 H         1 RES1    0.0000
     28 H14        3.8494    1.2771   12.7463 H         1 RES1    0.0000
     29 C15        3.8542    0.8987   10.6833 C.3       1 RES1    0.0000
     30 C16        2.7103    0.7790    9.7015 C.3       1 RES1    0.0000
     31 H15        2.3377    1.6653    9.5096 H         1 RES1    0.0000
     32 H16        1.9988    0.2209   10.0790 H         1 RES1    0.0000
     33 C17        3.2454    0.1408    8.3960 C.3       1 RES1    0.0000
     34 H17        4.0584    0.5928    8.1249 H         1 RES1    0.0000
     35 H18        2.5792    0.2247    7.6974 H         1 RES1    0.0000
     36 H19        3.4347   -0.7991    8.5503 H         1 RES1    0.0000
     37 C18        7.4387    3.5579   13.2760 C.ar      1 RES1    0.0000
     38 C19        8.7712    3.9894   13.4924 C.ar      1 RES1    0.0000
     39 C20        9.8478    3.3397   12.9173 C.ar      1 RES1    0.0000
     40 H20       10.7248    3.6418   13.0737 H         1 RES1    0.0000
     41 C21        9.6235    2.2532   12.1175 C.ar      1 RES1    0.0000
     42 C22        8.3292    1.7984   11.8597 C.ar      1 RES1    0.0000
     43 H21        8.1936    1.0557   11.2990 H         1 RES1    0.0000
     44 C23        7.2659    2.4335   12.4216 C.ar      1 RES1    0.0000
     45 H22        6.3973    2.1227   12.2416 H         1 RES1    0.0000
     46 N1         5.1112    3.6629   13.6224 N.2       1 RES1    0.0000
     47 N2         6.3827    4.1518   13.8401 N.pl3     1 RES1    0.0000
     48 N3         9.0847    5.1089   14.3556 N.pl3     1 RES1    0.0000
     49 N4        10.7567    1.5559   11.5446 N.pl3     1 RES1    0.0000
     50 O1         8.1654    5.7472   14.8692 O.2       1 RES1    0.0000
     51 O2        10.2642    5.3953   14.5312 O.2       1 RES1    0.0000
     52 O3        11.8722    1.9836   11.7630 O.2       1 RES1    0.0000
     53 O4        10.5419    0.5636   10.8633 O.2       1 RES1    0.0000
     54 H23        6.5265    4.7965   14.4021 H         1 RES1    0.0000
     55 H24        4.7003    1.4779   10.4356 H         1 RES1    0.0000
     56 H25        4.1731   -0.1083   10.7818 H         1 RES1    0.0000
     57 H26       -3.0894    2.3550   13.2843 H         1 RES1    0.0000
     58 C24       -0.1350    3.9953   12.8881 Du        2 SUP2    0.0000
     59 H27        0.2542    4.8057   12.6211 Du        2 SUP2    0.0000
     60 C25       -1.5058    3.8762   12.8505 Du        2 SUP2    0.0000
     61 H28       -2.0582    4.5822   12.5669 Du        2 SUP2    0.0000
     62 C26       -1.3474    1.6566   13.6451 Du        2 SUP2    0.0000
     63 H29       -1.7347    0.8429   13.9120 Du        2 SUP2    0.0000
     64 C27        0.0336    1.7865   13.6785 Du        2 SUP2    0.0000
     65 H30        0.5565    1.0557   13.9621 Du        2 SUP2    0.0000
     66 C28        3.4127    0.9907    9.1801 Du        2 SUP2    0.0000
     67 H31        3.0189    1.8694    9.0029 Du        2 SUP2    0.0000
     68 H32        4.1957    0.8851    8.6004 Du        2 SUP2    0.0000
     69 C29        2.4501   -0.0379    8.8819 Du        2 SUP2    0.0000
     70 H33        2.8799   -0.9084    8.9361 Du        2 SUP2    0.0000
     71 H34        2.0990    0.0926    7.9873 Du        2 SUP2    0.0000
     72 H35        1.7238    0.0016    9.5242 Du        2 SUP2    0.0000
@<TRIPOS>BOND
     1    1    2 1
     2    2    3 1
     3    3    4 1
     4    5    3 1
     5    6    3 1
     6    7    6 1
     7    8    6 1
     8    9    1 1
     9   10    9 1
    10   11    9 1
    11   12    2 2
    12   13   12 1
    13   14   17 ar
    14   15   13 ar
    15   16   15 1
    16   17   15 ar
    17   18   17 1
    18   19   14 ar
    19   20   19 1
    20   21   13 ar
    21   22   21 1
    22   23   12 1
    23   24   23 1
    24   25   23 1
    25   26   23 1
    26   27   26 1
    27   28   26 1
    28   29   26 1
    29   30   29 1
    30   31   30 1
    31   32   30 1
    32   33   30 1
    33   34   33 1
    34   35   33 1
    35   36   33 1
    36   37   38 ar
    37   38   39 ar
    38   39   40 1
    39   41   39 ar
    40   42   41 ar
    41   43   42 1
    42   44   37 ar
    43   45   44 1
    44   46    1 2
    45   47   37 1
    46   48   38 1
    47   49   41 1
    48   50   48 2
    49   51   48 2
    50   52   49 2
    51   53   49 2
    52   54   47 1
    53   55   29 1
    54   56   29 1
    55   57   14 1
    56    6    9 1
    57   19   21 ar
    58   42   44 ar
    59   46   47 1
@<TRIPOS>SUBSTRUCTURE
     1 RES1 1
     2 SUP2 58

@<TRIPOS>CRYSIN
  19.6930    5.4137   20.9598  90.0000  95.7460  90.0000  14 1

