# MOL2 file generated by ConQuest
# Please check atom types

@<TRIPOS>MOLECULE
FADJAY
    55    58     1
SMALL
NO_CHARGES
****
Generated from CSD

@<TRIPOS>ATOM
      1 C1         2.3894   19.4724    1.6978 C.2       1 RES1    0.0000
      2 C2         3.0562   20.8353    1.7344 C.3       1 RES1    0.0000
      3 C3         2.4842   21.4908    0.4845 C.3       1 RES1    0.0000
      4 H1         3.0674   22.1958    0.1643 H         1 RES1    0.0000
      5 H2         1.6049   21.8606    0.6573 H         1 RES1    0.0000
      6 C4         2.4080   20.3483   -0.5236 C.3       1 RES1    0.0000
      7 H3         3.2813   20.1517   -0.8957 H         1 RES1    0.0000
      8 H4         1.7951   20.5586   -1.2457 H         1 RES1    0.0000
      9 C5         1.8913   19.1814    0.3142 C.3       1 RES1    0.0000
     10 H5         0.9216   19.1459    0.2963 H         1 RES1    0.0000
     11 H6         2.2446   18.3387   -0.0111 H         1 RES1    0.0000
     12 C6         2.9141   21.5025    3.0856 C.2       1 RES1    0.0000
     13 C7         3.8966   21.4046    3.9763 C.2       1 RES1    0.0000
     14 C8         3.9386   21.8700    5.3709 C.ar      1 RES1    0.0000
     15 C9         4.5368   21.0758    6.3305 C.ar      1 RES1    0.0000
     16 H7         4.8772   20.2461    6.0853 H         1 RES1    0.0000
     17 C10        4.6406   21.4889    7.6477 C.ar      1 RES1    0.0000
     18 H8         5.0318   20.9296    8.2795 H         1 RES1    0.0000
     19 C11        4.1712   22.7144    8.0223 C.ar      1 RES1    0.0000
     20 H9         4.2479   22.9998    8.9036 H         1 RES1    0.0000
     21 C12        3.5904   23.5076    7.0892 C.ar      1 RES1    0.0000
     22 H10        3.2733   24.3474    7.3352 H         1 RES1    0.0000
     23 C13        3.4627   23.0923    5.7856 C.ar      1 RES1    0.0000
     24 H11        3.0449   23.6508    5.1691 H         1 RES1    0.0000
     25 C14        1.5972   22.0956    3.4152 C.ar      1 RES1    0.0000
     26 C15        0.7590   21.4179    4.2760 C.ar      1 RES1    0.0000
     27 H12        1.0270   20.6041    4.6387 H         1 RES1    0.0000
     28 C16       -0.4667   21.9387    4.5995 C.ar      1 RES1    0.0000
     29 H13       -1.0262   21.4732    5.1794 H         1 RES1    0.0000
     30 C17       -0.8701   23.1219    4.0844 C.ar      1 RES1    0.0000
     31 H14       -1.7047   23.4653    4.3126 H         1 RES1    0.0000
     32 C18       -0.0691   23.8116    3.2389 C.ar      1 RES1    0.0000
     33 H15       -0.3483   24.6306    2.8958 H         1 RES1    0.0000
     34 C19        1.1638   23.2970    2.8881 C.ar      1 RES1    0.0000
     35 H16        1.7061   23.7615    2.2930 H         1 RES1    0.0000
     36 C20        1.3808   16.8209    3.7047 C.ar      1 RES1    0.0000
     37 C21        0.6574   15.6155    3.6910 C.ar      1 RES1    0.0000
     38 C22        0.4394   14.8841    4.8362 C.ar      1 RES1    0.0000
     39 H17       -0.0505   14.0941    4.8022 H         1 RES1    0.0000
     40 C23        0.9445   15.3229    6.0121 C.ar      1 RES1    0.0000
     41 C24        1.6824   16.4967    6.0904 C.ar      1 RES1    0.0000
     42 H18        2.0292   16.7763    6.9061 H         1 RES1    0.0000
     43 C25        1.8935   17.2297    4.9716 C.ar      1 RES1    0.0000
     44 H19        2.3841   18.0164    5.0304 H         1 RES1    0.0000
     45 N1         2.2734   18.7859    2.7587 N.2       1 RES1    0.0000
     46 N2         1.5975   17.5728    2.6182 N.pl3     1 RES1    0.0000
     47 N3         0.0732   15.0964    2.4615 N.pl3     1 RES1    0.0000
     48 N4         0.6820   14.5629    7.2169 N.pl3     1 RES1    0.0000
     49 O1         0.1580   15.7477    1.4262 O.2       1 RES1    0.0000
     50 O2        -0.5241   14.0294    2.5177 O.2       1 RES1    0.0000
     51 O3        -0.0399   13.5971    7.1437 O.2       1 RES1    0.0000
     52 O4         1.1998   14.9147    8.2616 O.2       1 RES1    0.0000
     53 H20        4.6970   20.8808    3.7123 H         1 RES1    0.0000
     54 H21        3.9705   20.6432    1.6092 H         1 RES1    0.0000
     55 H22        1.2370   17.2678    1.8221 H         1 RES1    0.0000
@<TRIPOS>BOND
     1    1    2 1
     2    2    3 1
     3    3    4 1
     4    5    3 1
     5    6    3 1
     6    7    6 1
     7    8    6 1
     8    9    1 1
     9   10    9 1
    10   11    9 1
    11   12    2 1
    12   13   12 2
    13   14   13 1
    14   15   14 ar
    15   16   15 1
    16   17   15 ar
    17   18   17 1
    18   19   17 ar
    19   20   19 1
    20   21   19 ar
    21   22   21 1
    22   23   14 ar
    23   24   23 1
    24   25   12 1
    25   26   25 ar
    26   27   26 1
    27   28   26 ar
    28   29   28 1
    29   30   28 ar
    30   31   30 1
    31   32   30 ar
    32   33   32 1
    33   34   25 ar
    34   35   34 1
    35   36   37 ar
    36   37   38 ar
    37   38   39 1
    38   40   38 ar
    39   41   40 ar
    40   42   41 1
    41   43   36 ar
    42   44   43 1
    43   45    1 2
    44   46   36 1
    45   47   37 1
    46   48   40 1
    47   49   47 2
    48   50   47 2
    49   51   48 2
    50   52   48 2
    51   53   13 1
    52   54    2 1
    53   55   46 1
    54    6    9 1
    55   21   23 ar
    56   32   34 ar
    57   41   43 ar
    58   45   46 1
@<TRIPOS>SUBSTRUCTURE
     1 RES1 1

@<TRIPOS>CRYSIN
   8.1040   32.5500    8.6860  90.0000 101.4050  90.0000  14 1

