# MOL2 file generated by ConQuest
# Please check atom types

@<TRIPOS>MOLECULE
FADKIF
    80    84     2
SMALL
NO_CHARGES
****
Generated from CSD

@<TRIPOS>ATOM
      1 N1         4.4998    7.6041    1.3485 N.3       1 RES1    0.0000
      2 N2         4.2207    8.1124   -0.8629 N.2       1 RES1    0.0000
      3 N3         5.8478   10.1171   -5.8296 N.pl3     1 RES1    0.0000
      4 O1         7.0088    9.9585   -6.1919 O.2       1 RES1    0.0000
      5 O2         5.0246   10.7142   -6.5021 O.2       1 RES1    0.0000
      6 C1         8.0884    9.9593    1.5118 C.ar      1 RES1    0.0000
      7 C2         8.8442   10.1678    0.3553 C.ar      1 RES1    0.0000
      8 C3        10.0434   10.8562    0.4048 C.ar      1 RES1    0.0000
      9 C4        10.5099   11.3558    1.6026 C.ar      1 RES1    0.0000
     10 C5         9.7843   11.1631    2.7412 C.ar      1 RES1    0.0000
     11 C6         8.5982   10.4724    2.7070 C.ar      1 RES1    0.0000
     12 C7         4.8906    8.2781    0.2405 C.2       1 RES1    0.0000
     13 C8         6.0491    9.1544    0.3829 C.2       1 RES1    0.0000
     14 C9         6.8345    9.1853    1.4660 C.2       1 RES1    0.0000
     15 C10        6.4334    8.3336    2.6388 C.3       1 RES1    0.0000
     16 C11        4.9472    8.0846    2.6550 C.3       1 RES1    0.0000
     17 C12        3.2748    6.8317    1.3361 C.3       1 RES1    0.0000
     18 C13        4.6791    8.6001   -2.0814 C.ar      1 RES1    0.0000
     19 C14        3.8041    9.3304   -2.8657 C.ar      1 RES1    0.0000
     20 C15        4.1769    9.8276   -4.0880 C.ar      1 RES1    0.0000
     21 C16        5.4401    9.5604   -4.5522 C.ar      1 RES1    0.0000
     22 C17        6.3220    8.7920   -3.8291 C.ar      1 RES1    0.0000
     23 C18        5.9363    8.3162   -2.6058 C.ar      1 RES1    0.0000
     24 N4        -0.1482    4.7802    6.5547 N.3       2 RES2    0.0000
     25 N5        -0.9252    4.4947    4.4270 N.2       2 RES2    0.0000
     26 N6        -1.3517    5.5875   -1.0471 N.pl3     2 RES2    0.0000
     27 O3        -0.7291    6.5200   -1.5293 O.2       2 RES2    0.0000
     28 O4        -2.1453    4.9182   -1.6897 O.2       2 RES2    0.0000
     29 C19        3.9223    4.9380    5.1769 C.ar      2 RES2    0.0000
     30 C20        4.3417    4.2346    4.0543 C.ar      2 RES2    0.0000
     31 C21        5.6533    4.2973    3.6306 C.ar      2 RES2    0.0000
     32 C22        6.5674    5.0451    4.3251 C.ar      2 RES2    0.0000
     33 C23        6.1804    5.7453    5.4295 C.ar      2 RES2    0.0000
     34 C24        4.8618    5.6914    5.8563 C.ar      2 RES2    0.0000
     35 C25        0.1016    4.6303    5.2285 C.2       2 RES2    0.0000
     36 C26        1.4982    4.5899    4.8187 C.2       2 RES2    0.0000
     37 C27        2.5147    4.8992    5.6277 C.2       2 RES2    0.0000
     38 C28        2.1958    5.2798    7.0524 C.3       2 RES2    0.0000
     39 C29        0.9418    4.5859    7.5014 C.3       2 RES2    0.0000
     40 C30       -1.5102    4.7548    7.0566 C.3       2 RES2    0.0000
     41 C31       -0.8449    4.6930    3.0525 C.ar      2 RES2    0.0000
     42 C32       -1.6463    3.8809    2.2352 C.ar      2 RES2    0.0000
     43 C33       -1.7946    4.1633    0.8918 C.ar      2 RES2    0.0000
     44 C34       -1.1510    5.2528    0.3570 C.ar      2 RES2    0.0000
     45 C35       -0.3184    6.0530    1.1114 C.ar      2 RES2    0.0000
     46 C36       -0.1698    5.7556    2.4561 C.ar      2 RES2    0.0000
     47 H1         8.5186    9.7571   -0.5533 H         1 RES1    0.0000
     48 H2        10.5236   10.8697   -0.3810 H         1 RES1    0.0000
     49 H3        11.3631   11.8379    1.5871 H         1 RES1    0.0000
     50 H4        10.0804   11.5270    3.5891 H         1 RES1    0.0000
     51 H5         8.1048   10.2868    3.5333 H         1 RES1    0.0000
     52 H6         6.2432    9.7158   -0.3325 H         1 RES1    0.0000
     53 H7         6.6751    8.7642    3.3925 H         1 RES1    0.0000
     54 H8         6.8396    7.4352    2.5990 H         1 RES1    0.0000
     55 H9         4.4511    8.9490    2.8805 H         1 RES1    0.0000
     56 H10        4.7190    7.3614    3.2493 H         1 RES1    0.0000
     57 H11        2.5425    7.4463    1.5312 H         1 RES1    0.0000
     58 H12        3.3262    5.9729    1.7327 H         1 RES1    0.0000
     59 H13        3.1021    6.5113    0.4829 H         1 RES1    0.0000
     60 H14        2.9805    9.4613   -2.5262 H         1 RES1    0.0000
     61 H15        3.6001   10.3629   -4.6398 H         1 RES1    0.0000
     62 H16        7.1883    8.5787   -4.2224 H         1 RES1    0.0000
     63 H17        6.4928    7.8182   -2.1088 H         1 RES1    0.0000
     64 H18        3.7480    3.6859    3.6158 H         2 RES2    0.0000
     65 H19        5.8793    3.7485    2.9120 H         2 RES2    0.0000
     66 H20        7.4463    5.0895    4.0647 H         2 RES2    0.0000
     67 H21        6.7404    6.3044    5.8968 H         2 RES2    0.0000
     68 H22        4.5951    6.2124    6.6515 H         2 RES2    0.0000
     69 H23        1.6267    4.2830    3.9070 H         2 RES2    0.0000
     70 H24        2.9918    5.0316    7.6586 H         2 RES2    0.0000
     71 H25        2.1064    6.2433    7.1126 H         2 RES2    0.0000
     72 H26        0.6385    4.9626    8.3187 H         2 RES2    0.0000
     73 H27        1.1107    3.6129    7.5761 H         2 RES2    0.0000
     74 H28       -1.4884    4.9761    7.9280 H         2 RES2    0.0000
     75 H29       -1.8333    3.8246    7.0083 H         2 RES2    0.0000
     76 H30       -2.0871    5.3068    6.5836 H         2 RES2    0.0000
     77 H31       -2.1442    3.1450    2.6354 H         2 RES2    0.0000
     78 H32       -2.3642    3.5939    0.4125 H         2 RES2    0.0000
     79 H33        0.0922    6.9126    0.7329 H         2 RES2    0.0000
     80 H34        0.3436    6.3805    2.9533 H         2 RES2    0.0000
@<TRIPOS>BOND
     1    1   12 1
     2    2   12 2
     3    3    4 2
     4    5    3 2
     5    6    7 ar
     6    7    8 ar
     7    8    9 ar
     8    9   10 ar
     9   10   11 ar
    10   11    6 ar
    11   12   13 1
    12   13   14 2
    13   14    6 1
    14   15   14 1
    15   16    1 1
    16   17    1 1
    17   18    2 1
    18   19   18 ar
    19   20   19 ar
    20   21    3 1
    21   22   21 ar
    22   23   18 ar
    23   24   35 1
    24   25   35 2
    25   26   27 2
    26   28   26 2
    27   29   30 ar
    28   30   31 ar
    29   31   32 ar
    30   32   33 ar
    31   33   34 ar
    32   34   29 ar
    33   35   36 1
    34   36   37 2
    35   37   29 1
    36   38   37 1
    37   39   24 1
    38   40   24 1
    39   41   25 1
    40   42   41 ar
    41   43   42 ar
    42   44   26 1
    43   45   44 ar
    44   46   41 ar
    45   47    7 1
    46   48    8 1
    47   49    9 1
    48   50   10 1
    49   51   11 1
    50   52   13 1
    51   53   15 1
    52   54   15 1
    53   55   16 1
    54   56   16 1
    55   57   17 1
    56   58   17 1
    57   59   17 1
    58   60   19 1
    59   61   20 1
    60   62   22 1
    61   63   23 1
    62   64   30 1
    63   65   31 1
    64   66   32 1
    65   67   33 1
    66   68   34 1
    67   69   36 1
    68   70   38 1
    69   71   38 1
    70   72   39 1
    71   73   39 1
    72   74   40 1
    73   75   40 1
    74   76   40 1
    75   77   42 1
    76   78   43 1
    77   79   45 1
    78   80   46 1
    79   15   16 1
    80   20   21 ar
    81   22   23 ar
    82   38   39 1
    83   43   44 ar
    84   45   46 ar
@<TRIPOS>SUBSTRUCTURE
     1 RES1 1
     2 RES2 24

@<TRIPOS>CRYSIN
  16.4980    7.9300   24.2700  90.0000  90.9200  90.0000  14 1

