# MOL2 file generated by ConQuest
# Please check atom types

@<TRIPOS>MOLECULE
FAFCOE
    49    52     1
SMALL
NO_CHARGES
****
Generated from CSD

@<TRIPOS>ATOM
      1 C1         1.8752    4.8729    2.3575 C.3       1 RES1    0.0000
      2 C2         0.6860    5.4871    3.1393 C.3       1 RES1    0.0000
      3 C3         0.8239    7.0090    2.9492 C.3       1 RES1    0.0000
      4 C4         1.8994    7.2341    1.9927 C.3       1 RES1    0.0000
      5 C5         2.0965    5.8801    1.2907 C.3       1 RES1    0.0000
      6 C6         3.5652    5.8026    0.7082 C.3       1 RES1    0.0000
      7 C7         4.5916    5.7213    1.7659 C.3       1 RES1    0.0000
      8 C8         4.4528    4.5696    2.6273 C.3       1 RES1    0.0000
      9 C9         3.0900    4.5011    3.2803 C.3       1 RES1    0.0000
     10 C10        2.5070    3.0841    3.3478 C.3       1 RES1    0.0000
     11 C11        1.6920    3.3677    2.0939 C.3       1 RES1    0.0000
     12 C12        1.1633    5.7357    0.1042 C.3       1 RES1    0.0000
     13 O1         3.0917    5.2651    4.5250 O.3       1 RES1    0.0000
     14 C13        3.6645    4.7140    5.5919 C.2       1 RES1    0.0000
     15 O2         4.1963    3.6322    5.6256 O.2       1 RES1    0.0000
     16 C14        3.5472    5.5905    6.7936 C.ar      1 RES1    0.0000
     17 C15        3.0508    6.8752    6.7262 C.ar      1 RES1    0.0000
     18 C16        2.9772    7.6400    7.8697 C.ar      1 RES1    0.0000
     19 C17        3.3462    7.1459    9.0960 C.ar      1 RES1    0.0000
     20 C18        3.8164    5.8497    9.1451 C.ar      1 RES1    0.0000
     21 C19        3.9478    5.0736    8.0169 C.ar      1 RES1    0.0000
     22 N1         2.4567    9.0160    7.7716 N.pl3     1 RES1    0.0000
     23 O3         1.9457    9.3596    6.7354 O.2       1 RES1    0.0000
     24 O4         2.5625    9.7230    8.7649 O.2       1 RES1    0.0000
     25 N2         4.2246    5.3062   10.4511 N.pl3     1 RES1    0.0000
     26 O5         3.8973    5.8847   11.4566 O.2       1 RES1    0.0000
     27 O6         4.8811    4.2738   10.4327 O.2       1 RES1    0.0000
     28 H1         0.7398    5.2575    4.0682 H         1 RES1    0.0000
     29 H2        -0.1494    5.1785    2.7806 H         1 RES1    0.0000
     30 H3         1.0377    7.4256    3.7862 H         1 RES1    0.0000
     31 H4         0.0034    7.3739    2.6089 H         1 RES1    0.0000
     32 H5         1.6522    7.9114    1.3581 H         1 RES1    0.0000
     33 H6         2.7035    7.4986    2.4464 H         1 RES1    0.0000
     34 H7         3.7277    6.5871    0.1809 H         1 RES1    0.0000
     35 H8         3.6352    5.0226    0.1533 H         1 RES1    0.0000
     36 H9         4.5344    6.5126    2.3054 H         1 RES1    0.0000
     37 H10        5.4540    5.6825    1.3459 H         1 RES1    0.0000
     38 H11        4.5854    3.7752    2.1031 H         1 RES1    0.0000
     39 H12        5.1210    4.6167    3.3140 H         1 RES1    0.0000
     40 H13        1.9748    2.9146    4.1295 H         1 RES1    0.0000
     41 H14        3.1578    2.3855    3.2435 H         1 RES1    0.0000
     42 H15        2.0982    3.0575    1.2815 H         1 RES1    0.0000
     43 H16        0.7825    3.0636    2.1337 H         1 RES1    0.0000
     44 H17        0.2522    5.7768    0.4047 H         1 RES1    0.0000
     45 H18        1.3210    4.8919   -0.3280 H         1 RES1    0.0000
     46 H19        1.3275    6.4480   -0.5181 H         1 RES1    0.0000
     47 H20        2.7928    7.1634    5.9536 H         1 RES1    0.0000
     48 H21        3.2749    7.7039    9.8134 H         1 RES1    0.0000
     49 H22        4.2534    4.2776    8.1640 H         1 RES1    0.0000
@<TRIPOS>BOND
     1    1    2 1
     2    2    3 1
     3    3    4 1
     4    4    5 1
     5    5    1 1
     6    6    5 1
     7    7    6 1
     8    8    7 1
     9    9    1 1
    10   10    9 1
    11   11    1 1
    12   12    5 1
    13   13    9 1
    14   14   13 1
    15   15   14 2
    16   16   14 1
    17   17   16 ar
    18   18   17 ar
    19   19   18 ar
    20   20   19 ar
    21   21   16 ar
    22   22   18 1
    23   23   22 2
    24   24   22 2
    25   25   20 1
    26   26   25 2
    27   27   25 2
    28   28    2 1
    29   29    2 1
    30   30    3 1
    31   31    3 1
    32   32    4 1
    33   33    4 1
    34   34    6 1
    35   35    6 1
    36   36    7 1
    37   37    7 1
    38   38    8 1
    39   39    8 1
    40   40   10 1
    41   41   10 1
    42   42   11 1
    43   43   11 1
    44   44   12 1
    45   45   12 1
    46   46   12 1
    47   47   17 1
    48   48   19 1
    49   49   21 1
    50    8    9 1
    51   10   11 1
    52   20   21 ar
@<TRIPOS>SUBSTRUCTURE
     1 RES1 1

@<TRIPOS>CRYSIN
   8.0130    7.6020   30.8150  90.0000  95.8000  90.0000 231 1

