# MOL2 file generated by ConQuest
# Please check atom types

@<TRIPOS>MOLECULE
FAFCOE10
    27    30     1
SMALL
NO_CHARGES
****
Generated from CSD

@<TRIPOS>ATOM
      1 C1         1.8752    4.8729    2.3575 C.3       1 RES1    0.0000
      2 C2         0.6860    5.4871    3.1393 C.3       1 RES1    0.0000
      3 C3         0.8239    7.0090    2.9492 C.3       1 RES1    0.0000
      4 C4         1.8994    7.2341    1.9927 C.3       1 RES1    0.0000
      5 C5         2.0965    5.8801    1.2907 C.3       1 RES1    0.0000
      6 C6         3.5652    5.8026    0.7082 C.3       1 RES1    0.0000
      7 C7         4.5916    5.7213    1.7659 C.3       1 RES1    0.0000
      8 C8         4.4528    4.5696    2.6273 C.3       1 RES1    0.0000
      9 C9         3.0900    4.5011    3.2803 C.3       1 RES1    0.0000
     10 C10        2.5070    3.0841    3.3478 C.3       1 RES1    0.0000
     11 C11        1.6920    3.3677    2.0939 C.3       1 RES1    0.0000
     12 C12        1.1633    5.7357    0.1042 C.3       1 RES1    0.0000
     13 O1         3.0917    5.2651    4.5250 O.3       1 RES1    0.0000
     14 C13        3.6645    4.7140    5.5919 C.2       1 RES1    0.0000
     15 O2         4.1963    3.6322    5.6256 O.2       1 RES1    0.0000
     16 C14        3.5472    5.5905    6.7936 C.ar      1 RES1    0.0000
     17 C15        3.0508    6.8752    6.7262 C.ar      1 RES1    0.0000
     18 C16        2.9772    7.6400    7.8697 C.ar      1 RES1    0.0000
     19 C17        3.3462    7.1459    9.0960 C.ar      1 RES1    0.0000
     20 C18        3.8164    5.8497    9.1451 C.ar      1 RES1    0.0000
     21 C19        3.9478    5.0736    8.0169 C.ar      1 RES1    0.0000
     22 N1         2.4567    9.0160    7.7716 N.pl3     1 RES1    0.0000
     23 O3         1.9457    9.3596    6.7354 O.2       1 RES1    0.0000
     24 O4         2.5625    9.7230    8.7649 O.2       1 RES1    0.0000
     25 N2         4.2246    5.3062   10.4511 N.pl3     1 RES1    0.0000
     26 O5         3.8973    5.8847   11.4566 O.2       1 RES1    0.0000
     27 O6         4.8811    4.2738   10.4327 O.2       1 RES1    0.0000
@<TRIPOS>BOND
     1    1    2 1
     2    2    3 1
     3    3    4 1
     4    4    5 1
     5    5    1 1
     6    6    5 1
     7    7    6 1
     8    8    7 1
     9    9    1 1
    10   10    9 1
    11   11    1 1
    12   12    5 1
    13   13    9 1
    14   14   13 1
    15   15   14 2
    16   16   14 1
    17   17   16 ar
    18   18   17 ar
    19   19   18 ar
    20   20   19 ar
    21   21   16 ar
    22   22   18 1
    23   23   22 2
    24   24   22 2
    25   25   20 1
    26   26   25 2
    27   27   25 2
    28    8    9 1
    29   10   11 1
    30   20   21 ar
@<TRIPOS>SUBSTRUCTURE
     1 RES1 1

@<TRIPOS>CRYSIN
   8.0130    7.6020   30.8150  90.0000  95.8000  90.0000 231 1

