# MOL2 file generated by ConQuest
# Please check atom types

@<TRIPOS>MOLECULE
FAFSEK
    48    52     1
SMALL
NO_CHARGES
****
Generated from CSD

@<TRIPOS>ATOM
      1 O1         8.1093    5.6631    1.5143 O.3       1 RES1    0.0000
      2 O2         8.1171    0.3756    4.7183 O.2       1 RES1    0.0000
      3 O3         8.1755   -0.4156    2.7678 O.2       1 RES1    0.0000
      4 N1         7.2818    6.8530   -0.3249 N.3       1 RES1    0.0000
      5 N2         8.1194    0.5141    3.5176 N.pl3     1 RES1    0.0000
      6 C1         8.3922    6.0541    0.1169 C.3       1 RES1    0.0000
      7 C2         8.5595    4.8319   -0.7521 C.2       1 RES1    0.0000
      8 C3         8.5471    3.6112   -0.3159 C.2       1 RES1    0.0000
      9 C4         8.2968    3.3126    1.0938 C.ar      1 RES1    0.0000
     10 C5         8.2676    2.0319    1.6188 C.ar      1 RES1    0.0000
     11 C6         8.0868    1.8626    2.9623 C.ar      1 RES1    0.0000
     12 C7         7.8757    2.9354    3.7964 C.ar      1 RES1    0.0000
     13 C8         7.8578    4.1854    3.2860 C.ar      1 RES1    0.0000
     14 C9         8.0913    4.3993    1.9426 C.ar      1 RES1    0.0000
     15 C10        9.5800    7.0623    0.1776 C.3       1 RES1    0.0000
     16 C11        8.7694    8.3384    0.5374 C.ar      1 RES1    0.0000
     17 C12        9.1893    9.5945    1.0253 C.ar      1 RES1    0.0000
     18 C13        8.1991   10.5935    1.1793 C.ar      1 RES1    0.0000
     19 C14        6.8945   10.3487    0.8319 C.ar      1 RES1    0.0000
     20 C15        6.5038    9.1404    0.3137 C.ar      1 RES1    0.0000
     21 C16        7.5008    8.1213    0.1810 C.ar      1 RES1    0.0000
     22 C17       10.1806    7.2655   -1.2332 C.3       1 RES1    0.0000
     23 C18       10.6297    6.5959    1.1804 C.3       1 RES1    0.0000
     24 C19        5.9559    6.2557   -0.3710 C.3       1 RES1    0.0000
     25 C20       10.5163    9.9300    1.3625 C.ar      1 RES1    0.0000
     26 C21       10.8543   11.1830    1.8504 C.ar      1 RES1    0.0000
     27 C22        9.8618   12.1358    1.9966 C.ar      1 RES1    0.0000
     28 C23        8.5830   11.9065    1.6762 C.ar      1 RES1    0.0000
     29 H1         8.7683    5.1413   -1.6975 H         1 RES1    0.0000
     30 H2         8.7009    2.7861   -0.9106 H         1 RES1    0.0000
     31 H3         8.3529    1.3392    1.2029 H         1 RES1    0.0000
     32 H4         7.6456    2.6784    4.6205 H         1 RES1    0.0000
     33 H5         7.8701    4.8642    3.8110 H         1 RES1    0.0000
     34 H6         6.1973   11.0214    0.9106 H         1 RES1    0.0000
     35 H7         5.4563    8.9587    0.1574 H         1 RES1    0.0000
     36 H8         9.1725    7.6503   -1.9336 H         1 RES1    0.0000
     37 H9        10.8004    6.4497   -1.5289 H         1 RES1    0.0000
     38 H10       10.8453    8.1121   -1.1467 H         1 RES1    0.0000
     39 H11       11.6536    6.6498    0.6183 H         1 RES1    0.0000
     40 H12       10.8902    5.4799    0.7082 H         1 RES1    0.0000
     41 H13       10.3850    6.8653    1.9898 H         1 RES1    0.0000
     42 H14        6.1861    5.3260   -0.6633 H         1 RES1    0.0000
     43 H15        5.5012    6.4189    0.5846 H         1 RES1    0.0000
     44 H16        5.4002    6.9576   -0.7645 H         1 RES1    0.0000
     45 H17       11.2158    9.2666    1.0792 H         1 RES1    0.0000
     46 H18       11.8669   11.3292    1.9898 H         1 RES1    0.0000
     47 H19        9.9583   13.1148    2.2372 H         1 RES1    0.0000
     48 H20        7.6793   12.4529    1.7987 H         1 RES1    0.0000
@<TRIPOS>BOND
     1    1    6 1
     2    2    5 2
     3    3    5 2
     4    4    6 1
     5    5   11 1
     6    6    7 1
     7    7    8 2
     8    8    9 1
     9    9   10 ar
    10   10   11 ar
    11   11   12 ar
    12   12   13 ar
    13   13   14 ar
    14   14    1 1
    15   15    6 1
    16   16   15 1
    17   17   16 ar
    18   18   17 ar
    19   19   18 ar
    20   20   19 ar
    21   21    4 1
    22   22   15 1
    23   23   15 1
    24   24    4 1
    25   25   17 ar
    26   26   25 ar
    27   27   26 ar
    28   28   18 ar
    29   29    7 1
    30   30    8 1
    31   31   10 1
    32   32   12 1
    33   33   13 1
    34   34   19 1
    35   35   20 1
    36   36   22 1
    37   37   22 1
    38   38   22 1
    39   39   23 1
    40   40   23 1
    41   41   23 1
    42   42   24 1
    43   43   24 1
    44   44   24 1
    45   45   25 1
    46   46   26 1
    47   47   27 1
    48   48   28 1
    49    9   14 ar
    50   16   21 ar
    51   20   21 ar
    52   27   28 ar
@<TRIPOS>SUBSTRUCTURE
     1 RES1 1

@<TRIPOS>CRYSIN
  11.2270   15.3930   11.2420  90.0000  90.0000  90.0000  19 1

