# MOL2 file generated by ConQuest
# Please check atom types

@<TRIPOS>MOLECULE
FAFVOY
    31    33     1
SMALL
NO_CHARGES
****
Generated from CSD

@<TRIPOS>ATOM
      1 C1         5.7069    7.5916    7.3724 C.3       1 RES1    0.0000
      2 C2         4.2850    8.0359    7.8576 C.3       1 RES1    0.0000
      3 C3         3.7123    6.8470    8.6066 C.2       1 RES1    0.0000
      4 C4         4.4006    6.7254    9.7339 C.2       1 RES1    0.0000
      5 C5         5.4485    7.8113    9.7665 C.3       1 RES1    0.0000
      6 C6         6.5044    7.4493    8.6841 C.3       1 RES1    0.0000
      7 C7         4.6902    8.9296    9.0392 C.3       1 RES1    0.0000
      8 C8         6.3404    8.5814    6.3728 C.2       1 RES1    0.0000
      9 C9         7.5599    8.1733    5.6156 C.ar      1 RES1    0.0000
     10 C10        8.3902    7.1394    6.0279 C.ar      1 RES1    0.0000
     11 C11        9.5215    6.8068    5.2981 C.ar      1 RES1    0.0000
     12 C12        9.8223    7.4915    4.1439 C.ar      1 RES1    0.0000
     13 C13        9.0063    8.5245    3.7232 C.ar      1 RES1    0.0000
     14 C14        7.8830    8.8796    4.4546 C.ar      1 RES1    0.0000
     15 N1         5.5424    6.2869    6.6044 N.pl3     1 RES1    0.0000
     16 O1         5.8505    9.6839    6.2372 O.2       1 RES1    0.0000
     17 O2         4.9232    6.3713    5.5485 O.2       1 RES1    0.0000
     18 O3         5.9866    5.2373    7.0481 O.2       1 RES1    0.0000
     19 H1         3.7477    8.4058    7.1410 H         1 RES1    0.0000
     20 H2         3.0287    6.2761    8.2413 H         1 RES1    0.0000
     21 H3         4.3502    6.0250   10.3941 H         1 RES1    0.0000
     22 H4         5.8226    8.0222   10.6516 H         1 RES1    0.0000
     23 H5         7.2712    8.1095    8.6829 H         1 RES1    0.0000
     24 H6         6.8818    6.5341    8.7817 H         1 RES1    0.0000
     25 H7         5.2681    9.6830    8.7563 H         1 RES1    0.0000
     26 H8         3.8898    9.2661    9.5318 H         1 RES1    0.0000
     27 H9         8.2181    6.6557    6.8386 H         1 RES1    0.0000
     28 H10       10.1182    6.0270    5.6020 H         1 RES1    0.0000
     29 H11       10.5999    7.2227    3.5884 H         1 RES1    0.0000
     30 H12        9.1866    9.0198    2.9238 H         1 RES1    0.0000
     31 H13        7.2779    9.5829    4.1948 H         1 RES1    0.0000
@<TRIPOS>BOND
     1    1    2 1
     2    2    3 1
     3    3    4 2
     4    4    5 1
     5    5    6 1
     6    6    1 1
     7    7    2 1
     8    8    1 1
     9    9    8 1
    10   10    9 ar
    11   11   10 ar
    12   12   11 ar
    13   13   12 ar
    14   14    9 ar
    15   15    1 1
    16   16    8 2
    17   17   15 2
    18   18   15 2
    19   19    2 1
    20   20    3 1
    21   21    4 1
    22   22    5 1
    23   23    6 1
    24   24    6 1
    25   25    7 1
    26   26    7 1
    27   27   10 1
    28   28   11 1
    29   29   12 1
    30   30   13 1
    31   31   14 1
    32    5    7 1
    33   13   14 ar
@<TRIPOS>SUBSTRUCTURE
     1 RES1 1

@<TRIPOS>CRYSIN
   8.0882    9.8095   14.9990  90.0000  93.5290  90.0000  14 1

