# MOL2 file generated by ConQuest
# Please check atom types

@<TRIPOS>MOLECULE
FAGLEG
   128   136     2
SMALL
NO_CHARGES
****
Generated from CSD

@<TRIPOS>ATOM
      1 N1         0.4065    9.5375    1.3029 N.3       1 RES1    0.0000
      2 C1         0.8257    8.2869    1.5209 C.2       1 RES1    0.0000
      3 N2         1.9241    7.6833    1.2990 N.2       1 RES1    0.0000
      4 O1         2.8879    8.5928    0.8452 O.3       1 RES1    0.0000
      5 C2         4.1820    7.9399    0.7445 C.3       1 RES1    0.0000
      6 H1         4.0769    7.0561    0.3345 H         1 RES1    0.0000
      7 C3         4.7819    7.8020    2.1055 C.3       1 RES1    0.0000
      8 H2         4.1751    7.2970    2.6709 H         1 RES1    0.0000
      9 H3         5.6106    7.3040    2.0385 H         1 RES1    0.0000
     10 C4         5.0522    9.1082    2.7315 C.3       1 RES1    0.0000
     11 H4         5.4858    8.9731    3.5900 H         1 RES1    0.0000
     12 H5         4.2144    9.5687    2.8896 H         1 RES1    0.0000
     13 C5         5.9180    9.9410    1.8694 C.3       1 RES1    0.0000
     14 H6         6.7809    9.5099    1.7720 H         1 RES1    0.0000
     15 H7         6.0618   10.7993    2.2959 H         1 RES1    0.0000
     16 C6         5.3123   10.1568    0.4945 C.3       1 RES1    0.0000
     17 H8         5.9387   10.6444   -0.0643 H         1 RES1    0.0000
     18 H9         4.5049   10.6875    0.5754 H         1 RES1    0.0000
     19 C7         4.9792    8.8219   -0.1540 C.3       1 RES1    0.0000
     20 H10        4.4801    8.9794   -0.9706 H         1 RES1    0.0000
     21 H11        5.8042    8.3720   -0.3934 H         1 RES1    0.0000
     22 N3        -0.2164    7.3163    2.0402 N.pl3     1 RES1    0.0000
     23 O2         0.1550    6.3680    2.6902 O.2       1 RES1    0.0000
     24 O3        -1.3790    7.5529    1.7803 O.2       1 RES1    0.0000
     25 C8        -0.4106   10.2674    2.2738 C.3       1 RES1    0.0000
     26 H12       -0.6265    9.6818    3.0165 H         1 RES1    0.0000
     27 H13       -1.2422   10.5346    1.8529 H         1 RES1    0.0000
     28 C9         0.2975   11.4900    2.7959 C.ar      1 RES1    0.0000
     29 C10        1.4397   11.3464    3.6137 C.ar      1 RES1    0.0000
     30 H14        1.7491   10.4959    3.8234 H         1 RES1    0.0000
     31 C11        2.0892   12.4366    4.0971 C.ar      1 RES1    0.0000
     32 H15        2.8359   12.3186    4.6377 H         1 RES1    0.0000
     33 C12        1.6589   13.7322    3.7977 C.ar      1 RES1    0.0000
     34 C13        2.3301   14.9086    4.2683 C.ar      1 RES1    0.0000
     35 H16        3.0704   14.8286    4.8252 H         1 RES1    0.0000
     36 C14        1.8858   16.1475    3.9006 C.ar      1 RES1    0.0000
     37 H17        2.3195   16.9079    4.2150 H         1 RES1    0.0000
     38 C15        0.8139   16.2711    3.0771 C.ar      1 RES1    0.0000
     39 H18        0.5403   17.1235    2.8271 H         1 RES1    0.0000
     40 C16        0.1333   15.2150    2.6111 C.ar      1 RES1    0.0000
     41 H19       -0.6032   15.3409    2.0588 H         1 RES1    0.0000
     42 C17        0.5417   13.9032    2.9639 C.ar      1 RES1    0.0000
     43 C18       -0.1212   12.7491    2.4918 C.ar      1 RES1    0.0000
     44 H20       -0.8715   12.8526    1.9522 H         1 RES1    0.0000
     45 C19        0.7606   10.2460    0.0660 C.3       1 RES1    0.0000
     46 H21        1.4249    9.7334   -0.4209 H         1 RES1    0.0000
     47 H22        1.1520   11.1059    0.2886 H         1 RES1    0.0000
     48 C20       -0.4538   10.4581   -0.8171 C.ar      1 RES1    0.0000
     49 C21       -0.9157   11.7010   -1.0919 C.ar      1 RES1    0.0000
     50 H23       -0.5159   12.4334   -0.6820 H         1 RES1    0.0000
     51 C22       -2.0047   11.9156   -1.9972 C.ar      1 RES1    0.0000
     52 C23       -2.4892   13.1888   -2.2944 C.ar      1 RES1    0.0000
     53 H24       -2.1204   13.9322   -1.8749 H         1 RES1    0.0000
     54 C24       -3.4924   13.3515   -3.1891 C.ar      1 RES1    0.0000
     55 H25       -3.8012   14.2049   -3.3841 H         1 RES1    0.0000
     56 C25       -4.0683   12.2436   -3.8207 C.ar      1 RES1    0.0000
     57 H26       -4.7586   12.3699   -4.4300 H         1 RES1    0.0000
     58 C26       -3.6422   11.0108   -3.5596 C.ar      1 RES1    0.0000
     59 H27       -4.0324   10.2873   -3.9925 H         1 RES1    0.0000
     60 C27       -2.5799   10.7882   -2.6108 C.ar      1 RES1    0.0000
     61 C28       -2.1096    9.5142   -2.3128 C.ar      1 RES1    0.0000
     62 H28       -2.4972    8.7725   -2.7168 H         1 RES1    0.0000
     63 C29       -1.0758    9.3447   -1.4266 C.ar      1 RES1    0.0000
     64 H29       -0.7817    8.4873   -1.2242 H         1 RES1    0.0000
     65 N4         9.5127   10.9114    7.8735 N.3       2 RES2    0.0000
     66 C30        9.4052   10.4223    6.6263 C.2       2 RES2    0.0000
     67 N5         9.9115    9.4071    6.0495 N.2       2 RES2    0.0000
     68 O4        10.5216    8.5857    7.0016 O.3       2 RES2    0.0000
     69 C31       11.0926    7.4148    6.3750 C.3       2 RES2    0.0000
     70 H30       10.5255    7.1445    5.6230 H         2 RES2    0.0000
     71 C32       11.0939    6.3248    7.4051 C.3       2 RES2    0.0000
     72 H31       10.1784    6.0997    7.6377 H         2 RES2    0.0000
     73 H32       11.5363    6.6422    8.2075 H         2 RES2    0.0000
     74 C33       11.8054    5.0789    6.8932 C.3       2 RES2    0.0000
     75 H33       11.8774    4.4364    7.6174 H         2 RES2    0.0000
     76 H34       11.2720    4.6756    6.1892 H         2 RES2    0.0000
     77 C34       13.1549    5.3727    6.3675 C.3       2 RES2    0.0000
     78 H35       13.7328    5.6348    7.1027 H         2 RES2    0.0000
     79 H36       13.5234    4.5689    5.9704 H         2 RES2    0.0000
     80 C35       13.1373    6.4351    5.3693 C.3       2 RES2    0.0000
     81 H37       12.6705    6.1207    4.5789 H         2 RES2    0.0000
     82 H38       14.0485    6.6476    5.1120 H         2 RES2    0.0000
     83 C36       12.4657    7.6824    5.8748 C.3       2 RES2    0.0000
     84 H39       12.9978    8.0616    6.5936 H         2 RES2    0.0000
     85 H40       12.4245    8.3343    5.1579 H         2 RES2    0.0000
     86 N6         8.6238   11.2650    5.6557 N.pl3     2 RES2    0.0000
     87 O5         7.9985   10.7013    4.7817 O.2       2 RES2    0.0000
     88 O6         8.6534   12.4704    5.8267 O.2       2 RES2    0.0000
     89 C37        8.3365   11.3813    8.6034 C.3       2 RES2    0.0000
     90 H41        7.5713   11.3735    8.0090 H         2 RES2    0.0000
     91 H42        8.4852   12.2970    8.8858 H         2 RES2    0.0000
     92 C38        8.0264   10.5365    9.8166 C.ar      2 RES2    0.0000
     93 C39        8.2194    9.1855    9.8369 C.ar      2 RES2    0.0000
     94 H43        8.5756    8.7697    9.0843 H         2 RES2    0.0000
     95 C40        7.8937    8.4000   10.9681 C.ar      2 RES2    0.0000
     96 C41        8.0796    6.9996   10.9977 C.ar      2 RES2    0.0000
     97 H44        8.4346    6.5699   10.2534 H         2 RES2    0.0000
     98 C42        7.7467    6.2698   12.1019 C.ar      2 RES2    0.0000
     99 H45        7.8793    5.3493   12.1026 H         2 RES2    0.0000
    100 C43        7.2100    6.8861   13.2241 C.ar      2 RES2    0.0000
    101 H46        6.9873    6.3791   13.9720 H         2 RES2    0.0000
    102 C44        7.0103    8.2198   13.2313 C.ar      2 RES2    0.0000
    103 H47        6.6523    8.6201   13.9904 H         2 RES2    0.0000
    104 C45        7.3374    9.0274   12.1004 C.ar      2 RES2    0.0000
    105 C46        7.1450   10.4223   12.0590 C.ar      2 RES2    0.0000
    106 H48        6.7820   10.8505   12.7993 H         2 RES2    0.0000
    107 C47        7.4753   11.1537   10.9631 C.ar      2 RES2    0.0000
    108 H49        7.3381   12.0728   10.9666 H         2 RES2    0.0000
    109 C48       10.8186   10.9758    8.5487 C.3       2 RES2    0.0000
    110 H50       11.5128   10.6664    7.9465 H         2 RES2    0.0000
    111 H51       10.8117   10.3981    9.3288 H         2 RES2    0.0000
    112 C49       11.1026   12.3835    8.9652 C.ar      2 RES2    0.0000
    113 C50       10.9546   12.8115   10.1979 C.ar      2 RES2    0.0000
    114 H52       10.7142   12.2031   10.8600 H         2 RES2    0.0000
    115 C51       11.1568   14.2114   10.5672 C.ar      2 RES2    0.0000
    116 C52       10.9748   14.6844   11.8177 C.ar      2 RES2    0.0000
    117 H53       10.7227   14.0977   12.4941 H         2 RES2    0.0000
    118 C53       11.1470   15.9624   12.0971 C.ar      2 RES2    0.0000
    119 H54       11.0202   16.2408   12.9758 H         2 RES2    0.0000
    120 C54       11.5005   16.8899   11.1707 C.ar      2 RES2    0.0000
    121 H55       11.6149   17.7799   11.4151 H         2 RES2    0.0000
    122 C55       11.6889   16.4955    9.8600 C.ar      2 RES2    0.0000
    123 H56       11.9176   17.1121    9.2020 H         2 RES2    0.0000
    124 C56       11.5164   15.0721    9.5334 C.ar      2 RES2    0.0000
    125 C57       11.7038   14.6169    8.2204 C.ar      2 RES2    0.0000
    126 H57       11.9698   15.2077    7.5513 H         2 RES2    0.0000
    127 C58       11.4936   13.3144    7.9312 C.ar      2 RES2    0.0000
    128 H58       11.6022   13.0132    7.0568 H         2 RES2    0.0000
@<TRIPOS>BOND
     1    1    2 1
     2    2    3 2
     3    3    4 1
     4    4    5 1
     5    5    6 1
     6    7    5 1
     7    8    7 1
     8    9    7 1
     9   10    7 1
    10   11   10 1
    11   12   10 1
    12   13   10 1
    13   14   13 1
    14   15   13 1
    15   16   13 1
    16   17   16 1
    17   18   16 1
    18   19    5 1
    19   20   19 1
    20   21   19 1
    21   22    2 1
    22   23   22 2
    23   24   22 2
    24   25    1 1
    25   26   25 1
    26   27   25 1
    27   28   25 1
    28   29   28 ar
    29   30   29 1
    30   31   29 ar
    31   32   31 1
    32   33   31 ar
    33   34   33 ar
    34   35   34 1
    35   36   34 ar
    36   37   36 1
    37   38   36 ar
    38   39   38 1
    39   40   38 ar
    40   41   40 1
    41   42   33 ar
    42   43   28 ar
    43   44   43 1
    44   45    1 1
    45   46   45 1
    46   47   45 1
    47   48   45 1
    48   49   48 ar
    49   50   49 1
    50   51   49 ar
    51   52   51 ar
    52   53   52 1
    53   54   52 ar
    54   55   54 1
    55   56   54 ar
    56   57   56 1
    57   58   56 ar
    58   59   58 1
    59   60   51 ar
    60   61   60 ar
    61   62   61 1
    62   63   48 ar
    63   64   63 1
    64   65   66 1
    65   66   67 2
    66   67   68 1
    67   68   69 1
    68   69   70 1
    69   71   69 1
    70   72   71 1
    71   73   71 1
    72   74   71 1
    73   75   74 1
    74   76   74 1
    75   77   74 1
    76   78   77 1
    77   79   77 1
    78   80   77 1
    79   81   80 1
    80   82   80 1
    81   83   69 1
    82   84   83 1
    83   85   83 1
    84   86   66 1
    85   87   86 2
    86   88   86 2
    87   89   65 1
    88   90   89 1
    89   91   89 1
    90   92   89 1
    91   93   92 ar
    92   94   93 1
    93   95   93 ar
    94   96   95 ar
    95   97   96 1
    96   98   96 ar
    97   99   98 1
    98  100   98 ar
    99  101  100 1
   100  102  100 ar
   101  103  102 1
   102  104   95 ar
   103  105  104 ar
   104  106  105 1
   105  107   92 ar
   106  108  107 1
   107  109   65 1
   108  110  109 1
   109  111  109 1
   110  112  109 1
   111  113  112 ar
   112  114  113 1
   113  115  113 ar
   114  116  115 ar
   115  117  116 1
   116  118  116 ar
   117  119  118 1
   118  120  118 ar
   119  121  120 1
   120  122  120 ar
   121  123  122 1
   122  124  115 ar
   123  125  124 ar
   124  126  125 1
   125  127  112 ar
   126  128  127 1
   127   16   19 1
   128   40   42 ar
   129   42   43 ar
   130   58   60 ar
   131   61   63 ar
   132   80   83 1
   133  102  104 ar
   134  105  107 ar
   135  122  124 ar
   136  125  127 ar
@<TRIPOS>SUBSTRUCTURE
     1 RES1 1
     2 RES2 65

@<TRIPOS>CRYSIN
  10.2130   13.5810   18.6210  87.9400  80.8700  83.6500   2 1

