# MOL2 file generated by ConQuest
# Please check atom types

@<TRIPOS>MOLECULE
FAGPEK
    52    52     2
SMALL
NO_CHARGES
****
Generated from CSD

@<TRIPOS>ATOM
      1 O1        20.3997    3.5941    6.9032 O.3       1 RES1    0.0000
      2 O2        14.1845    8.0832    4.2046 O.3       1 RES1    0.0000
      3 O3        12.5599    6.5543    3.8492 O.2       1 RES1    0.0000
      4 O4         8.3018   11.7587    2.2796 O.2       1 RES1    0.0000
      5 O5         9.6660   13.1070    3.1947 O.2       1 RES1    0.0000
      6 N1         9.4080   12.0130    2.6809 N.pl3     1 RES1    0.0000
      7 C1        20.3060    2.1996    6.6809 C.3       1 RES1    0.0000
      8 H1        20.2293    2.0267    5.7199 H         1 RES1    0.0000
      9 H2        19.5158    1.8470    7.1415 H         1 RES1    0.0000
     10 H3        21.1104    1.7586    7.0284 H         1 RES1    0.0000
     11 C2        19.2526    4.2871    6.4640 C.3       1 RES1    0.0000
     12 H4        18.4707    4.0281    7.0124 H         1 RES1    0.0000
     13 H5        19.0600    4.0581    5.5202 H         1 RES1    0.0000
     14 C3        19.5060    5.7722    6.5944 C.3       1 RES1    0.0000
     15 H6        19.6408    5.9980    7.5488 H         1 RES1    0.0000
     16 H7        20.3350    6.0057    6.1059 H         1 RES1    0.0000
     17 C4        18.3884    6.5696    6.0606 C.1       1 RES1    0.0000
     18 C5        17.4850    7.1804    5.5708 C.1       1 RES1    0.0000
     19 C6        16.3750    7.9818    5.0237 C.3       1 RES1    0.0000
     20 H8        16.6813    8.3521    4.1465 H         1 RES1    0.0000
     21 C7        16.0781    9.1742    5.9395 C.3       1 RES1    0.0000
     22 H9        16.8898    9.7127    6.0487 H         1 RES1    0.0000
     23 H10       15.7834    8.8476    6.8154 H         1 RES1    0.0000
     24 H11       15.3714    9.7250    5.5415 H         1 RES1    0.0000
     25 C8        14.5603    6.4713    6.0114 C.3       1 RES1    0.0000
     26 H12       13.9095    5.7768    5.7744 H         1 RES1    0.0000
     27 H13       14.1181    7.1674    6.5385 H         1 RES1    0.0000
     28 H14       15.2850    6.0741    6.5372 H         1 RES1    0.0000
     29 C9        15.1347    7.0867    4.7362 C.3       1 RES1    0.0000
     30 C10       15.4682    6.0626    3.6633 C.ar      1 RES1    0.0000
     31 C11       15.3461    6.3637    2.3069 C.ar      1 RES1    0.0000
     32 H15       15.0138    7.2142    2.0446 H         1 RES1    0.0000
     33 C12       15.7025    5.4418    1.3378 C.ar      1 RES1    0.0000
     34 H16       15.6042    5.6585    0.4180 H         1 RES1    0.0000
     35 C13       16.2015    4.2079    1.7065 C.ar      1 RES1    0.0000
     36 H17       16.4470    3.5756    1.0409 H         1 RES1    0.0000
     37 C14       16.3425    3.8968    3.0336 C.ar      1 RES1    0.0000
     38 H18       16.7006    3.0540    3.2879 H         1 RES1    0.0000
     39 C15       15.9648    4.8103    4.0094 C.ar      1 RES1    0.0000
     40 H19       16.0464    4.5759    4.9265 H         1 RES1    0.0000
     41 C16       12.9475    7.6937    3.8643 C.2       1 RES1    0.0000
     42 C17       12.0747    8.8630    3.5168 C.ar      1 RES1    0.0000
     43 C18       12.5208   10.1791    3.6007 C.ar      1 RES1    0.0000
     44 H20       13.4186   10.3619    3.8536 H         1 RES1    0.0000
     45 C19       11.6512   11.2239    3.3145 C.ar      1 RES1    0.0000
     46 H21       11.9412   12.1275    3.3624 H         1 RES1    0.0000
     47 C20       10.3459   10.9143    2.9551 C.ar      1 RES1    0.0000
     48 C21        9.8875    9.6159    2.8619 C.ar      1 RES1    0.0000
     49 H22        8.9894    9.4338    2.6103 H         1 RES1    0.0000
     50 C22       10.7586    8.5941    3.1428 C.ar      1 RES1    0.0000
     51 H23       10.4632    7.6937    3.0802 H         1 RES1    0.0000
     52 O6         9.9537   13.1800    2.4360 Du        2 SUP2    0.0000
@<TRIPOS>BOND
     1    1    7 1
     2    2   29 1
     3    3   41 2
     4    4    6 2
     5    5    6 2
     6    6   47 1
     7    7    8 1
     8    9    7 1
     9   10    7 1
    10   11    1 1
    11   12   11 1
    12   13   11 1
    13   14   11 1
    14   15   14 1
    15   16   14 1
    16   17   14 1
    17   18   17 3
    18   19   18 1
    19   20   19 1
    20   21   19 1
    21   22   21 1
    22   23   21 1
    23   24   21 1
    24   25   26 1
    25   27   25 1
    26   28   25 1
    27   29   19 1
    28   30   29 1
    29   31   30 ar
    30   32   31 1
    31   33   31 ar
    32   34   33 1
    33   35   33 ar
    34   36   35 1
    35   37   35 ar
    36   38   37 1
    37   39   30 ar
    38   40   39 1
    39   41    2 1
    40   42   41 1
    41   43   42 ar
    42   44   43 1
    43   45   43 ar
    44   46   45 1
    45   47   45 ar
    46   48   47 ar
    47   49   48 1
    48   50   42 ar
    49   51   50 1
    50   25   29 1
    51   37   39 ar
    52   48   50 ar
@<TRIPOS>SUBSTRUCTURE
     1 RES1 1
     2 SUP2 52

@<TRIPOS>CRYSIN
  19.7014    7.6829   14.2858  90.0000 111.2850  90.0000   9 1

