# MOL2 file generated by ConQuest
# Please check atom types

@<TRIPOS>MOLECULE
FAGWAO
    56    59     1
SMALL
NO_CHARGES
****
Generated from CSD

@<TRIPOS>ATOM
      1 O1         3.3683    7.1906    6.5224 O.3       1 RES1    0.0000
      2 O2         1.8588    8.5969    5.7638 O.2       1 RES1    0.0000
      3 O3         4.5845   11.8413    7.3511 O.2       1 RES1    0.0000
      4 O4         4.6759   11.6076    9.5764 O.3       1 RES1    0.0000
      5 O5         1.4200   14.3717   10.3230 O.2       1 RES1    0.0000
      6 O6         3.4044   14.0396    9.3090 O.3       1 RES1    0.0000
      7 O7        -0.2240   11.2742   13.9675 O.2       1 RES1    0.0000
      8 O8        -1.6457    9.5812   14.5155 O.2       1 RES1    0.0000
      9 N1         2.0866   10.3152    7.9481 N.pl3     1 RES1    0.0000
     10 N2        -0.0681   10.7132    8.9886 N.3       1 RES1    0.0000
     11 N3        -0.5872   10.2472   13.7583 N.pl3     1 RES1    0.0000
     12 C1         4.3299    6.8174    7.4318 C.ar      1 RES1    0.0000
     13 C2         5.0333    5.6674    7.1658 C.ar      1 RES1    0.0000
     14 C3         6.0152    5.2686    8.0421 C.ar      1 RES1    0.0000
     15 C4         6.3056    6.0267    9.1581 C.ar      1 RES1    0.0000
     16 C5         5.5740    7.1740    9.4453 C.ar      1 RES1    0.0000
     17 C6         4.5629    7.5971    8.5690 C.ar      1 RES1    0.0000
     18 C7         3.7550    8.7446    8.7755 C.2       1 RES1    0.0000
     19 C8         2.8545    9.1414    7.8581 C.2       1 RES1    0.0000
     20 C9         0.6035   10.2483    7.7906 C.3       1 RES1    0.0000
     21 C10        0.2358   12.1429    9.1395 C.3       1 RES1    0.0000
     22 C11        1.7339   12.4006    9.0773 C.2       1 RES1    0.0000
     23 C12        2.5561   11.4654    8.5438 C.2       1 RES1    0.0000
     24 C13        4.0574   11.6728    8.3982 C.2       1 RES1    0.0000
     25 C14        6.1114   11.8661    9.4904 C.3       1 RES1    0.0000
     26 C15        2.1441   13.6871    9.6254 C.2       1 RES1    0.0000
     27 C16        3.8974   15.2271    9.9510 C.3       1 RES1    0.0000
     28 C17       -0.0747    9.8839   10.1205 C.ar      1 RES1    0.0000
     29 C18       -0.0094    8.4935   10.0305 C.ar      1 RES1    0.0000
     30 C19       -0.0748    7.6787   11.1398 C.ar      1 RES1    0.0000
     31 C20       -0.1994    8.2032   12.4544 C.ar      1 RES1    0.0000
     32 C21       -0.3231    9.5355   12.4702 C.ar      1 RES1    0.0000
     33 C22       -0.2237   10.3915   11.3834 C.ar      1 RES1    0.0000
     34 C23       -0.2050    7.2518   13.5783 C.3       1 RES1    0.0000
     35 C24        2.6376    8.3424    6.6508 C.2       1 RES1    0.0000
     36 H1         4.8478    5.1672    6.4046 H         1 RES1    0.0000
     37 H2         6.4866    4.4833    7.8819 H         1 RES1    0.0000
     38 H3         6.9967    5.7672    9.7247 H         1 RES1    0.0000
     39 H4         5.7538    7.6597   10.2171 H         1 RES1    0.0000
     40 H5         3.8496    9.2334    9.5618 H         1 RES1    0.0000
     41 H6         0.3345   10.7962    7.0373 H         1 RES1    0.0000
     42 H7         0.3397    9.3333    7.6066 H         1 RES1    0.0000
     43 H8        -0.1092   12.4569    9.9908 H         1 RES1    0.0000
     44 H9        -0.2058   12.6421    8.4353 H         1 RES1    0.0000
     45 H10        6.2575   12.7504    9.1462 H         1 RES1    0.0000
     46 H11        6.5172   11.2241    8.9039 H         1 RES1    0.0000
     47 H12        6.5031   11.7942   10.3641 H         1 RES1    0.0000
     48 H13        3.8747   15.1090   10.9042 H         1 RES1    0.0000
     49 H14        3.3467   15.9748    9.7088 H         1 RES1    0.0000
     50 H15        4.8007   15.3912    9.6717 H         1 RES1    0.0000
     51 H16        0.0801    8.1017    9.1912 H         1 RES1    0.0000
     52 H17       -0.0357    6.7572   11.0246 H         1 RES1    0.0000
     53 H18       -0.2600   11.3115   11.5118 H         1 RES1    0.0000
     54 H19       -1.0130    7.3592   14.0853 H         1 RES1    0.0000
     55 H20        0.5523    7.4203   14.1449 H         1 RES1    0.0000
     56 H21       -0.1580    6.3548   13.2394 H         1 RES1    0.0000
@<TRIPOS>BOND
     1    1   12 1
     2    2   35 2
     3    3   24 2
     4    4   24 1
     5    5   26 2
     6    6   26 1
     7    7   11 2
     8    8   11 2
     9    9   19 1
    10   10   20 1
    11   11   32 1
    12   12   13 ar
    13   13   14 ar
    14   14   15 ar
    15   15   16 ar
    16   16   17 ar
    17   17   12 ar
    18   18   17 1
    19   19   18 2
    20   20    9 1
    21   21   10 1
    22   22   21 1
    23   23    9 1
    24   24   23 1
    25   25    4 1
    26   26   22 1
    27   27    6 1
    28   28   10 1
    29   29   28 ar
    30   30   29 ar
    31   31   30 ar
    32   32   31 ar
    33   33   28 ar
    34   34   31 1
    35   35    1 1
    36   36   13 1
    37   37   14 1
    38   38   15 1
    39   39   16 1
    40   40   18 1
    41   41   20 1
    42   42   20 1
    43   43   21 1
    44   44   21 1
    45   45   25 1
    46   46   25 1
    47   47   25 1
    48   48   27 1
    49   49   27 1
    50   50   27 1
    51   51   29 1
    52   52   30 1
    53   53   33 1
    54   54   34 1
    55   55   34 1
    56   56   34 1
    57   19   35 1
    58   22   23 2
    59   32   33 ar
@<TRIPOS>SUBSTRUCTURE
     1 RES1 1

@<TRIPOS>CRYSIN
   9.3279   10.2240   14.0365  70.5890  86.7800  81.8240   2 1

