# MOL2 file generated by ConQuest
# Please check atom types

@<TRIPOS>MOLECULE
FAGWEP
    34    35     1
SMALL
NO_CHARGES
****
Generated from CSD

@<TRIPOS>ATOM
      1 O1        11.6177   -0.3212   -5.1874 O.2       1 RES1    0.0000
      2 C1        11.7023   -0.4001   -3.9871 C.2       1 RES1    0.0000
      3 C2        11.9515    0.8127   -3.1353 C.3       1 RES1    0.0000
      4 H1        12.8442    0.7661   -2.7852 H         1 RES1    0.0000
      5 H2        11.8625    1.5971   -3.6816 H         1 RES1    0.0000
      6 C3        10.9651    0.9140   -1.9613 C.3       1 RES1    0.0000
      7 H3        10.0865    1.0631   -2.3182 H         1 RES1    0.0000
      8 C4        10.9598   -0.3987   -1.1716 C.3       1 RES1    0.0000
      9 H4        10.3145   -0.3377   -0.4634 H         1 RES1    0.0000
     10 H5        11.8319   -0.5450   -0.7981 H         1 RES1    0.0000
     11 C5        10.5991   -1.5755   -2.0789 C.3       1 RES1    0.0000
     12 H6         9.7098   -1.4463   -2.4163 H         1 RES1    0.0000
     13 H7        10.6320   -2.3856   -1.5649 H         1 RES1    0.0000
     14 C6        11.5590   -1.6987   -3.2542 C.3       1 RES1    0.0000
     15 H8        11.2249   -2.3635   -3.8608 H         1 RES1    0.0000
     16 H9        12.4201   -1.9683   -2.9265 H         1 RES1    0.0000
     17 C7        11.2828    2.1199   -1.0465 C.3       1 RES1    0.0000
     18 H10       12.0903    1.9246   -0.5652 H         1 RES1    0.0000
     19 N1        11.4215    3.3363   -1.9389 N.pl3     1 RES1    0.0000
     20 C8        10.2303    2.3811    0.0117 C.3       1 RES1    0.0000
     21 H11       10.0747    1.5624    0.4881 H         1 RES1    0.0000
     22 H12        9.4224    2.6529   -0.4300 H         1 RES1    0.0000
     23 C9        10.6019    3.4499    1.0173 C.3       1 RES1    0.0000
     24 H13        9.8926    3.4732    1.6640 H         1 RES1    0.0000
     25 O2        10.7634    4.7021    0.3832 O.3       1 RES1    0.0000
     26 C10       11.8013    5.3961    1.0825 C.3       1 RES1    0.0000
     27 H14       12.5099    5.6369    0.4813 H         1 RES1    0.0000
     28 H15       11.4547    6.1873    1.5016 H         1 RES1    0.0000
     29 C11       12.2960    4.4208    2.1202 C.3       1 RES1    0.0000
     30 H16       11.9154    4.6108    2.9809 H         1 RES1    0.0000
     31 H17       13.2538    4.4403    2.1825 H         1 RES1    0.0000
     32 O3        11.8400    3.1611    1.6247 O.3       1 RES1    0.0000
     33 O4        12.5402    3.8415   -2.0459 O.2       1 RES1    0.0000
     34 O5        10.4377    3.7076   -2.5591 O.2       1 RES1    0.0000
@<TRIPOS>BOND
     1    1    2 2
     2    2    3 1
     3    3    4 1
     4    5    3 1
     5    6    3 1
     6    7    6 1
     7    8    6 1
     8    9    8 1
     9   10    8 1
    10   11    8 1
    11   12   11 1
    12   13   11 1
    13   14    2 1
    14   15   14 1
    15   16   14 1
    16   17    6 1
    17   18   17 1
    18   19   17 1
    19   20   17 1
    20   21   20 1
    21   22   20 1
    22   23   20 1
    23   24   23 1
    24   25   23 1
    25   26   25 1
    26   27   26 1
    27   28   26 1
    28   29   26 1
    29   30   29 1
    30   31   29 1
    31   32   23 1
    32   33   19 2
    33   34   19 2
    34   11   14 1
    35   29   32 1
@<TRIPOS>SUBSTRUCTURE
     1 RES1 1

@<TRIPOS>CRYSIN
  17.8186    8.7560    7.6868  90.0000  99.7300  90.0000 231 1

