# MOL2 file generated by ConQuest
# Please check atom types

@<TRIPOS>MOLECULE
FAHJON
    86    88     2
SMALL
NO_CHARGES
****
Generated from CSD

@<TRIPOS>ATOM
      1 C1        12.4348    0.8510    1.6878 C.2       1 RES1    0.0000
      2 C2        12.9514   -0.4377    0.9595 C.3       1 RES1    0.0000
      3 C3        14.2922    0.1033    0.3151 C.3       1 RES1    0.0000
      4 C4        14.5622    1.4627    1.1558 C.3       1 RES1    0.0000
      5 C5        15.1057    2.5557    0.2597 C.ar      1 RES1    0.0000
      6 C6        14.3534    3.6677   -0.0332 C.ar      1 RES1    0.0000
      7 C7        14.8196    4.6029   -0.9405 C.ar      1 RES1    0.0000
      8 C8        16.0452    4.4072   -1.5136 C.ar      1 RES1    0.0000
      9 C9        16.8443    3.3278   -1.2081 C.ar      1 RES1    0.0000
     10 C10       16.3620    2.4007   -0.3103 C.ar      1 RES1    0.0000
     11 C11       14.0906    0.4051   -1.1099 C.1       1 RES1    0.0000
     12 C12       15.4315   -0.8320    0.4196 C.1       1 RES1    0.0000
     13 C13       11.9435   -0.8999    0.0016 C.1       1 RES1    0.0000
     14 C14       13.2177   -1.5524    1.8984 C.1       1 RES1    0.0000
     15 C15       15.5179    1.1664    2.3259 C.2       1 RES1    0.0000
     16 C16       15.7914   -0.3480    4.1245 C.3       1 RES1    0.0000
     17 C17       11.0112    0.9298    2.1786 C.3       1 RES1    0.0000
     18 C18       10.6674   -0.2664    3.0716 C.3       1 RES1    0.0000
     19 C19       10.7736    2.2457    2.9069 C.3       1 RES1    0.0000
     20 N1        13.2735    1.7971    1.7226 N.2       1 RES1    0.0000
     21 N2        13.9538    0.6607   -2.2135 N.1       1 RES1    0.0000
     22 N3        16.3620   -1.4654    0.5288 N.1       1 RES1    0.0000
     23 N4        11.0922   -1.2071   -0.6903 N.1       1 RES1    0.0000
     24 N5        13.4337   -2.4388    2.5839 N.1       1 RES1    0.0000
     25 N6        16.5222    5.3723   -2.4969 N.pl3     1 RES1    0.0000
     26 O1        17.6740    5.3832   -2.7676 O.2       1 RES1    0.0000
     27 O2        15.7500    6.1091   -3.0273 O.2       1 RES1    0.0000
     28 O3        16.5510    1.6938    2.5269 O.2       1 RES1    0.0000
     29 O4        14.9977    0.1985    3.0589 O.3       1 RES1    0.0000
     30 H1        13.4985    3.7791    0.3642 H         1 RES1    0.0000
     31 H2        14.3084    5.3560   -1.2191 H         1 RES1    0.0000
     32 H3        17.6920    3.2354   -1.6466 H         1 RES1    0.0000
     33 H4        16.9001    1.6585   -0.0792 H         1 RES1    0.0000
     34 H5        15.2803   -1.0603    4.6391 H         1 RES1    0.0000
     35 H6        16.6482   -0.6797    3.7841 H         1 RES1    0.0000
     36 H7        16.0002    0.3263    4.8132 H         1 RES1    0.0000
     37 H8        10.3668    0.8700    1.3616 H         1 RES1    0.0000
     38 H9         9.7729   -0.1631    3.4199 H         1 RES1    0.0000
     39 H10       11.4107   -0.3806    3.9266 H         1 RES1    0.0000
     40 H11       10.3848   -1.1147    2.3908 H         1 RES1    0.0000
     41 H12        9.8809    2.3382    3.1508 H         1 RES1    0.0000
     42 H13       10.9428    2.9363    2.4224 H         1 RES1    0.0000
     43 H14       11.5187    2.0663    3.7841 H         1 RES1    0.0000
     44 C20       12.3340   -6.1526    5.8044 C.2       2 RES2    0.0000
     45 C21       12.7786   -4.8585    5.0349 C.3       2 RES2    0.0000
     46 C22       14.1356   -5.3560    4.3715 C.3       2 RES2    0.0000
     47 C23       14.4704   -6.6855    5.2344 C.3       2 RES2    0.0000
     48 C24       15.0103   -7.7948    4.3335 C.ar      2 RES2    0.0000
     49 C25       14.2652   -8.9258    4.0849 C.ar      2 RES2    0.0000
     50 C26       14.7116   -9.8665    3.1808 C.ar      2 RES2    0.0000
     51 C27       15.9156   -9.6490    2.5444 C.ar      2 RES2    0.0000
     52 C28       16.7039   -8.5479    2.8119 C.ar      2 RES2    0.0000
     53 C29       16.2468   -7.6290    3.7097 C.ar      2 RES2    0.0000
     54 C30       15.2335   -4.3664    4.4032 C.1       2 RES2    0.0000
     55 C31       13.9053   -5.7068    2.9608 C.1       2 RES2    0.0000
     56 C32       12.9928   -3.7112    5.9342 C.1       2 RES2    0.0000
     57 C33       11.7401   -4.4534    4.0802 C.1       2 RES2    0.0000
     58 C34       15.4639   -6.3402    6.3569 C.2       2 RES2    0.0000
     59 C35       15.8472   -4.7579    8.0685 C.3       2 RES2    0.0000
     60 C36       10.9428   -6.2777    6.3474 C.3       2 RES2    0.0000
     61 C37       10.5306   -5.1086    7.2167 C.3       2 RES2    0.0000
     62 C38       10.8168   -7.5963    7.1074 C.3       2 RES2    0.0000
     63 N7        13.2195   -7.0526    5.8614 N.2       2 RES2    0.0000
     64 N8        16.1298   -3.6894    4.7452 N.1       2 RES2    0.0000
     65 N9        13.7649   -5.9569    1.8556 N.1       2 RES2    0.0000
     66 N10       13.1277   -2.8085    6.6166 N.1       2 RES2    0.0000
     67 N11       10.8960   -4.1652    3.3724 N.1       2 RES2    0.0000
     68 N12       16.3710  -10.6060    1.5184 N.pl3     2 RES2    0.0000
     69 O5        15.6043  -11.4706    1.1511 O.2       2 RES2    0.0000
     70 O6        17.4689  -10.4619    1.0434 O.2       2 RES2    0.0000
     71 O7        16.4790   -6.9221    6.5786 O.2       2 RES2    0.0000
     72 O8        15.0049   -5.3125    7.0346 O.3       2 RES2    0.0000
     73 H15       13.3545   -9.0264    4.5282 H         2 RES2    0.0000
     74 H16       14.2004  -10.6577    2.9766 H         2 RES2    0.0000
     75 H17       17.6020   -8.4555    2.3433 H         2 RES2    0.0000
     76 H18       16.8101   -6.8242    3.9741 H         2 RES2    0.0000
     77 H19       15.3343   -4.2141    8.5498 H         2 RES2    0.0000
     78 H20       16.5582   -4.3501    7.6157 H         2 RES2    0.0000
     79 H21       16.1082   -5.5464    8.5815 H         2 RES2    0.0000
     80 H22       10.3848   -6.3348    5.5257 H         2 RES2    0.0000
     81 H23       11.1948   -5.0842    7.9323 H         2 RES2    0.0000
     82 H24       10.4748   -4.2413    6.6024 H         2 RES2    0.0000
     83 H25        9.5929   -5.3017    7.4890 H         2 RES2    0.0000
     84 H26        9.9709   -7.6942    7.3940 H         2 RES2    0.0000
     85 H27       10.8888   -8.2652    6.3332 H         2 RES2    0.0000
     86 H28       11.4647   -7.6398    7.9165 H         2 RES2    0.0000
@<TRIPOS>BOND
     1    1    2 1
     2    2    3 1
     3    3    4 1
     4    4    5 1
     5    5    6 ar
     6    6    7 ar
     7    7    8 ar
     8    8    9 ar
     9    9   10 ar
    10   10    5 ar
    11   11    3 1
    12   12    3 1
    13   13    2 1
    14   14    2 1
    15   15    4 1
    16   16   29 1
    17   17    1 1
    18   18   17 1
    19   19   17 1
    20   20    1 2
    21   21   11 3
    22   22   12 3
    23   23   13 3
    24   24   14 3
    25   25    8 1
    26   26   25 2
    27   27   25 2
    28   28   15 2
    29   29   15 1
    30   30    6 1
    31   31    7 1
    32   32    9 1
    33   33   10 1
    34   34   16 1
    35   35   16 1
    36   36   16 1
    37   37   17 1
    38   38   18 1
    39   39   18 1
    40   40   18 1
    41   41   19 1
    42   42   19 1
    43   43   19 1
    44   44   45 1
    45   45   46 1
    46   46   47 1
    47   47   48 1
    48   48   49 ar
    49   49   50 ar
    50   50   51 ar
    51   51   52 ar
    52   52   53 ar
    53   53   48 ar
    54   54   46 1
    55   55   46 1
    56   56   45 1
    57   57   45 1
    58   58   47 1
    59   59   72 1
    60   60   44 1
    61   61   60 1
    62   62   60 1
    63   63   44 2
    64   64   54 3
    65   65   55 3
    66   66   56 3
    67   67   57 3
    68   68   51 1
    69   69   68 2
    70   70   68 2
    71   71   58 2
    72   72   58 1
    73   73   49 1
    74   74   50 1
    75   75   52 1
    76   76   53 1
    77   77   59 1
    78   78   59 1
    79   79   59 1
    80   80   60 1
    81   81   61 1
    82   82   61 1
    83   83   61 1
    84   84   62 1
    85   85   62 1
    86   86   62 1
    87    4   20 1
    88   47   63 1
@<TRIPOS>SUBSTRUCTURE
     1 RES1 1
     2 RES2 44

@<TRIPOS>CRYSIN
  17.9980   27.1880   15.8330  90.0000  90.0000  90.0000  61 3

