# MOL2 file generated by ConQuest
# Please check atom types

@<TRIPOS>MOLECULE
FAHKII
    33    34     1
SMALL
NO_CHARGES
****
Generated from CSD

@<TRIPOS>ATOM
      1 O1        -7.4747   -0.1728   -8.0269 O.3       1 RES1    0.0000
      2 C1        -7.2795   -1.5871   -8.2872 C.3       1 RES1    0.0000
      3 H1        -7.8846   -2.0987   -7.7454 H         1 RES1    0.0000
      4 H2        -7.4497   -1.7673   -9.2146 H         1 RES1    0.0000
      5 C2        -5.8596   -1.9712   -7.9523 C.3       1 RES1    0.0000
      6 H3        -5.7733   -2.9260   -8.0032 H         1 RES1    0.0000
      7 H4        -5.2674   -1.5622   -8.5874 H         1 RES1    0.0000
      8 C3        -5.4800   -1.5156   -6.5617 C.3       1 RES1    0.0000
      9 H5        -5.9661   -2.0634   -5.9411 H         1 RES1    0.0000
     10 O2        -5.7919   -0.1174   -6.4248 O.3       1 RES1    0.0000
     11 C4        -3.9795   -1.6533   -6.3057 C.3       1 RES1    0.0000
     12 H6        -3.5198   -1.1894   -7.0093 H         1 RES1    0.0000
     13 O3        -3.6376   -3.0367   -6.2519 O.3       1 RES1    0.0000
     14 H7        -3.4029   -3.3583   -7.0925 H         1 RES1    0.0000
     15 C5        -3.6120   -1.0861   -4.9545 C.3       1 RES1    0.0000
     16 H8        -4.0976   -1.5489   -4.2678 H         1 RES1    0.0000
     17 H9        -3.8309   -0.1518   -4.9269 H         1 RES1    0.0000
     18 N1        -2.1451   -1.2652   -4.7357 N.pl3     1 RES1    0.0000
     19 O4        -1.3922   -0.7981   -5.5211 O.2       1 RES1    0.0000
     20 O5        -1.8132   -1.8728   -3.7264 O.2       1 RES1    0.0000
     21 C6        -7.1613    0.1215   -6.6770 C.3       1 RES1    0.0000
     22 H10       -7.6852   -0.4429   -6.1037 H         1 RES1    0.0000
     23 C7        -7.4736    1.5761   -6.4034 C.ar      1 RES1    0.0000
     24 C8        -6.6807    2.3149   -5.5586 C.ar      1 RES1    0.0000
     25 H11       -5.9074    1.9146   -5.1545 H         1 RES1    0.0000
     26 C9        -6.9981    3.6448   -5.2894 C.ar      1 RES1    0.0000
     27 H12       -6.4376    4.1648   -4.7088 H         1 RES1    0.0000
     28 C10       -8.1155    4.2127   -5.8567 C.ar      1 RES1    0.0000
     29 H13       -8.3449    5.1241   -5.6607 H         1 RES1    0.0000
     30 C11       -8.9103    3.4688   -6.7084 C.ar      1 RES1    0.0000
     31 H14       -9.6832    3.8697   -7.1129 H         1 RES1    0.0000
     32 C12       -8.5981    2.1479   -6.9825 C.ar      1 RES1    0.0000
     33 H15       -9.1552    1.6315   -7.5695 H         1 RES1    0.0000
@<TRIPOS>BOND
     1    1    2 1
     2    2    3 1
     3    4    2 1
     4    5    2 1
     5    6    5 1
     6    7    5 1
     7    8    5 1
     8    9    8 1
     9   10    8 1
    10   11    8 1
    11   12   11 1
    12   13   11 1
    13   14   13 1
    14   15   11 1
    15   16   15 1
    16   17   15 1
    17   18   15 1
    18   19   18 2
    19   20   18 2
    20   21    1 1
    21   22   21 1
    22   23   21 1
    23   24   23 ar
    24   25   24 1
    25   26   24 ar
    26   27   26 1
    27   28   26 ar
    28   29   28 1
    29   30   28 ar
    30   31   30 1
    31   32   23 ar
    32   33   32 1
    33   10   21 1
    34   30   32 ar
@<TRIPOS>SUBSTRUCTURE
     1 RES1 1

@<TRIPOS>CRYSIN
   8.8060    8.5280    9.0410  90.0000 112.9150  90.0000   4 1

