# MOL2 file generated by ConQuest
# Please check atom types

@<TRIPOS>MOLECULE
FAHKOO
    17    18     1
SMALL
NO_CHARGES
****
Generated from CSD

@<TRIPOS>ATOM
      1 O1        -2.4776   -7.3144   -1.3006 O.3       1 RES1    0.0000
      2 O2         1.8531    0.2529   -3.5928 O.2       1 RES1    0.0000
      3 O3         2.3248   -1.6146   -4.5277 O.2       1 RES1    0.0000
      4 N1        -1.8323   -3.7320   -0.5457 N.pl3     1 RES1    0.0000
      5 N2        -0.1423   -3.6946   -2.0966 N.ar      1 RES1    0.0000
      6 N3         1.6877   -0.9547   -3.7149 N.pl3     1 RES1    0.0000
      7 C1        -2.5165   -5.9153   -1.5036 C.3       1 RES1    0.0000
      8 C2        -1.7523   -5.1880   -0.4068 C.3       1 RES1    0.0000
      9 C3        -2.3293   -5.4140    0.9876 C.3       1 RES1    0.0000
     10 C4        -3.3569   -4.3141    1.1373 C.3       1 RES1    0.0000
     11 C5        -2.7329   -3.1095    0.4452 C.3       1 RES1    0.0000
     12 C6        -1.0003   -3.0033   -1.3053 C.ar      1 RES1    0.0000
     13 C7        -0.9906   -1.5892   -1.2534 C.ar      1 RES1    0.0000
     14 C8        -0.1176   -0.9068   -2.0494 C.ar      1 RES1    0.0000
     15 C9         0.7469   -1.6356   -2.8690 C.ar      1 RES1    0.0000
     16 C10        0.7047   -3.0018   -2.8561 C.ar      1 RES1    0.0000
     17 H1        -1.8334   -7.6915   -1.5178 H         1 RES1    0.0000
@<TRIPOS>BOND
     1    1    7 1
     2    2    6 2
     3    3    6 2
     4    4    8 1
     5    5   12 ar
     6    6   15 1
     7    7    8 1
     8    8    9 1
     9    9   10 1
    10   10   11 1
    11   11    4 1
    12   12    4 1
    13   13   12 ar
    14   14   13 ar
    15   15   14 ar
    16   16    5 ar
    17   17    1 1
    18   15   16 ar
@<TRIPOS>SUBSTRUCTURE
     1 RES1 1

@<TRIPOS>CRYSIN
   5.1820   14.9640    7.0450  90.0000 106.7600  90.0000   4 1

