# MOL2 file generated by ConQuest
# Please check atom types

@<TRIPOS>MOLECULE
FAHLAB
    42    43     1
SMALL
NO_CHARGES
****
Generated from CSD

@<TRIPOS>ATOM
      1 O1        14.9296   11.0603    6.2979 O.3       1 RES1    0.0000
      2 C1        13.5059   11.0172    6.4601 C.3       1 RES1    0.0000
      3 H1        13.2970   10.7855    7.3680 H         1 RES1    0.0000
      4 H2        13.1379   11.8806    6.2575 H         1 RES1    0.0000
      5 C2        12.9007    9.9814    5.5243 C.3       1 RES1    0.0000
      6 H3        13.0338   10.2476    4.6116 H         1 RES1    0.0000
      7 H4        11.9607    9.8948    5.6985 H         1 RES1    0.0000
      8 O2        15.0112    8.8103    5.6823 O.3       1 RES1    0.0000
      9 C3        13.5966    8.6565    5.7829 C.3       1 RES1    0.0000
     10 H5        13.3311    8.4114    6.6723 H         1 RES1    0.0000
     11 C4        13.1711    7.5224    4.8707 C.3       1 RES1    0.0000
     12 H6        12.2670    7.3296    5.1298 H         1 RES1    0.0000
     13 N1        13.3006    7.9710    3.4212 N.pl3     1 RES1    0.0000
     14 C5        13.9458    6.2122    5.0244 C.3       1 RES1    0.0000
     15 H7        14.8829    6.3253    4.8493 H         1 RES1    0.0000
     16 O3        13.3412    5.3332    4.0904 O.3       1 RES1    0.0000
     17 H8        13.7679    4.7284    3.9759 H         1 RES1    0.0000
     18 C6        13.9230    5.6744    6.4567 C.3       1 RES1    0.0000
     19 H9        14.2375    6.3779    7.0293 H         1 RES1    0.0000
     20 C7        14.8546    4.4801    6.5870 C.3       1 RES1    0.0000
     21 H10       14.8314    4.1528    7.4891 H         1 RES1    0.0000
     22 H11       15.7499    4.7471    6.3664 H         1 RES1    0.0000
     23 H12       14.5708    3.7862    5.9874 H         1 RES1    0.0000
     24 C8        12.5146    5.3289    6.9357 C.3       1 RES1    0.0000
     25 H13       11.9479    6.0983    6.8433 H         1 RES1    0.0000
     26 H14       12.5458    5.0634    7.8578 H         1 RES1    0.0000
     27 H15       12.1644    4.6083    6.4069 H         1 RES1    0.0000
     28 C9        15.5030    9.7887    6.5987 C.3       1 RES1    0.0000
     29 H16       15.2760    9.5409    7.4979 H         1 RES1    0.0000
     30 C10       16.9831    9.8807    6.4233 C.ar      1 RES1    0.0000
     31 C11       17.5355   10.1413    5.2121 C.ar      1 RES1    0.0000
     32 H17       16.9593   10.2931    4.4594 H         1 RES1    0.0000
     33 C12       18.8997   10.1940    5.0331 C.ar      1 RES1    0.0000
     34 H18       19.2597   10.3967    4.1666 H         1 RES1    0.0000
     35 C13       19.7325    9.9629    6.0683 C.ar      1 RES1    0.0000
     36 H19       20.6837    9.9877    5.9412 H         1 RES1    0.0000
     37 C14       19.2027    9.6920    7.3078 C.ar      1 RES1    0.0000
     38 H20       19.7859    9.5386    8.0550 H         1 RES1    0.0000
     39 C15       17.8323    9.6388    7.4787 C.ar      1 RES1    0.0000
     40 H21       17.4690    9.4318    8.3429 H         1 RES1    0.0000
     41 O4        14.4027    7.9807    2.9089 O.2       1 RES1    0.0000
     42 O5        12.2783    8.3139    2.8492 O.2       1 RES1    0.0000
@<TRIPOS>BOND
     1    1    2 1
     2    2    3 1
     3    4    2 1
     4    5    2 1
     5    6    5 1
     6    7    5 1
     7    8    9 1
     8    9    5 1
     9   10    9 1
    10   11    9 1
    11   12   11 1
    12   13   11 1
    13   14   11 1
    14   15   14 1
    15   16   14 1
    16   17   16 1
    17   18   14 1
    18   19   18 1
    19   20   18 1
    20   21   20 1
    21   22   20 1
    22   23   20 1
    23   24   18 1
    24   25   24 1
    25   26   24 1
    26   27   24 1
    27   28    1 1
    28   29   28 1
    29   30   28 1
    30   31   30 ar
    31   32   31 1
    32   33   31 ar
    33   34   33 1
    34   35   33 ar
    35   36   35 1
    36   37   35 ar
    37   38   37 1
    38   39   30 ar
    39   40   39 1
    40   41   13 2
    41   42   13 2
    42    8   28 1
    43   37   39 ar
@<TRIPOS>SUBSTRUCTURE
     1 RES1 1

@<TRIPOS>CRYSIN
  14.8698   16.3669    6.4860  90.0000  90.0000  90.0000  19 1

