# MOL2 file generated by ConQuest
# Please check atom types

@<TRIPOS>MOLECULE
FAHPEJ
    42    43     1
SMALL
NO_CHARGES
****
Generated from CSD

@<TRIPOS>ATOM
      1 O1        11.0273    1.1159    2.6387 O.3       1 RES1    0.0000
      2 C1        10.8401    2.1889    3.5615 C.3       1 RES1    0.0000
      3 H1        10.0234    2.0493    4.0466 H         1 RES1    0.0000
      4 H2        11.5776    2.2097    4.1758 H         1 RES1    0.0000
      5 C2        10.7642    3.5170    2.8269 C.3       1 RES1    0.0000
      6 H3        10.5494    4.2183    3.4464 H         1 RES1    0.0000
      7 H4        11.6082    3.7056    2.4102 H         1 RES1    0.0000
      8 O2         9.9003    2.2685    0.9473 O.3       1 RES1    0.0000
      9 C3         9.6785    3.4189    1.7663 C.3       1 RES1    0.0000
     10 H5         8.8753    3.3847    2.2909 H         1 RES1    0.0000
     11 C4         9.5272    4.5955    0.8122 C.3       1 RES1    0.0000
     12 H6         8.7672    4.4194    0.2527 H         1 RES1    0.0000
     13 N1        10.7854    4.7105   -0.0139 N.pl3     1 RES1    0.0000
     14 C5         9.2155    5.9228    1.5140 C.3       1 RES1    0.0000
     15 H7         9.9313    6.1263    2.1205 H         1 RES1    0.0000
     16 O3         7.9738    5.7365    2.2104 O.3       1 RES1    0.0000
     17 H8         7.4784    5.5823    1.6302 H         1 RES1    0.0000
     18 C6         9.2083    7.1566    0.6080 C.3       1 RES1    0.0000
     19 H9        10.0810    7.2163    0.2124 H         1 RES1    0.0000
     20 C7         8.2552    7.0538   -0.5698 C.3       1 RES1    0.0000
     21 H10        8.4513    6.2594   -1.0716 H         1 RES1    0.0000
     22 H11        8.3601    7.8231   -1.1345 H         1 RES1    0.0000
     23 H12        7.3518    7.0141   -0.2475 H         1 RES1    0.0000
     24 C8         8.9382    8.4090    1.4426 C.3       1 RES1    0.0000
     25 H13        8.9346    9.1800    0.8709 H         1 RES1    0.0000
     26 H14        9.6254    8.5056    2.1060 H         1 RES1    0.0000
     27 H15        8.0851    8.3272    1.8752 H         1 RES1    0.0000
     28 C9         9.9628    1.0781    1.7072 C.3       1 RES1    0.0000
     29 H16        9.1325    0.9853    2.1801 H         1 RES1    0.0000
     30 C10       10.2038   -0.0833    0.7813 C.ar      1 RES1    0.0000
     31 C11        9.9724   -1.3747    1.2176 C.ar      1 RES1    0.0000
     32 H17        9.6127   -1.5230    2.0952 H         1 RES1    0.0000
     33 C12       10.2532   -2.4520    0.4038 C.ar      1 RES1    0.0000
     34 H18       10.0906   -3.3450    0.7163 H         1 RES1    0.0000
     35 C13       10.7632   -2.2487   -0.8476 C.ar      1 RES1    0.0000
     36 H19       10.9676   -3.0005   -1.4085 H         1 RES1    0.0000
     37 C14       10.9856   -0.9673   -1.3087 C.ar      1 RES1    0.0000
     38 H20       11.3306   -0.8263   -2.1935 H         1 RES1    0.0000
     39 C15       10.7099    0.1102   -0.4931 C.ar      1 RES1    0.0000
     40 H21       10.8704    1.0014   -0.8115 H         1 RES1    0.0000
     41 O4        11.7640    5.2299    0.4864 O.2       1 RES1    0.0000
     42 O5        10.7652    4.2694   -1.1395 O.2       1 RES1    0.0000
@<TRIPOS>BOND
     1    1    2 1
     2    2    3 1
     3    4    2 1
     4    5    2 1
     5    6    5 1
     6    7    5 1
     7    8    9 1
     8    9    5 1
     9   10    9 1
    10   11    9 1
    11   12   11 1
    12   13   11 1
    13   14   11 1
    14   15   14 1
    15   16   14 1
    16   17   16 1
    17   18   14 1
    18   19   18 1
    19   20   18 1
    20   21   20 1
    21   22   20 1
    22   23   20 1
    23   24   18 1
    24   25   24 1
    25   26   24 1
    26   27   24 1
    27   28    1 1
    28   29   28 1
    29   30   28 1
    30   31   30 ar
    31   32   31 1
    32   33   31 ar
    33   34   33 1
    34   35   33 ar
    35   36   35 1
    36   37   35 ar
    37   38   37 1
    38   39   30 ar
    39   40   39 1
    40   41   13 2
    41   42   13 2
    42    8   28 1
    43   37   39 ar
@<TRIPOS>SUBSTRUCTURE
     1 RES1 1

@<TRIPOS>CRYSIN
  11.3550   19.2030    7.1940  90.0000  90.0000  90.0000  19 1

