# MOL2 file generated by ConQuest
# Please check atom types

@<TRIPOS>MOLECULE
FAJHIH
    57    63     3
SMALL
NO_CHARGES
****
Generated from CSD

@<TRIPOS>ATOM
      1 O1         3.0891    2.3667   10.8164 O.3       1 RES1    0.0000
      2 O2        -1.1361    0.1406   13.2250 O.2       1 RES1    0.0000
      3 O3        -2.2711    1.9716   12.9056 O.2       1 RES1    0.0000
      4 N1        -1.2630    1.3858   13.0101 N.pl3     1 RES1    0.0000
      5 C1        -0.0103    2.0979   12.6937 C.3       1 RES1    0.0000
      6 C2         1.0909    1.4112   11.8909 C.3       1 RES1    0.0000
      7 C3         1.7200    2.5359   11.1417 C.3       1 RES1    0.0000
      8 C4         1.5098    3.6691   12.2072 C.3       1 RES1    0.0000
      9 C5         2.0702    2.9733   13.3981 C.3       1 RES1    0.0000
     10 C6         1.2746    1.7034   13.3802 C.3       1 RES1    0.0000
     11 C7         0.0156    3.5057   12.3326 C.3       1 RES1    0.0000
     12 H1         1.2002    0.5376   11.2671 H         1 RES1    0.0000
     13 H2         1.2990    2.6947   10.1598 H         1 RES1    0.0000
     14 H3         1.8792    4.6735   12.0580 H         1 RES1    0.0000
     15 H4         3.1286    2.7898   13.2877 H         1 RES1    0.0000
     16 H5         1.8927    3.5344   14.3025 H         1 RES1    0.0000
     17 H6         1.5538    1.1313   14.2517 H         1 RES1    0.0000
     18 H7        -0.3823    4.1111   11.5327 H         1 RES1    0.0000
     19 H8        -0.5942    4.0004   12.7146 H         1 RES1    0.0000
     20 O4         4.6413    4.5615   10.4821 O.3       2 RES2    0.0000
     21 O5         5.7507    8.4819   13.9234 O.2       2 RES2    0.0000
     22 O6         6.8640    7.1313   15.1740 O.2       2 RES2    0.0000
     23 N2         6.3382    7.4242   14.1234 N.pl3     2 RES2    0.0000
     24 C8         6.3700    6.4328   13.0638 C.3       2 RES2    0.0000
     25 C9         5.1806    6.2591   12.1565 C.3       2 RES2    0.0000
     26 C10        5.2072    4.7939   11.7745 C.3       2 RES2    0.0000
     27 C11        6.7415    4.6064   11.7983 C.3       2 RES2    0.0000
     28 C12        7.2223    5.7774   10.9328 C.3       2 RES2    0.0000
     29 C13        6.4385    6.8709   11.6222 C.3       2 RES2    0.0000
     30 C14        7.0640    5.1076   13.2160 C.3       2 RES2    0.0000
     31 H9         4.1373    6.5370   12.1565 H         2 RES2    0.0000
     32 H10        4.6375    4.1241   12.4042 H         2 RES2    0.0000
     33 H11        7.1801    3.6483   11.6043 H         2 RES2    0.0000
     34 H12        6.9798    5.6902    9.9747 H         2 RES2    0.0000
     35 H13        8.1720    5.9063   10.9328 H         2 RES2    0.0000
     36 H14        6.5471    7.7776   11.4461 H         2 RES2    0.0000
     37 H15        6.7273    4.5010   13.8936 H         2 RES2    0.0000
     38 H16        8.0063    5.2554   13.3026 H         2 RES2    0.0000
     39 O7         3.4721    6.7147    9.2823 O.3       3 RES3    0.0000
     40 O8         0.5949    2.6654    7.3691 O.2       3 RES3    0.0000
     41 O9         0.2682    3.6431    5.4768 O.2       3 RES3    0.0000
     42 N3         0.8236    3.5318    6.5513 N.pl3     3 RES3    0.0000
     43 C15        1.8462    4.5387    6.8617 C.3       3 RES3    0.0000
     44 C16        2.1146    4.9110    8.2794 C.3       3 RES3    0.0000
     45 C17        2.6021    6.3547    8.2048 C.3       3 RES3    0.0000
     46 C18        3.2859    6.2499    6.8468 C.3       3 RES3    0.0000
     47 C19        4.1843    5.0243    7.0259 C.3       3 RES3    0.0000
     48 C20        3.1184    4.0746    7.5542 C.3       3 RES3    0.0000
     49 C21        2.1405    5.6999    5.9723 C.3       3 RES3    0.0000
     50 H17        1.5984    4.8225    9.2226 H         3 RES3    0.0000
     51 H18        1.8547    7.1280    8.2944 H         3 RES3    0.0000
     52 H19        3.7186    7.0740    6.4946 H         3 RES3    0.0000
     53 H20        5.0538    5.1473    7.6556 H         3 RES3    0.0000
     54 H21        4.5820    4.7496    6.1812 H         3 RES3    0.0000
     55 H22        3.6235    3.1419    7.7571 H         3 RES3    0.0000
     56 H23        2.4101    5.4630    5.0172 H         3 RES3    0.0000
     57 H24        1.3566    6.4420    5.9066 H         3 RES3    0.0000
@<TRIPOS>BOND
     1    1    7 1
     2    2    4 2
     3    3    4 2
     4    4    5 1
     5    5    6 1
     6    6    7 1
     7    7    8 1
     8    8    9 1
     9    9   10 1
    10   10    5 1
    11   11    5 1
    12   12    6 1
    13   13    7 1
    14   14    8 1
    15   15    9 1
    16   16    9 1
    17   17   10 1
    18   18   11 1
    19   19   11 1
    20   20   26 1
    21   21   23 2
    22   22   23 2
    23   23   24 1
    24   24   25 1
    25   25   26 1
    26   26   27 1
    27   27   28 1
    28   28   29 1
    29   29   24 1
    30   30   24 1
    31   31   25 1
    32   32   26 1
    33   33   27 1
    34   34   28 1
    35   35   28 1
    36   36   29 1
    37   37   30 1
    38   38   30 1
    39   39   45 1
    40   40   42 2
    41   41   42 2
    42   42   43 1
    43   43   44 1
    44   44   45 1
    45   45   46 1
    46   46   47 1
    47   47   48 1
    48   48   43 1
    49   49   43 1
    50   50   44 1
    51   51   45 1
    52   52   46 1
    53   53   47 1
    54   54   47 1
    55   55   48 1
    56   56   49 1
    57   57   49 1
    58    6   10 1
    59    8   11 1
    60   25   29 1
    61   27   30 1
    62   44   48 1
    63   46   49 1
@<TRIPOS>SUBSTRUCTURE
     1 RES1 1
     2 RES2 20
     3 RES3 39

@<TRIPOS>CRYSIN
  11.2790    6.5090   29.8640  90.0000  91.9600  90.0000  14 1

