# MOL2 file generated by ConQuest
# Please check atom types

@<TRIPOS>MOLECULE
FAJXOG
    82    84     2
SMALL
NO_CHARGES
****
Generated from CSD

@<TRIPOS>ATOM
      1 H1         4.7934    7.9874   11.1811 H         1 RES1    0.0000
      2 C1         5.0951    8.5574    9.3247 C.2       1 RES1    0.0000
      3 C2         4.9234   10.0592    9.6707 C.3       1 RES1    0.0000
      4 C3         3.4551   10.2415    9.9523 C.2       1 RES1    0.0000
      5 C4         2.7434   10.9353   10.8606 C.2       1 RES1    0.0000
      6 H2         3.0902   11.5378   11.5085 H         1 RES1    0.0000
      7 C5         1.3558   10.5919   10.6656 C.2       1 RES1    0.0000
      8 C6         1.3247    9.6886    9.6390 C.2       1 RES1    0.0000
      9 C7         0.2499    8.9061    8.9732 C.3       1 RES1    0.0000
     10 H3        -0.0146    9.3802    8.1447 H         1 RES1    0.0000
     11 H4        -0.5401    8.8888    9.5698 H         1 RES1    0.0000
     12 C8         0.6123    7.4601    8.6088 C.3       1 RES1    0.0000
     13 H5        -0.1243    7.0828    8.0646 H         1 RES1    0.0000
     14 H6         1.4217    7.4765    8.0396 H         1 RES1    0.0000
     15 C9         0.8721    6.5123    9.7876 C.3       1 RES1    0.0000
     16 H7         0.1723    6.6744   10.4690 H         1 RES1    0.0000
     17 H8         0.7567    5.5842    9.4636 H         1 RES1    0.0000
     18 C10        2.2387    6.6062   10.4797 C.3       1 RES1    0.0000
     19 H9         2.3892    7.5367   10.7825 H         1 RES1    0.0000
     20 H10        2.2420    6.0203   11.2782 H         1 RES1    0.0000
     21 C11        3.3678    6.1926    9.5471 C.3       1 RES1    0.0000
     22 H11        3.2471    5.2409    9.3014 H         1 RES1    0.0000
     23 H12        3.3082    6.7281    8.7165 H         1 RES1    0.0000
     24 C12        5.3534   10.9092    8.4615 C.3       1 RES1    0.0000
     25 H13        4.8292   10.6477    7.6760 H         1 RES1    0.0000
     26 H14        6.3050   10.7633    8.2819 H         1 RES1    0.0000
     27 H15        5.1983   11.8567    8.6574 H         1 RES1    0.0000
     28 C13        5.7391   10.4715   10.9028 C.3       1 RES1    0.0000
     29 H16        5.6335   11.4336   11.0579 H         1 RES1    0.0000
     30 H17        6.6849   10.2670   10.7514 H         1 RES1    0.0000
     31 H18        5.4189    9.9774   11.6868 H         1 RES1    0.0000
     32 C14        0.1874   11.1255   11.3814 C.2       1 RES1    0.0000
     33 C15        0.4067   12.2851   12.3087 C.3       1 RES1    0.0000
     34 H19        0.4603   13.1144   11.7879 H         1 RES1    0.0000
     35 H20        1.2428   12.1544   12.8024 H         1 RES1    0.0000
     36 H21       -0.3400   12.3432   12.9406 H         1 RES1    0.0000
     37 N1         4.9252    7.7281   10.3661 N.am      1 RES1    0.0000
     38 O1         5.2843    8.1604    8.1800 O.2       1 RES1    0.0000
     39 O2         4.6925    6.3659   10.1255 O.3       1 RES1    0.0000
     40 O3         2.5923    9.4945    9.1699 O.3       1 RES1    0.0000
     41 O4        -0.9466   10.6884   11.2065 O.2       1 RES1    0.0000
     42 H22        5.5869    8.2169    6.2039 H         2 RES2    0.0000
     43 C16        5.9456    7.7125    4.3287 C.2       2 RES2    0.0000
     44 C17        5.9344    6.2040    4.6841 C.3       2 RES2    0.0000
     45 C18        4.4933    5.8885    4.9606 C.2       2 RES2    0.0000
     46 C19        3.8283    5.2433    5.9375 C.2       2 RES2    0.0000
     47 H23        4.2131    4.7837    6.6746 H         2 RES2    0.0000
     48 C20        2.4198    5.3829    5.6528 C.2       2 RES2    0.0000
     49 C21        2.3313    6.1360    4.5163 C.2       2 RES2    0.0000
     50 C22        1.2402    6.7663    3.7148 C.3       2 RES2    0.0000
     51 H24        0.3843    6.6581    4.1990 H         2 RES2    0.0000
     52 H25        1.1614    6.2887    2.8511 H         2 RES2    0.0000
     53 C23        1.4668    8.2569    3.4370 C.3       2 RES2    0.0000
     54 H26        0.7267    8.5846    2.8661 H         2 RES2    0.0000
     55 H27        2.3058    8.3552    2.9212 H         2 RES2    0.0000
     56 C24        1.5549    9.1562    4.6807 C.3       2 RES2    0.0000
     57 H28        1.3173   10.0783    4.4103 H         2 RES2    0.0000
     58 H29        0.8695    8.8531    5.3277 H         2 RES2    0.0000
     59 C25        2.9086    9.2056    5.4087 C.3       2 RES2    0.0000
     60 H30        2.8062    9.7105    6.2550 H         2 RES2    0.0000
     61 H31        3.1912    8.2852    5.6351 H         2 RES2    0.0000
     62 C26        3.9793    9.8632    4.5608 C.3       2 RES2    0.0000
     63 H32        4.0169    9.4030    3.6843 H         2 RES2    0.0000
     64 H33        3.7179   10.8039    4.3943 H         2 RES2    0.0000
     65 C27        6.4528    5.4044    3.4781 C.3       2 RES2    0.0000
     66 H34        6.4139    4.4469    3.6803 H         2 RES2    0.0000
     67 H35        7.3801    5.6623    3.2897 H         2 RES2    0.0000
     68 H36        5.8957    5.5956    2.6949 H         2 RES2    0.0000
     69 C28        6.7665    5.8742    5.9265 C.3       2 RES2    0.0000
     70 H37        6.4048    6.3571    6.6986 H         2 RES2    0.0000
     71 H38        7.6973    6.1439    5.7783 H         2 RES2    0.0000
     72 H39        6.7306    4.9106    6.0978 H         2 RES2    0.0000
     73 C29        1.3753    4.7407    6.4631 C.2       2 RES2    0.0000
     74 C30       -0.0680    4.7956    6.0366 C.3       2 RES2    0.0000
     75 H40       -0.6046    4.2288    6.6285 H         2 RES2    0.0000
     76 H41       -0.1482    4.4729    5.1143 H         2 RES2    0.0000
     77 H42       -0.3890    5.7193    6.0887 H         2 RES2    0.0000
     78 N2         5.7113    8.5236    5.3794 N.am      2 RES2    0.0000
     79 O5         6.0610    8.1321    3.1833 O.2       2 RES2    0.0000
     80 O6         5.3060    9.8462    5.1507 O.3       2 RES2    0.0000
     81 O7         3.5827    6.4339    4.0670 O.3       2 RES2    0.0000
     82 O8         1.6869    4.1325    7.4731 O.2       2 RES2    0.0000
@<TRIPOS>BOND
     1    1   37 1
     2    2    3 1
     3    3    4 1
     4    4    5 2
     5    5    6 1
     6    7    5 1
     7    8    7 2
     8    9    8 1
     9   10    9 1
    10   11    9 1
    11   12    9 1
    12   13   12 1
    13   14   12 1
    14   15   12 1
    15   16   15 1
    16   17   15 1
    17   18   15 1
    18   19   18 1
    19   20   18 1
    20   21   18 1
    21   22   21 1
    22   23   21 1
    23   24    3 1
    24   25   24 1
    25   26   24 1
    26   27   24 1
    27   28    3 1
    28   29   28 1
    29   30   28 1
    30   31   28 1
    31   32    7 1
    32   33   32 1
    33   34   33 1
    34   35   33 1
    35   36   33 1
    36   37    2 1
    37   38    2 2
    38   39   21 1
    39   40    4 1
    40   41   32 2
    41   42   78 1
    42   43   44 1
    43   44   45 1
    44   45   46 2
    45   46   47 1
    46   48   46 1
    47   49   48 2
    48   50   49 1
    49   51   50 1
    50   52   50 1
    51   53   50 1
    52   54   53 1
    53   55   53 1
    54   56   53 1
    55   57   56 1
    56   58   56 1
    57   59   56 1
    58   60   59 1
    59   61   59 1
    60   62   59 1
    61   63   62 1
    62   64   62 1
    63   65   44 1
    64   66   65 1
    65   67   65 1
    66   68   65 1
    67   69   44 1
    68   70   69 1
    69   71   69 1
    70   72   69 1
    71   73   48 1
    72   74   73 1
    73   75   74 1
    74   76   74 1
    75   77   74 1
    76   78   43 1
    77   79   43 2
    78   80   62 1
    79   81   45 1
    80   82   73 2
    81    8   40 1
    82   37   39 1
    83   49   81 1
    84   78   80 1
@<TRIPOS>SUBSTRUCTURE
     1 RES1 1
     2 RES2 42

@<TRIPOS>CRYSIN
  17.0197   16.2710   10.1414  90.0000  99.0774  90.0000  14 1

