# MOL2 file generated by ConQuest
# Please check atom types

@<TRIPOS>MOLECULE
FAKDUS01
    50    52     1
SMALL
NO_CHARGES
****
Generated from CSD

@<TRIPOS>ATOM
      1 N1         1.6274    3.4909    5.2645 N.2       1 RES1    0.0000
      2 O1         2.2279    3.0927    4.2684 O.2       1 RES1    0.0000
      3 N2         0.2919    3.7678    7.6434 N.pl3     1 RES1    0.0000
      4 N3         2.1650    4.3960    8.5541 N.pl3     1 RES1    0.0000
      5 N4         2.3816    3.5232    6.3572 N.2       1 RES1    0.0000
      6 C1        -1.5105    3.6762    5.9713 C.ar      1 RES1    0.0000
      7 C2         2.9421    7.1759    8.6314 C.3       1 RES1    0.0000
      8 H1         2.5459    7.4160    9.4946 H         1 RES1    0.0000
      9 H2         2.2348    6.8816    8.0188 H         1 RES1    0.0000
     10 H3         3.3989    7.9563    8.2528 H         1 RES1    0.0000
     11 C3         5.7991    4.0197    9.1842 C.ar      1 RES1    0.0000
     12 H4         6.4390    3.3293    9.3065 H         1 RES1    0.0000
     13 C4         5.2708    6.3516    9.0696 C.ar      1 RES1    0.0000
     14 H5         5.5475    7.2591    9.1127 H         1 RES1    0.0000
     15 C5         6.2114    5.3472    9.2504 C.ar      1 RES1    0.0000
     16 C6         4.4738    3.6768    8.9447 C.ar      1 RES1    0.0000
     17 C7        -0.6512    3.0129    6.8467 C.ar      1 RES1    0.0000
     18 C8         3.5604    4.7183    8.7657 C.ar      1 RES1    0.0000
     19 C9        -2.4262    1.5124    5.3511 C.ar      1 RES1    0.0000
     20 C10       -0.6609    1.6277    7.0125 C.ar      1 RES1    0.0000
     21 C11        3.9320    6.0616    8.8267 C.ar      1 RES1    0.0000
     22 C12        0.0053    4.2326    8.9216 C.2       1 RES1    0.0000
     23 H6        -0.8551    4.2674    9.3266 H         1 RES1    0.0000
     24 C13        1.1581    4.6220    9.4798 C.2       1 RES1    0.0000
     25 H7         1.2653    4.9858   10.3501 H         1 RES1    0.0000
     26 C14        1.6264    3.8808    7.4260 C.2       1 RES1    0.0000
     27 C15        7.6604    5.6907    9.4970 C.3       1 RES1    0.0000
     28 H8         7.7802    5.9528   10.4334 H         1 RES1    0.0000
     29 H9         7.9234    6.4337    8.9146 H         1 RES1    0.0000
     30 H10        8.2195    4.9095    9.3036 H         1 RES1    0.0000
     31 C16        4.0532    2.2331    8.8800 C.3       1 RES1    0.0000
     32 H11        4.8314    1.6591    9.0452 H         1 RES1    0.0000
     33 H12        3.6883    2.0391    7.9916 H         1 RES1    0.0000
     34 H13        3.3677    2.0612    9.5606 H         1 RES1    0.0000
     35 C17        0.3164    0.9432    7.9330 C.3       1 RES1    0.0000
     36 H14        0.0533    0.0068    8.0519 H         1 RES1    0.0000
     37 H15        0.3163    1.3945    8.8026 H         1 RES1    0.0000
     38 H16        1.2148    0.9822    7.5437 H         1 RES1    0.0000
     39 C18       -2.3868    2.8967    5.2256 C.ar      1 RES1    0.0000
     40 H17       -2.9744    3.3216    4.6123 H         1 RES1    0.0000
     41 C19       -1.5699    0.9025    6.2531 C.ar      1 RES1    0.0000
     42 H18       -1.6056   -0.0416    6.3551 H         1 RES1    0.0000
     43 C20       -3.3540    0.6921    4.4916 C.3       1 RES1    0.0000
     44 H19       -2.9511    0.5624    3.6075 H         1 RES1    0.0000
     45 H20       -4.2095    1.1604    4.3956 H         1 RES1    0.0000
     46 H21       -3.5031   -0.1798    4.9124 H         1 RES1    0.0000
     47 C21       -1.4652    5.1674    5.8133 C.3       1 RES1    0.0000
     48 H22       -1.7134    5.5932    6.6608 H         1 RES1    0.0000
     49 H23       -2.0927    5.4405    5.1133 H         1 RES1    0.0000
     50 H24       -0.5587    5.4422    5.5627 H         1 RES1    0.0000
@<TRIPOS>BOND
     1    1    2 2
     2    3   17 1
     3    4   18 1
     4    5    1 1
     5    6   17 ar
     6    7    8 1
     7    9    7 1
     8   10    7 1
     9   11   12 1
    10   13   14 1
    11   15   11 ar
    12   16   11 ar
    13   17   20 ar
    14   18   16 ar
    15   19   39 ar
    16   20   35 1
    17   21    7 1
    18   22    3 1
    19   23   22 1
    20   24    4 1
    21   25   24 1
    22   26    3 1
    23   27   15 1
    24   28   27 1
    25   29   27 1
    26   30   27 1
    27   31   16 1
    28   32   31 1
    29   33   31 1
    30   34   31 1
    31   35   36 1
    32   37   35 1
    33   38   35 1
    34   39    6 ar
    35   40   39 1
    36   41   19 ar
    37   42   41 1
    38   43   19 1
    39   44   43 1
    40   45   43 1
    41   46   43 1
    42   47    6 1
    43   48   47 1
    44   49   47 1
    45   50   47 1
    46    4   26 1
    47    5   26 2
    48   13   15 ar
    49   13   21 ar
    50   18   21 ar
    51   20   41 ar
    52   22   24 2
@<TRIPOS>SUBSTRUCTURE
     1 RES1 1

@<TRIPOS>CRYSIN
  31.8286    8.4822   15.6004  90.0000 113.0470  90.0000  15 1

