# MOL2 file generated by ConQuest
# Please check atom types

@<TRIPOS>MOLECULE
FAKFAA
    68    70     1
SMALL
NO_CHARGES
****
Generated from CSD

@<TRIPOS>ATOM
      1 O1         8.9267    5.1084    1.4082 O.2       1 RES1    0.0000
      2 N1        10.2170    8.8431    2.3203 N.pl3     1 RES1    0.0000
      3 N2         9.0856    8.6280    4.1757 N.pl3     1 RES1    0.0000
      4 N3         9.3301    6.6164    2.9120 N.2       1 RES1    0.0000
      5 N4         9.0944    6.3293    1.6124 N.2       1 RES1    0.0000
      6 C1         9.5422    7.9473    3.0795 C.2       1 RES1    0.0000
      7 C2         9.4590    9.9626    4.0891 C.2       1 RES1    0.0000
      8 H1         9.2547   10.6482    4.7145 H         1 RES1    0.0000
      9 C3        10.1689   10.0994    2.9448 C.2       1 RES1    0.0000
     10 H2        10.5636   10.9024    2.6235 H         1 RES1    0.0000
     11 C4        11.0683    8.5058    1.1752 C.ar      1 RES1    0.0000
     12 C5        12.4222    8.2357    1.4724 C.ar      1 RES1    0.0000
     13 C6        13.2276    7.8728    0.3694 C.ar      1 RES1    0.0000
     14 H3        14.1444    7.6638    0.5086 H         1 RES1    0.0000
     15 C7        12.7023    7.8153   -0.9192 C.ar      1 RES1    0.0000
     16 H4        13.2620    7.5526   -1.6408 H         1 RES1    0.0000
     17 C8        11.3668    8.1380   -1.1717 C.ar      1 RES1    0.0000
     18 H5        11.0350    8.1147   -2.0617 H         1 RES1    0.0000
     19 C9        10.5070    8.4985   -0.1134 C.ar      1 RES1    0.0000
     20 C10       13.0217    8.3518    2.8692 C.3       1 RES1    0.0000
     21 H6        12.2647    8.4936    3.5084 H         1 RES1    0.0000
     22 C11       13.9319    9.5984    2.9517 C.3       1 RES1    0.0000
     23 H7        14.6898    9.4908    2.3383 H         1 RES1    0.0000
     24 H8        14.2647    9.7010    3.8675 H         1 RES1    0.0000
     25 H9        13.4198   10.3952    2.6991 H         1 RES1    0.0000
     26 C12       13.7617    7.0918    3.3142 C.3       1 RES1    0.0000
     27 H10       13.1415    6.3329    3.3177 H         1 RES1    0.0000
     28 H11       14.1213    7.2251    4.2162 H         1 RES1    0.0000
     29 H12       14.4978    6.9098    2.6923 H         1 RES1    0.0000
     30 C13        9.0713    8.8993   -0.4106 C.3       1 RES1    0.0000
     31 H13        8.5846    8.9531    0.4605 H         1 RES1    0.0000
     32 C14        9.0335   10.2937   -1.0515 C.3       1 RES1    0.0000
     33 H14        9.4197   10.9476   -0.4312 H         1 RES1    0.0000
     34 H15        8.1051   10.5394   -1.2473 H         1 RES1    0.0000
     35 H16        9.5526   10.2864   -1.8830 H         1 RES1    0.0000
     36 C15        8.3241    7.8911   -1.3006 C.3       1 RES1    0.0000
     37 H17        8.7518    7.8520   -2.1820 H         1 RES1    0.0000
     38 H18        7.3915    8.1734   -1.4037 H         1 RES1    0.0000
     39 H19        8.3528    7.0039   -0.8848 H         1 RES1    0.0000
     40 C16        8.1562    8.0866    5.1535 C.ar      1 RES1    0.0000
     41 C17        6.8228    7.9302    4.7403 C.ar      1 RES1    0.0000
     42 C18        5.9293    7.4267    5.6955 C.ar      1 RES1    0.0000
     43 H20        5.0234    7.2727    5.4567 H         1 RES1    0.0000
     44 C19        6.3535    7.1468    6.9961 C.ar      1 RES1    0.0000
     45 H21        5.7231    6.8303    7.6335 H         1 RES1    0.0000
     46 C20        7.6837    7.3216    7.3793 C.ar      1 RES1    0.0000
     47 H22        7.9485    7.1322    8.2710 H         1 RES1    0.0000
     48 C21        8.6303    7.7787    6.4481 C.ar      1 RES1    0.0000
     49 C22        6.3008    8.3482    3.3537 C.3       1 RES1    0.0000
     50 H23        7.0919    8.6207    2.8074 H         1 RES1    0.0000
     51 C23        5.6080    7.2031    2.6115 C.3       1 RES1    0.0000
     52 H24        6.2313    6.4539    2.5136 H         1 RES1    0.0000
     53 H25        5.3255    7.5122    1.7267 H         1 RES1    0.0000
     54 H26        4.8227    6.9110    3.1218 H         1 RES1    0.0000
     55 C24        5.3988    9.5752    3.4878 C.3       1 RES1    0.0000
     56 H27        5.1316    9.8819    2.5961 H         1 RES1    0.0000
     57 H28        5.8863   10.2901    3.9465 H         1 RES1    0.0000
     58 H29        4.6007    9.3393    4.0049 H         1 RES1    0.0000
     59 C25       10.1166    7.8911    6.8123 C.3       1 RES1    0.0000
     60 H30       10.5065    8.6402    6.2780 H         1 RES1    0.0000
     61 C26       10.3760    8.1917    8.2985 C.3       1 RES1    0.0000
     62 H31        9.8654    8.9837    8.5665 H         1 RES1    0.0000
     63 H32       11.3325    8.3567    8.4376 H         1 RES1    0.0000
     64 H33       10.0959    7.4243    8.8414 H         1 RES1    0.0000
     65 C27       10.8282    6.5993    6.3948 C.3       1 RES1    0.0000
     66 H34       10.4973    5.8526    6.9377 H         1 RES1    0.0000
     67 H35       11.7935    6.6983    6.5322 H         1 RES1    0.0000
     68 H36       10.6498    6.4185    5.4481 H         1 RES1    0.0000
@<TRIPOS>BOND
     1    1    5 2
     2    2    6 1
     3    3    6 1
     4    4    5 1
     5    6    4 2
     6    7    3 1
     7    8    7 1
     8    9    2 1
     9   10    9 1
    10   11    2 1
    11   12   11 ar
    12   13   12 ar
    13   14   13 1
    14   15   13 ar
    15   16   15 1
    16   17   15 ar
    17   18   17 1
    18   19   11 ar
    19   20   12 1
    20   21   20 1
    21   22   20 1
    22   23   22 1
    23   24   22 1
    24   25   22 1
    25   26   20 1
    26   27   26 1
    27   28   26 1
    28   29   26 1
    29   30   19 1
    30   31   30 1
    31   32   30 1
    32   33   32 1
    33   34   32 1
    34   35   32 1
    35   36   30 1
    36   37   36 1
    37   38   36 1
    38   39   36 1
    39   40    3 1
    40   41   40 ar
    41   42   41 ar
    42   43   42 1
    43   44   42 ar
    44   45   44 1
    45   46   44 ar
    46   47   46 1
    47   48   40 ar
    48   49   41 1
    49   50   49 1
    50   51   49 1
    51   52   51 1
    52   53   51 1
    53   54   51 1
    54   55   49 1
    55   56   55 1
    56   57   55 1
    57   58   55 1
    58   59   48 1
    59   60   59 1
    60   61   59 1
    61   62   61 1
    62   63   61 1
    63   64   61 1
    64   65   59 1
    65   66   65 1
    66   67   65 1
    67   68   65 1
    68    7    9 2
    69   17   19 ar
    70   46   48 ar
@<TRIPOS>SUBSTRUCTURE
     1 RES1 1

@<TRIPOS>CRYSIN
  12.4000   12.2210   17.2110  90.0000  93.3800  90.0000 231 1

