# MOL2 file generated by ConQuest
# Please check atom types

@<TRIPOS>MOLECULE
FAKRIS
    38    38     2
SMALL
NO_CHARGES
****
Generated from CSD

@<TRIPOS>ATOM
      1 C1         6.3999    4.5714    6.6018 C.ar      1 RES1    0.0000
      2 C2         7.2215    4.4308    7.7138 C.ar      1 RES1    0.0000
      3 C3         8.5868    4.3759    7.5793 C.ar      1 RES1    0.0000
      4 C4         9.1673    4.4686    6.3336 C.ar      1 RES1    0.0000
      5 C5         8.3706    4.6213    5.2268 C.ar      1 RES1    0.0000
      6 C6         7.0008    4.6757    5.3544 C.ar      1 RES1    0.0000
      7 C7         4.9263    4.6021    6.7320 C.2       1 RES1    0.0000
      8 C8         4.0980    5.4288    5.7997 C.3       1 RES1    0.0000
      9 N1         4.4339    3.8800    7.6635 N.2       1 RES1    0.0000
     10 O1         3.0307    3.9716    7.7390 O.3       1 RES1    0.0000
     11 C9        -1.5393    3.1082    2.0313 C.ar      2 RES2    0.0000
     12 C10       -2.2599    4.2422    1.6763 C.ar      2 RES2    0.0000
     13 C11       -3.6321    4.2663    1.7813 C.ar      2 RES2    0.0000
     14 C12       -4.3104    3.1589    2.2544 C.ar      2 RES2    0.0000
     15 C13       -3.6104    2.0374    2.6155 C.ar      2 RES2    0.0000
     16 C14       -2.2437    2.0058    2.5079 C.ar      2 RES2    0.0000
     17 C15       -0.0652    3.0687    1.9254 C.2       2 RES2    0.0000
     18 C16        0.7457    2.1513    2.7822 C.3       2 RES2    0.0000
     19 N2         0.4581    3.8696    1.0764 N.2       2 RES2    0.0000
     20 O2         1.8631    3.8051    1.0617 O.3       2 RES2    0.0000
     21 H1         2.9480    3.3297    8.4378 H         1 RES1    0.0000
     22 H2         6.8106    4.3716    8.5854 H         1 RES1    0.0000
     23 H3         9.1560    4.2795    8.3684 H         1 RES1    0.0000
     24 H4        10.0949    4.3778    6.2242 H         1 RES1    0.0000
     25 H5         8.7911    4.6520    4.3491 H         1 RES1    0.0000
     26 H6         6.4577    4.7689    4.5835 H         1 RES1    0.0000
     27 H7         3.4229    5.8169    6.2329 H         1 RES1    0.0000
     28 H8         4.5750    6.0019    5.2693 H         1 RES1    0.0000
     29 H9         3.5593    4.8674    5.2953 H         1 RES1    0.0000
     30 H10        1.9840    4.3785    0.3472 H         2 RES2    0.0000
     31 H11       -1.7921    5.0513    1.3889 H         2 RES2    0.0000
     32 H12       -4.1084    5.0473    1.5452 H         2 RES2    0.0000
     33 H13       -5.2411    3.2405    2.3786 H         2 RES2    0.0000
     34 H14       -4.0920    1.2301    2.9168 H         2 RES2    0.0000
     35 H15       -1.7409    1.2239    2.7866 H         2 RES2    0.0000
     36 H16        1.4774    2.5564    3.1512 H         2 RES2    0.0000
     37 H17        0.2541    1.7672    3.4724 H         2 RES2    0.0000
     38 H18        1.1876    1.5476    2.3178 H         2 RES2    0.0000
@<TRIPOS>BOND
     1    1    2 ar
     2    2    3 ar
     3    3    4 ar
     4    4    5 ar
     5    5    6 ar
     6    6    1 ar
     7    7    1 1
     8    8    7 1
     9    9    7 2
    10   10    9 1
    11   11   12 ar
    12   12   13 ar
    13   13   14 ar
    14   14   15 ar
    15   15   16 ar
    16   16   11 ar
    17   17   11 1
    18   18   17 1
    19   19   17 2
    20   20   19 1
    21   21   10 1
    22   22    2 1
    23   23    3 1
    24   24    4 1
    25   25    5 1
    26   26    6 1
    27   27    8 1
    28   28    8 1
    29   29    8 1
    30   30   20 1
    31   31   12 1
    32   32   13 1
    33   33   14 1
    34   34   15 1
    35   35   16 1
    36   36   18 1
    37   37   18 1
    38   38   18 1
@<TRIPOS>SUBSTRUCTURE
     1 RES1 1
     2 RES2 11

@<TRIPOS>CRYSIN
   9.1960    9.6970    9.9400  68.0100  67.1800  77.0000   2 1

