# MOL2 file generated by ConQuest
# Please check atom types

@<TRIPOS>MOLECULE
FAKRIS02
    20    20     2
SMALL
NO_CHARGES
****
Generated from CSD

@<TRIPOS>ATOM
      1 C1         2.1440   -3.2968   -0.4189 C.ar      1 RES1    0.0000
      2 C2         2.8953   -2.5648   -1.2304 C.ar      1 RES1    0.0000
      3 C3         2.9714   -2.8064   -2.6062 C.ar      1 RES1    0.0000
      4 C4         2.2210   -3.7675   -3.1723 C.ar      1 RES1    0.0000
      5 C5         1.4605   -4.4798   -2.3836 C.ar      1 RES1    0.0000
      6 C6         1.4392   -4.2805   -0.9955 C.ar      1 RES1    0.0000
      7 C7         2.0945   -3.0794    1.0516 C.2       1 RES1    0.0000
      8 C8         1.2909   -3.9597    1.9385 C.3       1 RES1    0.0000
      9 N1         2.7865   -2.0881    1.4845 N.2       1 RES1    0.0000
     10 O1         2.6955   -1.9387    2.8761 O.3       1 RES1    0.0000
     11 C9         5.1430    1.1204    4.6481 C.ar      2 RES2    0.0000
     12 C10        4.4788    0.1686    5.4035 C.ar      2 RES2    0.0000
     13 C11        4.4435    0.2125    6.7793 C.ar      2 RES2    0.0000
     14 C12        5.1380    1.2104    7.4664 C.ar      2 RES2    0.0000
     15 C13        5.8113    2.1391    6.7548 C.ar      2 RES2    0.0000
     16 C14        5.8165    2.1089    5.3281 C.ar      2 RES2    0.0000
     17 C15        5.1782    1.0929    3.1688 C.2       2 RES2    0.0000
     18 C16        5.9282    2.1029    2.3661 C.3       2 RES2    0.0000
     19 N2         4.7915    0.1263    2.6290 N.2       2 RES2    0.0000
     20 O2         4.5677    0.1098    1.2199 O.3       2 RES2    0.0000
@<TRIPOS>BOND
     1    1    2 ar
     2    2    3 ar
     3    3    4 ar
     4    4    5 ar
     5    5    6 ar
     6    6    1 ar
     7    7    1 1
     8    8    7 1
     9    9    7 2
    10   10    9 1
    11   11   12 ar
    12   12   13 ar
    13   13   14 ar
    14   14   15 ar
    15   15   16 ar
    16   16   11 ar
    17   17   11 1
    18   18   17 1
    19   19   17 2
    20   20   19 1
@<TRIPOS>SUBSTRUCTURE
     1 RES1 1
     2 RES2 11

@<TRIPOS>CRYSIN
  31.4300    5.4920   17.7260  90.0000  98.6000  90.0000  15 1

