# MOL2 file generated by ConQuest
# Please check atom types

@<TRIPOS>MOLECULE
FAKROY01
    20    20     2
SMALL
NO_CHARGES
****
Generated from CSD

@<TRIPOS>ATOM
      1 C1        -8.2906    1.6577    1.8086 C.ar      1 RES1    0.0000
      2 C2        -9.1177    2.6220    2.3693 C.ar      1 RES1    0.0000
      3 C3       -10.4881    2.5166    2.2833 C.ar      1 RES1    0.0000
      4 C4       -11.1083    1.5565    1.6368 C.ar      1 RES1    0.0000
      5 C5       -10.2926    0.6198    1.0522 C.ar      1 RES1    0.0000
      6 C6        -8.9144    0.6304    1.1649 C.ar      1 RES1    0.0000
      7 C7        -6.8693    1.7617    1.8812 C.2       1 RES1    0.0000
      8 C8        -6.0558    1.5112    0.6170 C.3       1 RES1    0.0000
      9 N1        -6.1657    2.0744    2.8975 N.2       1 RES1    0.0000
     10 O1        -6.8807    2.2159    4.0680 O.3       1 RES1    0.0000
     11 C9        -1.7079    5.2879    3.4349 C.ar      2 RES2    0.0000
     12 C10       -1.7106    4.5874    4.6639 C.ar      2 RES2    0.0000
     13 C11       -0.5996    4.5641    5.4118 C.ar      2 RES2    0.0000
     14 C12        0.5397    5.2489    5.0146 C.ar      2 RES2    0.0000
     15 C13        0.5504    5.8737    3.8793 C.ar      2 RES2    0.0000
     16 C14       -0.5695    5.9621    3.0524 C.ar      2 RES2    0.0000
     17 C15       -2.9474    5.3805    2.6242 C.2       2 RES2    0.0000
     18 C16       -3.1412    6.6328    1.7840 C.3       2 RES2    0.0000
     19 N2        -3.8720    4.5457    2.4284 N.2       2 RES2    0.0000
     20 O2        -3.6456    3.2955    3.0764 O.3       2 RES2    0.0000
@<TRIPOS>BOND
     1    1    2 ar
     2    2    3 ar
     3    3    4 ar
     4    4    5 ar
     5    5    6 ar
     6    6    1 ar
     7    7    1 1
     8    8    7 1
     9    9    7 2
    10   10    9 1
    11   11   12 ar
    12   12   13 ar
    13   13   14 ar
    14   14   15 ar
    15   15   16 ar
    16   16   11 ar
    17   17   11 1
    18   18   17 1
    19   19   17 2
    20   20   19 1
@<TRIPOS>SUBSTRUCTURE
     1 RES1 1
     2 RES2 11

@<TRIPOS>CRYSIN
  29.5740    7.0750    7.2810  90.0000 104.6900  90.0000   9 1

