# MOL2 file generated by ConQuest
# Please check atom types

@<TRIPOS>MOLECULE
FAKROY
    72    72     4
SMALL
NO_CHARGES
****
Generated from CSD

@<TRIPOS>ATOM
      1 C1         3.9269    3.8309    7.5237 C.ar      1 RES1    0.0000
      2 C2         2.9495    4.6663    8.2603 C.ar      1 RES1    0.0000
      3 C3         3.0421    4.8197    9.5562 C.ar      1 RES1    0.0000
      4 C4         3.9915    4.3745   10.3186 C.ar      1 RES1    0.0000
      5 C5         4.9552    3.6084    9.6821 C.ar      1 RES1    0.0000
      6 C6         4.9345    3.4076    8.3361 C.ar      1 RES1    0.0000
      7 C7         3.8166    3.5460    6.1705 C.2       1 RES1    0.0000
      8 C8         4.0665    2.1338    5.6857 C.3       1 RES1    0.0000
      9 N1         3.5218    4.3695    5.2208 N.2       1 RES1    0.0000
     10 O1         3.3808    5.6905    5.6299 O.3       1 RES1    0.0000
     11 C9         7.2464    7.5135    7.5980 C.ar      2 RES2    0.0000
     12 C10        8.1991    8.1834    8.1788 C.ar      2 RES2    0.0000
     13 C11        8.0805    8.5571    9.5734 C.ar      2 RES2    0.0000
     14 C12        7.1089    8.0669   10.3415 C.ar      2 RES2    0.0000
     15 C13        6.1995    7.2894    9.6978 C.ar      2 RES2    0.0000
     16 C14        6.2007    7.0083    8.3175 C.ar      2 RES2    0.0000
     17 C15        7.3458    7.2193    6.1677 C.2       2 RES2    0.0000
     18 C16        7.0942    5.7720    5.7157 C.3       2 RES2    0.0000
     19 N2         7.6756    8.0035    5.2380 N.2       2 RES2    0.0000
     20 O2         7.8183    9.3112    5.6184 O.3       2 RES2    0.0000
     21 C17        0.3007    3.7495    0.7767 C.ar      3 RES3    0.0000
     22 C18        1.0042    4.9409    0.4720 C.ar      3 RES3    0.0000
     23 C19        1.0479    5.4018   -0.8024 C.ar      3 RES3    0.0000
     24 C20        0.3651    4.6613   -1.7937 C.ar      3 RES3    0.0000
     25 C21       -0.2575    3.6068   -1.4919 C.ar      3 RES3    0.0000
     26 C22       -0.3427    3.0727   -0.2188 C.ar      3 RES3    0.0000
     27 C23        0.2209    3.2506    2.1727 C.2       3 RES3    0.0000
     28 C24       -1.0360    2.4885    2.5818 C.3       3 RES3    0.0000
     29 N3         1.0398    3.3388    3.1339 N.2       3 RES3    0.0000
     30 O3         2.3009    3.9086    2.7606 O.3       3 RES3    0.0000
     31 C25        3.8069    7.4021    0.7838 C.ar      4 RES4    0.0000
     32 C26        3.1088    8.5890    0.4706 C.ar      4 RES4    0.0000
     33 C27        3.1060    9.0126   -0.7824 C.ar      4 RES4    0.0000
     34 C28        3.7936    8.4063   -1.7951 C.ar      4 RES4    0.0000
     35 C29        4.4193    7.2593   -1.5405 C.ar      4 RES4    0.0000
     36 C30        4.5113    6.7630   -0.2260 C.ar      4 RES4    0.0000
     37 C31        3.9124    6.9630    2.1999 C.2       4 RES4    0.0000
     38 C32        5.1594    6.1964    2.5889 C.3       4 RES4    0.0000
     39 N4         3.0616    6.9650    3.1268 N.2       4 RES4    0.0000
     40 O4         1.8224    7.5325    2.7334 O.3       4 RES4    0.0000
     41 H1         2.2016    5.0981    7.7525 H         1 RES1    0.0000
     42 H2         2.2967    5.3229    9.9982 H         1 RES1    0.0000
     43 H3         4.0422    4.5939   11.2998 H         1 RES1    0.0000
     44 H4         5.6818    3.1768   10.2270 H         1 RES1    0.0000
     45 H5         5.7001    2.9151    7.9242 H         1 RES1    0.0000
     46 H6         3.2458    1.7950    5.2351 H         1 RES1    0.0000
     47 H7         4.2883    1.5424    6.4652 H         1 RES1    0.0000
     48 H8         4.8247    2.1357    5.0348 H         1 RES1    0.0000
     49 H9         8.9951    8.4794    7.6524 H         2 RES2    0.0000
     50 H10        8.7510    9.1781    9.9839 H         2 RES2    0.0000
     51 H11        7.0540    8.2346   11.3284 H         2 RES2    0.0000
     52 H12        5.4605    6.9122   10.2556 H         2 RES2    0.0000
     53 H13        5.4787    6.4681    7.8955 H         2 RES2    0.0000
     54 H14        6.8367    5.2160    6.5081 H         2 RES2    0.0000
     55 H15        7.9307    5.4106    5.3066 H         2 RES2    0.0000
     56 H16        6.3579    5.7471    5.0348 H         2 RES2    0.0000
     57 H17        1.4679    5.4482    1.2015 H         3 RES3    0.0000
     58 H18        1.5405    6.2392   -1.0299 H         3 RES3    0.0000
     59 H19        0.3738    4.9919   -2.7320 H         3 RES3    0.0000
     60 H20       -0.7095    3.1209   -2.2314 H         3 RES3    0.0000
     61 H21       -0.8529    2.2350   -0.0286 H         3 RES3    0.0000
     62 H22       -1.6655    2.4384    1.8022 H         3 RES3    0.0000
     63 H23       -1.4721    2.9673    3.3470 H         3 RES3    0.0000
     64 H24       -0.7896    1.5621    2.8750 H         3 RES3    0.0000
     65 H25        2.6122    9.0957    1.1729 H         4 RES4    0.0000
     66 H26        2.5925    9.8435   -1.0012 H         4 RES4    0.0000
     67 H27        3.8175    8.8147   -2.7034 H         4 RES4    0.0000
     68 H28        4.8284    6.7391   -2.2886 H         4 RES4    0.0000
     69 H29        5.0918    5.9739   -0.0143 H         4 RES4    0.0000
     70 H30        5.8109    6.2175    1.8309 H         4 RES4    0.0000
     71 H31        4.9217    5.2493    2.8035 H         4 RES4    0.0000
     72 H32        5.5690    6.6190    3.3899 H         4 RES4    0.0000
@<TRIPOS>BOND
     1    1    2 ar
     2    2    3 ar
     3    3    4 ar
     4    4    5 ar
     5    5    6 ar
     6    6    1 ar
     7    7    1 1
     8    8    7 1
     9    9    7 2
    10   10    9 1
    11   11   12 ar
    12   12   13 ar
    13   13   14 ar
    14   14   15 ar
    15   15   16 ar
    16   16   11 ar
    17   17   11 1
    18   18   17 1
    19   19   17 2
    20   20   19 1
    21   21   22 ar
    22   22   23 ar
    23   23   24 ar
    24   24   25 ar
    25   25   26 ar
    26   26   21 ar
    27   27   21 1
    28   28   27 1
    29   29   27 2
    30   30   29 1
    31   31   32 ar
    32   32   33 ar
    33   33   34 ar
    34   34   35 ar
    35   35   36 ar
    36   36   31 ar
    37   37   31 1
    38   38   37 1
    39   39   37 2
    40   40   39 1
    41   41    2 1
    42   42    3 1
    43   43    4 1
    44   44    5 1
    45   45    6 1
    46   46    8 1
    47   47    8 1
    48   48    8 1
    49   49   12 1
    50   50   13 1
    51   51   14 1
    52   52   15 1
    53   53   16 1
    54   54   18 1
    55   55   18 1
    56   56   18 1
    57   57   22 1
    58   58   23 1
    59   59   24 1
    60   60   25 1
    61   61   26 1
    62   62   28 1
    63   63   28 1
    64   64   28 1
    65   65   32 1
    66   66   33 1
    67   67   34 1
    68   68   35 1
    69   69   36 1
    70   70   38 1
    71   71   38 1
    72   72   38 1
@<TRIPOS>SUBSTRUCTURE
     1 RES1 1
     2 RES2 11
     3 RES3 21
     4 RES4 31

@<TRIPOS>CRYSIN
   7.0750    7.2810   15.1940  75.6900  76.7100  89.9200   1 1

