# MOL2 file generated by ConQuest
# Please check atom types

@<TRIPOS>MOLECULE
FAKRIS01
    40    40     4
SMALL
NO_CHARGES
****
Generated from CSD

@<TRIPOS>ATOM
      1 C1         2.0826   -3.2771   -0.4907 C.ar      1 RES1    0.0000
      2 C2         2.9773   -2.7010   -1.2321 C.ar      1 RES1    0.0000
      3 C3         2.9095   -2.8696   -2.6956 C.ar      1 RES1    0.0000
      4 C4         2.2038   -3.8158   -3.2459 C.ar      1 RES1    0.0000
      5 C5         1.3844   -4.4639   -2.3994 C.ar      1 RES1    0.0000
      6 C6         1.5061   -4.3101   -1.0428 C.ar      1 RES1    0.0000
      7 C7         2.0514   -3.1123    0.9832 C.2       1 RES1    0.0000
      8 C8         1.2842   -3.9196    1.8999 C.3       1 RES1    0.0000
      9 N1         2.7811   -2.0848    1.4162 N.2       1 RES1    0.0000
     10 O1         2.6927   -1.9310    2.8323 O.3       1 RES1    0.0000
     11 C9         5.1314    1.1808    4.5797 C.ar      2 RES2    0.0000
     12 C10        4.4602    0.1631    5.3807 C.ar      2 RES2    0.0000
     13 C11        4.4232    0.2400    6.7267 C.ar      2 RES2    0.0000
     14 C12        5.1036    1.1868    7.4857 C.ar      2 RES2    0.0000
     15 C13        5.8263    2.1551    6.7390 C.ar      2 RES2    0.0000
     16 C14        5.8449    2.0370    5.2861 C.ar      2 RES2    0.0000
     17 C15        5.1353    1.0781    3.1408 C.2       2 RES2    0.0000
     18 C16        5.9479    2.1183    2.2977 C.3       2 RES2    0.0000
     19 N2         4.4998    0.1664    2.5834 N.2       2 RES2    0.0000
     20 O2         4.5194    0.1357    1.1445 O.3       2 RES2    0.0000
     21 C17       -3.5308   -3.3166    9.1104 C.ar      3 RES3    0.0000
     22 C18       -4.1353   -2.4280    9.9902 C.ar      3 RES3    0.0000
     23 C19       -4.3587   -2.7422   11.2802 C.ar      3 RES3    0.0000
     24 C20       -3.5632   -3.7137   11.8603 C.ar      3 RES3    0.0000
     25 C21       -2.8587   -4.4958   11.1295 C.ar      3 RES3    0.0000
     26 C22       -2.7011   -4.2508    9.7133 C.ar      3 RES3    0.0000
     27 C23       -3.4632   -3.0464    7.6451 C.2       3 RES3    0.0000
     28 C24       -2.6261   -4.0048    6.7863 C.3       3 RES3    0.0000
     29 N3        -4.1140   -2.0908    7.2105 N.2       3 RES3    0.0000
     30 O3        -4.0267   -1.9458    5.8434 O.3       3 RES3    0.0000
     31 C25       -6.4800    1.0633    4.0469 C.ar      4 RES4    0.0000
     32 C26       -5.8226    0.1741    3.3371 C.ar      4 RES4    0.0000
     33 C27       -5.7889    0.1851    1.9297 C.ar      4 RES4    0.0000
     34 C28       -6.4942    1.2335    1.3145 C.ar      4 RES4    0.0000
     35 C29       -7.1220    2.1232    1.9945 C.ar      4 RES4    0.0000
     36 C30       -7.1137    2.1770    3.3949 C.ar      4 RES4    0.0000
     37 C31       -6.5493    1.1077    5.5647 C.2       4 RES4    0.0000
     38 C32       -7.2337    2.0875    6.3289 C.3       4 RES4    0.0000
     39 N4        -5.8428    0.0884    6.0888 N.2       4 RES4    0.0000
     40 O4        -5.9445    0.0846    7.4681 O.3       4 RES4    0.0000
@<TRIPOS>BOND
     1    1    2 ar
     2    2    3 ar
     3    3    4 ar
     4    4    5 ar
     5    5    6 ar
     6    6    1 ar
     7    7    1 1
     8    8    7 1
     9    9    7 2
    10   10    9 1
    11   11   12 ar
    12   12   13 ar
    13   13   14 ar
    14   14   15 ar
    15   15   16 ar
    16   16   11 ar
    17   17   11 1
    18   18   17 1
    19   19   17 2
    20   20   19 1
    21   21   22 ar
    22   22   23 ar
    23   23   24 ar
    24   24   25 ar
    25   25   26 ar
    26   26   21 ar
    27   27   21 1
    28   28   27 1
    29   29   27 2
    30   30   29 1
    31   31   32 ar
    32   32   33 ar
    33   33   34 ar
    34   34   35 ar
    35   35   36 ar
    36   36   31 ar
    37   37   31 1
    38   38   37 1
    39   39   37 2
    40   40   39 1
@<TRIPOS>SUBSTRUCTURE
     1 RES1 1
     2 RES2 11
     3 RES3 21
     4 RES4 31

@<TRIPOS>CRYSIN
  31.4300    5.4920   17.7260  90.0000  98.6000  90.0000   9 1

