# MOL2 file generated by ConQuest
# Please check atom types

@<TRIPOS>MOLECULE
FAKSOC
    82    86     2
SMALL
NO_CHARGES
****
Generated from CSD

@<TRIPOS>ATOM
      1 O1        -1.4661   -5.0036    4.4453 O.3       1 RES1    0.0000
      2 O2        -4.2691   -5.1377    1.8756 O.3       1 RES1    0.0000
      3 O3        -2.7281   -0.8573    1.5789 O.2       1 RES1    0.0000
      4 N1        -3.5793   -4.1857    2.6651 N.am      1 RES1    0.0000
      5 O4         0.0852   -4.4317    2.7722 O.3       1 RES1    0.0000
      6 O5        -5.0272   -4.8216    4.2892 O.2       1 RES1    0.0000
      7 C1        -1.1615   -4.1045    3.3901 C.3       1 RES1    0.0000
      8 C2        -2.1753   -4.1992    2.2278 C.3       1 RES1    0.0000
      9 H1        -2.0216   -5.0578    1.7802 H         1 RES1    0.0000
     10 C3        -1.9223   -3.0848    1.1765 C.3       1 RES1    0.0000
     11 H2        -1.0648   -3.2263    0.7456 H         1 RES1    0.0000
     12 H3        -2.6127   -3.1107    0.4954 H         1 RES1    0.0000
     13 C4        -1.9341   -1.7380    1.8743 C.2       1 RES1    0.0000
     14 C5        -0.9237   -1.6174    2.9682 C.3       1 RES1    0.0000
     15 H4        -0.9908   -0.7392    3.3772 H         1 RES1    0.0000
     16 H5        -0.0318   -1.7085    2.5980 H         1 RES1    0.0000
     17 C6        -3.6043   -3.0123    4.9019 C.ar      1 RES1    0.0000
     18 C7        -1.1524   -2.7121    4.0479 C.3       1 RES1    0.0000
     19 H6        -0.3790   -2.6863    4.6491 H         1 RES1    0.0000
     20 C8        -2.3658   -2.3997    4.8826 C.ar      1 RES1    0.0000
     21 C9        -2.1756   -1.3296    5.8113 C.ar      1 RES1    0.0000
     22 H7        -1.3452   -0.9102    5.8436 H         1 RES1    0.0000
     23 C10       -4.3988   -1.5584    6.6847 C.ar      1 RES1    0.0000
     24 H8        -5.0634   -1.3087    7.2871 H         1 RES1    0.0000
     25 C11       -4.0627   -4.1414    3.9860 C.2       1 RES1    0.0000
     26 C12       -3.1792   -0.8893    6.6692 C.ar      1 RES1    0.0000
     27 H9        -3.0363   -0.1562    7.2252 H         1 RES1    0.0000
     28 C13       -1.5444   -6.4108    4.0699 C.3       1 RES1    0.0000
     29 H10       -1.7600   -6.9372    4.8439 H         1 RES1    0.0000
     30 H11       -0.6986   -6.6949    3.7151 H         1 RES1    0.0000
     31 H12       -2.2256   -6.5264    3.4030 H         1 RES1    0.0000
     32 C14       -4.6164   -2.6113    5.7855 C.ar      1 RES1    0.0000
     33 H13       -5.4375   -3.0467    5.7752 H         1 RES1    0.0000
     34 C15        1.2330   -4.5030    3.6274 C.3       1 RES1    0.0000
     35 H14        2.0077   -4.7257    3.1063 H         1 RES1    0.0000
     36 H15        1.0921   -5.1771    4.2969 H         1 RES1    0.0000
     37 H16        1.3673   -3.6531    4.0544 H         1 RES1    0.0000
     38 C16       -5.2504   -4.4735    1.0758 C.3       1 RES1    0.0000
     39 H17       -5.7186   -5.1193    0.5418 H         1 RES1    0.0000
     40 H18       -4.8185   -3.8364    0.5018 H         1 RES1    0.0000
     41 H19       -5.8735   -4.0184    1.6473 H         1 RES1    0.0000
     42 O6         3.2312    2.9274    2.0020 O.3       2 RES2    0.0000
     43 O7         1.9322   -1.2005    4.8697 O.2       2 RES2    0.0000
     44 O8         0.4078    3.0615    4.5910 O.3       2 RES2    0.0000
     45 O9         4.7676    2.3419    3.6880 O.3       2 RES2    0.0000
     46 N2         1.1037    2.1144    3.7745 N.am      2 RES2    0.0000
     47 O10       -0.3347    2.7392    2.1543 O.2       2 RES2    0.0000
     48 C17        2.5239    2.1082    4.2234 C.3       2 RES2    0.0000
     49 H20        2.6815    2.9631    4.6775 H         2 RES2    0.0000
     50 C18        2.3660    0.3112    1.5364 C.ar      2 RES2    0.0000
     51 C19        3.5587    0.6384    2.3981 C.3       2 RES2    0.0000
     52 H21        4.3432    0.6125    1.8111 H         2 RES2    0.0000
     53 C20        2.7327   -0.3469    4.5820 C.2       2 RES2    0.0000
     54 C21        2.7500    0.9975    5.2696 C.3       2 RES2    0.0000
     55 H22        3.6041    1.1304    5.7107 H         2 RES2    0.0000
     56 H23        2.0522    1.0320    5.9429 H         2 RES2    0.0000
     57 C22        1.1097    0.9422    1.5622 C.ar      2 RES2    0.0000
     58 C23        3.5500    2.0184    3.0637 C.3       2 RES2    0.0000
     59 C24        3.7771   -0.4600    3.4855 C.3       2 RES2    0.0000
     60 H24        3.7224   -1.3382    3.0753 H         2 RES2    0.0000
     61 H25        4.6615   -0.3628    3.8712 H         2 RES2    0.0000
     62 C25        0.6374    2.0492    2.4651 C.2       2 RES2    0.0000
     63 C26        0.1141    0.5375    0.6514 C.ar      2 RES2    0.0000
     64 H26       -0.6975    0.9914    0.6192 H         2 RES2    0.0000
     65 C27        0.3396   -0.5375   -0.1999 C.ar      2 RES2    0.0000
     66 H27       -0.3422   -0.8278   -0.7624 H         2 RES2    0.0000
     67 C28        1.5574   -1.1796   -0.2219 C.ar      2 RES2    0.0000
     68 H28        1.7091   -1.8942   -0.7972 H         2 RES2    0.0000
     69 C29       -0.5990    2.3973    5.3650 C.3       2 RES2    0.0000
     70 H29       -1.0644    3.0406    5.9055 H         2 RES2    0.0000
     71 H30       -0.1862    1.7417    5.9326 H         2 RES2    0.0000
     72 H31       -1.2206    1.9631    4.7768 H         2 RES2    0.0000
     73 C30        3.1689    4.3185    2.3813 C.3       2 RES2    0.0000
     74 H32        2.9476    4.8511    1.6138 H         2 RES2    0.0000
     75 H33        4.0207    4.5941    2.7270 H         2 RES2    0.0000
     76 H34        2.4964    4.4366    3.0572 H         2 RES2    0.0000
     77 C31        2.5468   -0.7368    0.6282 C.ar      2 RES2    0.0000
     78 H35        3.3766   -1.1574    0.5973 H         2 RES2    0.0000
     79 C32        5.9240    2.4096    2.8302 C.3       2 RES2    0.0000
     80 H36        6.6960    2.6384    3.3526 H         2 RES2    0.0000
     81 H37        5.7837    3.0787    2.1555 H         2 RES2    0.0000
     82 H38        6.0615    1.5560    2.4123 H         2 RES2    0.0000
@<TRIPOS>BOND
     1    1    7 1
     2    2    4 1
     3    3   13 2
     4    4    8 1
     5    5    7 1
     6    6   25 2
     7    7    8 1
     8    8    9 1
     9   10    8 1
    10   11   10 1
    11   12   10 1
    12   13   10 1
    13   14   13 1
    14   15   14 1
    15   16   14 1
    16   17   20 ar
    17   18    7 1
    18   19   18 1
    19   20   18 1
    20   21   20 ar
    21   22   21 1
    22   23   24 1
    23   25    4 1
    24   26   21 ar
    25   27   26 1
    26   28    1 1
    27   29   28 1
    28   30   28 1
    29   31   28 1
    30   32   17 ar
    31   33   32 1
    32   34    5 1
    33   35   34 1
    34   36   34 1
    35   37   34 1
    36   38    2 1
    37   39   38 1
    38   40   38 1
    39   41   38 1
    40   42   58 1
    41   43   53 2
    42   44   46 1
    43   45   58 1
    44   46   48 1
    45   47   62 2
    46   48   49 1
    47   50   51 1
    48   51   52 1
    49   53   54 1
    50   54   48 1
    51   55   54 1
    52   56   54 1
    53   57   50 ar
    54   58   48 1
    55   59   51 1
    56   60   59 1
    57   61   59 1
    58   62   46 1
    59   63   57 ar
    60   64   63 1
    61   65   63 ar
    62   66   65 1
    63   67   65 ar
    64   68   67 1
    65   69   44 1
    66   70   69 1
    67   71   69 1
    68   72   69 1
    69   73   42 1
    70   74   73 1
    71   75   73 1
    72   76   73 1
    73   77   50 ar
    74   78   77 1
    75   79   45 1
    76   80   79 1
    77   81   79 1
    78   82   79 1
    79   14   18 1
    80   17   25 1
    81   23   26 ar
    82   23   32 ar
    83   51   58 1
    84   53   59 1
    85   57   62 1
    86   67   77 ar
@<TRIPOS>SUBSTRUCTURE
     1 RES1 1
     2 RES2 42

@<TRIPOS>CRYSIN
   9.3740   12.3000   12.9000  90.0000  90.3500  90.0000   4 1

