# MOL2 file generated by ConQuest
# Please check atom types

@<TRIPOS>MOLECULE
FAKTIU
    86    90     2
SMALL
NO_CHARGES
****
Generated from CSD

@<TRIPOS>ATOM
      1 C1         4.2285   12.5159    3.8831 C.3       1 RES1    0.0000
      2 N1         4.1026   11.5188    2.8093 N.3       1 RES1    0.0000
      3 O1         4.6994   12.1732    1.6614 O.3       1 RES1    0.0000
      4 C2         4.3113   13.5617    1.7357 C.3       1 RES1    0.0000
      5 C3         4.3992   13.8982    3.2124 C.3       1 RES1    0.0000
      6 C4         5.7777   14.3542    3.6855 C.3       1 RES1    0.0000
      7 O2         6.0182   13.6489    4.9040 O.3       1 RES1    0.0000
      8 C5         5.5279   12.3264    4.6654 C.3       1 RES1    0.0000
      9 C6         5.4569   11.5518    5.9822 C.3       1 RES1    0.0000
     10 O3         7.7730   10.7403    5.6654 O.3       1 RES1    0.0000
     11 C7         6.8750   11.3973    6.5445 C.3       1 RES1    0.0000
     12 C8         4.8510   10.1745    5.7159 C.3       1 RES1    0.0000
     13 C9         4.6429   12.3001    7.0414 C.3       1 RES1    0.0000
     14 C10        2.7112   11.1785    2.4873 C.3       1 RES1    0.0000
     15 C11        2.6076   10.0866    1.4601 C.ar      1 RES1    0.0000
     16 C12        1.4142    9.9256    0.7621 C.ar      1 RES1    0.0000
     17 C13        1.2665    8.8860   -0.1332 C.ar      1 RES1    0.0000
     18 C14        2.3036    7.9989   -0.3566 C.ar      1 RES1    0.0000
     19 C15        3.4888    8.1571    0.3284 C.ar      1 RES1    0.0000
     20 C16        3.6386    9.1902    1.2352 C.ar      1 RES1    0.0000
     21 H1         3.4335   12.5012    4.4889 H         1 RES1    0.0000
     22 H2         3.3885   13.6885    1.3995 H         1 RES1    0.0000
     23 H3         4.9264   14.1290    1.2071 H         1 RES1    0.0000
     24 H4         3.6817   14.5363    3.4911 H         1 RES1    0.0000
     25 H5         6.4686   14.1331    3.0123 H         1 RES1    0.0000
     26 H6         5.7876   15.3321    3.8417 H         1 RES1    0.0000
     27 H7         6.1806   11.8594    4.0691 H         1 RES1    0.0000
     28 H8         7.6362    9.8445    5.6900 H         1 RES1    0.0000
     29 H9         7.2338   12.2955    6.7539 H         1 RES1    0.0000
     30 H10        6.8288   10.8873    7.3920 H         1 RES1    0.0000
     31 H11        3.9076   10.2745    5.4706 H         1 RES1    0.0000
     32 H12        4.9219    9.6248    6.5245 H         1 RES1    0.0000
     33 H13        5.3355    9.7415    4.9828 H         1 RES1    0.0000
     34 H14        3.7448   12.4840    6.6938 H         1 RES1    0.0000
     35 H15        5.0882   13.1457    7.2588 H         1 RES1    0.0000
     36 H16        4.5746   11.7498    7.8498 H         1 RES1    0.0000
     37 H17        2.2509   11.9863    2.1488 H         1 RES1    0.0000
     38 H18        2.2484   10.8903    3.3138 H         1 RES1    0.0000
     39 H19        0.6987   10.5346    0.9026 H         1 RES1    0.0000
     40 H20        0.4467    8.7782   -0.5991 H         1 RES1    0.0000
     41 H21        2.2004    7.2858   -0.9767 H         1 RES1    0.0000
     42 H22        4.2067    7.5534    0.1773 H         1 RES1    0.0000
     43 H23        4.4571    9.2856    1.7080 H         1 RES1    0.0000
     44 C17        8.8846    5.1287    6.0926 C.3       2 RES2    0.0000
     45 N2         8.9900    6.1672    7.1356 N.3       2 RES2    0.0000
     46 O4         8.3052    5.5704    8.2656 O.3       2 RES2    0.0000
     47 C18        8.6845    4.1728    8.2808 C.3       2 RES2    0.0000
     48 C19        8.7555    3.7695    6.8138 C.3       2 RES2    0.0000
     49 C20        7.4717    3.1776    6.2329 C.3       2 RES2    0.0000
     50 O5         7.2272    3.8921    5.0181 O.3       2 RES2    0.0000
     51 C21        7.5683    5.2404    5.3294 C.3       2 RES2    0.0000
     52 C22        7.5281    6.1220    4.0749 C.3       2 RES2    0.0000
     53 O6         7.5041    8.0339    5.6291 O.3       2 RES2    0.0000
     54 C23        8.0788    7.4983    4.4278 C.3       2 RES2    0.0000
     55 C24        8.3794    5.5312    2.9464 C.3       2 RES2    0.0000
     56 C25        6.0791    6.2501    3.6113 C.3       2 RES2    0.0000
     57 C26       10.3867    6.4545    7.5007 C.3       2 RES2    0.0000
     58 C27       10.5279    7.5431    8.5244 C.ar      2 RES2    0.0000
     59 C28       11.7247    7.6327    9.2322 C.ar      2 RES2    0.0000
     60 C29       11.9250    8.6539   10.1398 C.ar      2 RES2    0.0000
     61 C30       10.9362    9.5924   10.3692 C.ar      2 RES2    0.0000
     62 C31        9.7541    9.5069    9.6787 C.ar      2 RES2    0.0000
     63 C32        9.5516    8.4936    8.7610 C.ar      2 RES2    0.0000
     64 H24        9.6713    5.1452    5.4756 H         2 RES2    0.0000
     65 H25        8.0101    3.6309    8.7614 H         2 RES2    0.0000
     66 H26        9.5633    4.0525    8.7203 H         2 RES2    0.0000
     67 H27        9.5438    3.1820    6.6327 H         2 RES2    0.0000
     68 H28        7.5866    2.2110    6.0516 H         2 RES2    0.0000
     69 H29        6.7179    3.2958    6.8641 H         2 RES2    0.0000
     70 H30        6.8796    5.5876    5.9655 H         2 RES2    0.0000
     71 H31        7.8556    7.5925    6.3011 H         2 RES2    0.0000
     72 H32        9.0607    7.4347    4.5400 H         2 RES2    0.0000
     73 H33        7.8987    8.1204    3.6785 H         2 RES2    0.0000
     74 H34        8.3593    6.1329    2.1728 H         2 RES2    0.0000
     75 H35        8.0200    4.6556    2.6897 H         2 RES2    0.0000
     76 H36        9.3042    5.4275    3.2547 H         2 RES2    0.0000
     77 H37        6.0468    6.7655    2.7789 H         2 RES2    0.0000
     78 H38        5.5547    6.7088    4.3006 H         2 RES2    0.0000
     79 H39        5.7046    5.3568    3.4581 H         2 RES2    0.0000
     80 H40       10.8825    6.7159    6.6847 H         2 RES2    0.0000
     81 H41       10.8019    5.6282    7.8538 H         2 RES2    0.0000
     82 H42       12.4072    6.9867    9.0900 H         2 RES2    0.0000
     83 H43       12.7498    8.7123   10.6106 H         2 RES2    0.0000
     84 H44       11.0736   10.2910   10.9993 H         2 RES2    0.0000
     85 H45        9.0705   10.1478    9.8323 H         2 RES2    0.0000
     86 H46        8.7301    8.4493    8.2856 H         2 RES2    0.0000
@<TRIPOS>BOND
     1    1    2 1
     2    2    3 1
     3    3    4 1
     4    4    5 1
     5    5    1 1
     6    6    5 1
     7    7    6 1
     8    8    1 1
     9    9    8 1
    10   10   11 1
    11   11    9 1
    12   12    9 1
    13   13    9 1
    14   14    2 1
    15   15   14 1
    16   16   15 ar
    17   17   16 ar
    18   18   17 ar
    19   19   18 ar
    20   20   15 ar
    21   21    1 1
    22   22    4 1
    23   23    4 1
    24   24    5 1
    25   25    6 1
    26   26    6 1
    27   27    8 1
    28   28   10 1
    29   29   11 1
    30   30   11 1
    31   31   12 1
    32   32   12 1
    33   33   12 1
    34   34   13 1
    35   35   13 1
    36   36   13 1
    37   37   14 1
    38   38   14 1
    39   39   16 1
    40   40   17 1
    41   41   18 1
    42   42   19 1
    43   43   20 1
    44   44   45 1
    45   45   46 1
    46   46   47 1
    47   47   48 1
    48   48   44 1
    49   49   48 1
    50   50   49 1
    51   51   44 1
    52   52   51 1
    53   53   54 1
    54   54   52 1
    55   55   52 1
    56   56   52 1
    57   57   45 1
    58   58   57 1
    59   59   58 ar
    60   60   59 ar
    61   61   60 ar
    62   62   61 ar
    63   63   58 ar
    64   64   44 1
    65   65   47 1
    66   66   47 1
    67   67   48 1
    68   68   49 1
    69   69   49 1
    70   70   51 1
    71   71   53 1
    72   72   54 1
    73   73   54 1
    74   74   55 1
    75   75   55 1
    76   76   55 1
    77   77   56 1
    78   78   56 1
    79   79   56 1
    80   80   57 1
    81   81   57 1
    82   82   59 1
    83   83   60 1
    84   84   61 1
    85   85   62 1
    86   86   63 1
    87    7    8 1
    88   19   20 ar
    89   50   51 1
    90   62   63 ar
@<TRIPOS>SUBSTRUCTURE
     1 RES1 1
     2 RES2 44

@<TRIPOS>CRYSIN
  12.1160   12.4430   12.7490  62.6600  62.7400  84.2800   2 1

