# MOL2 file generated by ConQuest
# Please check atom types

@<TRIPOS>MOLECULE
FAKVAO
    44    46     1
SMALL
NO_CHARGES
****
Generated from CSD

@<TRIPOS>ATOM
      1 O1        -9.9757   -3.9047   -2.4487 O.3       1 RES1    0.0000
      2 C1        -8.8601   -3.1067   -2.0850 C.3       1 RES1    0.0000
      3 C2        -7.6262   -3.7097   -2.8030 C.3       1 RES1    0.0000
      4 C3        -8.2166   -4.8471   -3.6626 C.3       1 RES1    0.0000
      5 C4        -9.6929   -4.4595   -3.7368 C.3       1 RES1    0.0000
      6 C5        -7.5616   -5.0902   -5.0121 C.3       1 RES1    0.0000
      7 O2        -8.1575   -6.2457   -5.5815 O.3       1 RES1    0.0000
      8 O3        -7.7675   -1.9598   -4.3818 O.2       1 RES1    0.0000
      9 N1        -6.9795   -2.6402   -3.6185 N.pl3     1 RES1    0.0000
     10 C6        -5.6852   -2.4381   -3.5106 C.2       1 RES1    0.0000
     11 C7        -4.9017   -1.4452   -4.2103 C.ar      1 RES1    0.0000
     12 C8        -3.5149   -1.4665   -3.9361 C.ar      1 RES1    0.0000
     13 C9        -2.6618   -0.5659   -4.5337 C.ar      1 RES1    0.0000
     14 C10       -3.1578    0.3812   -5.4156 C.ar      1 RES1    0.0000
     15 C11       -4.5230    0.4246   -5.6884 C.ar      1 RES1    0.0000
     16 C12       -5.3893   -0.4807   -5.0977 C.ar      1 RES1    0.0000
     17 C13       -8.7344   -3.0617   -0.5734 C.3       1 RES1    0.0000
     18 C14       -9.9465   -2.4855    0.1325 C.ar      1 RES1    0.0000
     19 C15      -10.3604   -3.0207    1.3539 C.ar      1 RES1    0.0000
     20 C16      -11.4637   -2.5044    2.0239 C.ar      1 RES1    0.0000
     21 C17      -12.1800   -1.4681    1.4884 C.ar      1 RES1    0.0000
     22 C18      -11.7773   -0.9022    0.2830 C.ar      1 RES1    0.0000
     23 C19      -10.6625   -1.4184   -0.3794 C.ar      1 RES1    0.0000
     24 H1        -9.1060   -2.1785   -2.4616 H         1 RES1    0.0000
     25 H2        -6.9811   -4.0333   -2.1952 H         1 RES1    0.0000
     26 H3        -8.0359   -5.6909   -3.1849 H         1 RES1    0.0000
     27 H4        -9.9346   -3.8123   -4.4284 H         1 RES1    0.0000
     28 H5       -10.3272   -5.2094   -3.8955 H         1 RES1    0.0000
     29 H6        -7.6331   -4.3490   -5.5958 H         1 RES1    0.0000
     30 H7        -6.6482   -5.3988   -4.8725 H         1 RES1    0.0000
     31 H8        -8.5274   -6.0303   -6.2683 H         1 RES1    0.0000
     32 H9        -5.2213   -3.0309   -2.8677 H         1 RES1    0.0000
     33 H10       -3.1340   -2.2179   -3.2610 H         1 RES1    0.0000
     34 H11       -1.7239   -0.6709   -4.3649 H         1 RES1    0.0000
     35 H12       -2.5617    1.0103   -5.8368 H         1 RES1    0.0000
     36 H13       -4.8999    1.1208   -6.2683 H         1 RES1    0.0000
     37 H14       -6.3411   -0.3868   -5.2785 H         1 RES1    0.0000
     38 H15       -8.4401   -4.0175   -0.2538 H         1 RES1    0.0000
     39 H16       -7.9387   -2.5652   -0.3680 H         1 RES1    0.0000
     40 H17       -9.8753   -3.7650    1.7511 H         1 RES1    0.0000
     41 H18      -11.7429   -2.8494    2.8550 H         1 RES1    0.0000
     42 H19      -12.9924   -1.0182    2.0429 H         1 RES1    0.0000
     43 H20      -12.3286   -0.1421   -0.0888 H         1 RES1    0.0000
     44 H21      -10.4207   -0.9945   -1.1166 H         1 RES1    0.0000
@<TRIPOS>BOND
     1    1    2 1
     2    2    3 1
     3    3    4 1
     4    4    5 1
     5    5    1 1
     6    6    4 1
     7    7    6 1
     8    8    9 1
     9    9    3 1
    10   10    9 2
    11   11   10 1
    12   12   11 ar
    13   13   12 ar
    14   14   13 ar
    15   15   14 ar
    16   16   11 ar
    17   17    2 1
    18   18   17 1
    19   19   18 ar
    20   20   19 ar
    21   21   20 ar
    22   22   21 ar
    23   23   18 ar
    24   24    2 1
    25   25    3 1
    26   26    4 1
    27   27    5 1
    28   28    5 1
    29   29    6 1
    30   30    6 1
    31   31    7 1
    32   32   10 1
    33   33   12 1
    34   34   13 1
    35   35   14 1
    36   36   15 1
    37   37   16 1
    38   38   17 1
    39   39   17 1
    40   40   19 1
    41   41   20 1
    42   42   21 1
    43   43   22 1
    44   44   23 1
    45   15   16 ar
    46   22   23 ar
@<TRIPOS>SUBSTRUCTURE
     1 RES1 1

@<TRIPOS>CRYSIN
   8.3200    7.8930   12.6910  90.0000  91.0700  90.0000   4 1

