# MOL2 file generated by ConQuest
# Please check atom types

@<TRIPOS>MOLECULE
FAKVOC
    66    68     2
SMALL
NO_CHARGES
****
Generated from CSD

@<TRIPOS>ATOM
      1 N1         2.8841    5.4520    3.1960 N.ar      1 RES1    0.0000
      2 C1         2.8844    6.7861    3.4672 C.ar      1 RES1    0.0000
      3 C2         3.6492    7.6946    2.7098 C.ar      1 RES1    0.0000
      4 C3         4.4790    7.2125    1.7315 C.ar      1 RES1    0.0000
      5 C4         4.5192    5.8407    1.5157 C.ar      1 RES1    0.0000
      6 C5         3.7051    5.0089    2.2484 C.ar      1 RES1    0.0000
      7 N2         5.4022    5.2756    0.5280 N.pl3     1 RES1    0.0000
      8 O1         6.0752    6.0217   -0.1578 O.2       1 RES1    0.0000
      9 O2         5.4666    4.0589    0.4427 O.2       1 RES1    0.0000
     10 N3         2.0893    7.1410    4.4950 N.3       1 RES1    0.0000
     11 C6         1.8581    8.4420    5.0076 C.ar      1 RES1    0.0000
     12 C7         2.8661    9.3443    5.3113 C.ar      1 RES1    0.0000
     13 C8         2.5782   10.5824    5.8461 C.ar      1 RES1    0.0000
     14 C9         1.2554   10.9833    6.0909 C.ar      1 RES1    0.0000
     15 C10        0.2459   10.0495    5.8111 C.ar      1 RES1    0.0000
     16 C11        0.5495    8.8114    5.2908 C.ar      1 RES1    0.0000
     17 N4         0.9430   12.2309    6.5822 N.3       1 RES1    0.0000
     18 C12        1.9517   13.0727    7.1494 C.3       1 RES1    0.0000
     19 C13       -0.4302   12.6017    6.7826 C.3       1 RES1    0.0000
     20 N5         0.3401    5.0533    5.7958 N.ar      2 RES2    0.0000
     21 C14        0.3007    3.7328    5.4708 C.ar      2 RES2    0.0000
     22 C15       -0.6293    2.8454    6.0576 C.ar      2 RES2    0.0000
     23 C16       -1.5342    3.3352    6.9532 C.ar      2 RES2    0.0000
     24 C17       -1.4779    4.6869    7.2748 C.ar      2 RES2    0.0000
     25 C18       -0.5318    5.4992    6.6896 C.ar      2 RES2    0.0000
     26 N6        -2.4111    5.2517    8.2173 N.pl3     2 RES2    0.0000
     27 O3        -3.2521    4.5438    8.7179 O.2       2 RES2    0.0000
     28 O4        -2.3357    6.4404    8.4629 O.2       2 RES2    0.0000
     29 N7         1.1901    3.3811    4.5172 N.3       2 RES2    0.0000
     30 C19        1.4374    2.0942    3.9670 C.ar      2 RES2    0.0000
     31 C20        1.6476    0.9604    4.7381 C.ar      2 RES2    0.0000
     32 C21        1.9433   -0.2566    4.1445 C.ar      2 RES2    0.0000
     33 C22        2.0643   -0.3794    2.7499 C.ar      2 RES2    0.0000
     34 C23        1.8703    0.7811    1.9925 C.ar      2 RES2    0.0000
     35 C24        1.5543    1.9808    2.5895 C.ar      2 RES2    0.0000
     36 N8         2.3921   -1.5791    2.1528 N.3       2 RES2    0.0000
     37 C25        2.4661   -2.7849    2.9256 C.3       2 RES2    0.0000
     38 C26        2.3852   -1.6978    0.7165 C.3       2 RES2    0.0000
     39 H1         3.5706    8.6473    2.8744 H         1 RES1    0.0000
     40 H2         5.0259    7.8332    1.0918 H         1 RES1    0.0000
     41 H3         3.6883    4.0483    2.0897 H         1 RES1    0.0000
     42 H4         1.5963    6.4544    4.8447 H         1 RES1    0.0000
     43 H5         3.8228    9.0937    5.1944 H         1 RES1    0.0000
     44 H6         3.4008   11.1938    6.0559 H         1 RES1    0.0000
     45 H7        -0.6895   10.2754    5.9536 H         1 RES1    0.0000
     46 H8        -0.1481    8.1369    5.1347 H         1 RES1    0.0000
     47 H9         1.4928   13.8414    7.5059 H         1 RES1    0.0000
     48 H10        2.6082   13.3251    6.5165 H         1 RES1    0.0000
     49 H11        2.5466   12.6215    7.8471 H         1 RES1    0.0000
     50 H12       -0.9401   12.4484    5.9365 H         1 RES1    0.0000
     51 H13       -0.8998   12.1044    7.5741 H         1 RES1    0.0000
     52 H14       -0.4902   13.4539    7.1647 H         1 RES1    0.0000
     53 H15       -0.6114    1.9135    5.7830 H         2 RES2    0.0000
     54 H16       -2.2139    2.7655    7.3524 H         2 RES2    0.0000
     55 H17       -0.4649    6.4238    6.8747 H         2 RES2    0.0000
     56 H18        1.7043    4.0891    4.1880 H         2 RES2    0.0000
     57 H19        1.6182    0.9905    5.6891 H         2 RES2    0.0000
     58 H20        2.1080   -1.0187    4.7168 H         2 RES2    0.0000
     59 H21        1.9518    0.7113    1.0577 H         2 RES2    0.0000
     60 H22        1.3787    2.7761    2.0129 H         2 RES2    0.0000
     61 H23        3.1952   -2.6679    3.7359 H         2 RES2    0.0000
     62 H24        1.6898   -2.9377    3.4630 H         2 RES2    0.0000
     63 H25        2.7906   -3.4763    2.2859 H         2 RES2    0.0000
     64 H26        1.4808   -1.4701    0.3753 H         2 RES2    0.0000
     65 H27        2.5696   -2.5672    0.4606 H         2 RES2    0.0000
     66 H28        3.0197   -1.1271    0.3412 H         2 RES2    0.0000
@<TRIPOS>BOND
     1    1    2 ar
     2    2    3 ar
     3    3    4 ar
     4    4    5 ar
     5    5    6 ar
     6    6    1 ar
     7    7    5 1
     8    8    7 2
     9    9    7 2
    10   10    2 1
    11   11   10 1
    12   12   11 ar
    13   13   12 ar
    14   14   13 ar
    15   15   14 ar
    16   16   11 ar
    17   17   14 1
    18   18   17 1
    19   19   17 1
    20   20   21 ar
    21   21   22 ar
    22   22   23 ar
    23   23   24 ar
    24   24   25 ar
    25   25   20 ar
    26   26   24 1
    27   27   26 2
    28   28   26 2
    29   29   21 1
    30   30   29 1
    31   31   30 ar
    32   32   31 ar
    33   33   32 ar
    34   34   33 ar
    35   35   30 ar
    36   36   33 1
    37   37   36 1
    38   38   36 1
    39   39    3 1
    40   40    4 1
    41   41    6 1
    42   42   10 1
    43   43   12 1
    44   44   13 1
    45   45   15 1
    46   46   16 1
    47   47   18 1
    48   48   18 1
    49   49   18 1
    50   50   19 1
    51   51   19 1
    52   52   19 1
    53   53   22 1
    54   54   23 1
    55   55   25 1
    56   56   29 1
    57   57   31 1
    58   58   32 1
    59   59   34 1
    60   60   35 1
    61   61   37 1
    62   62   37 1
    63   63   37 1
    64   64   38 1
    65   65   38 1
    66   66   38 1
    67   15   16 ar
    68   34   35 ar
@<TRIPOS>SUBSTRUCTURE
     1 RES1 1
     2 RES2 20

@<TRIPOS>CRYSIN
   9.8750   15.5290    9.6960 118.1500  90.7800  95.5800   2 1

