# MOL2 file generated by ConQuest
# Please check atom types

@<TRIPOS>MOLECULE
FAKVUI
    50    52     2
SMALL
NO_CHARGES
****
Generated from CSD

@<TRIPOS>ATOM
      1 N1         7.8533    8.7919    5.4531 N.ar      1 RES1    0.0000
      2 C1         7.8819    9.8795    6.2610 C.ar      1 RES1    0.0000
      3 C2         7.1278    9.9502    7.4424 C.ar      1 RES1    0.0000
      4 C3         6.2515    8.9332    7.7375 C.ar      1 RES1    0.0000
      5 C4         6.1571    7.8742    6.8381 C.ar      1 RES1    0.0000
      6 C5         6.9842    7.8213    5.7417 C.ar      1 RES1    0.0000
      7 N2         5.2014    6.8090    7.0566 N.pl3     1 RES1    0.0000
      8 O1         4.6690    6.7232    8.1577 O.2       1 RES1    0.0000
      9 O2         4.9477    6.0500    6.1302 O.2       1 RES1    0.0000
     10 N3         8.7251   10.8608    5.8342 N.3       1 RES1    0.0000
     11 C6         8.8647   12.1802    6.3142 C.ar      1 RES1    0.0000
     12 C7         7.8100   12.9326    6.8120 C.ar      1 RES1    0.0000
     13 C8         8.0232   14.2538    7.1911 C.ar      1 RES1    0.0000
     14 C9         9.2671   14.8426    7.0585 C.ar      1 RES1    0.0000
     15 C10       10.3126   14.0927    6.5430 C.ar      1 RES1    0.0000
     16 C11       10.1233   12.7752    6.1797 C.ar      1 RES1    0.0000
     17 N4        10.4301   10.3334    3.3313 N.ar      2 RES2    0.0000
     18 C12       10.4869    9.1675    2.6411 C.ar      2 RES2    0.0000
     19 C13       11.4031    8.9525    1.5905 C.ar      2 RES2    0.0000
     20 C14       12.2863    9.9504    1.2692 C.ar      2 RES2    0.0000
     21 C15       12.2143   11.1396    1.9827 C.ar      2 RES2    0.0000
     22 C16       11.2815   11.2986    2.9876 C.ar      2 RES2    0.0000
     23 N5        13.1238   12.2265    1.7007 N.pl3     2 RES2    0.0000
     24 O3        13.9473   12.0859    0.8125 O.2       2 RES2    0.0000
     25 O4        13.0496   13.2353    2.3833 O.2       2 RES2    0.0000
     26 N6         9.6086    8.2333    3.0903 N.3       2 RES2    0.0000
     27 C17        9.3706    6.9360    2.5729 C.ar      2 RES2    0.0000
     28 C18        9.2145    6.6877    1.2197 C.ar      2 RES2    0.0000
     29 C19        8.9351    5.3892    0.7910 C.ar      2 RES2    0.0000
     30 C20        8.7815    4.3640    1.6932 C.ar      2 RES2    0.0000
     31 C21        8.9053    4.6210    3.0436 C.ar      2 RES2    0.0000
     32 C22        9.2109    5.8950    3.4863 C.ar      2 RES2    0.0000
     33 H1         7.2024   10.6534    8.0503 H         1 RES1    0.0000
     34 H2         5.7260    8.9416    8.5827 H         1 RES1    0.0000
     35 H3         6.9970    7.1132    5.1178 H         1 RES1    0.0000
     36 H4         9.2236   10.6435    5.0525 H         1 RES1    0.0000
     37 H5         6.9086   12.5640    6.7709 H         1 RES1    0.0000
     38 H6         7.2145   14.7604    7.4713 H         1 RES1    0.0000
     39 H7         9.4114   15.7660    7.3406 H         1 RES1    0.0000
     40 H8        11.2171   14.4918    6.4253 H         1 RES1    0.0000
     41 H9        10.8778   12.2419    5.8556 H         1 RES1    0.0000
     42 H10       11.4973    8.1528    1.1394 H         2 RES2    0.0000
     43 H11       12.9595    9.8497    0.5510 H         2 RES2    0.0000
     44 H12       11.2409   12.1350    3.5302 H         2 RES2    0.0000
     45 H13        9.1220    8.4362    3.7730 H         2 RES2    0.0000
     46 H14        9.2163    7.4454    0.6257 H         2 RES2    0.0000
     47 H15        8.8626    5.2029   -0.1027 H         2 RES2    0.0000
     48 H16        8.5454    3.4327    1.3915 H         2 RES2    0.0000
     49 H17        8.7733    3.9110    3.6983 H         2 RES2    0.0000
     50 H18        9.3268    6.1032    4.4454 H         2 RES2    0.0000
@<TRIPOS>BOND
     1    1    2 ar
     2    2    3 ar
     3    3    4 ar
     4    4    5 ar
     5    5    6 ar
     6    6    1 ar
     7    7    5 1
     8    8    7 2
     9    9    7 2
    10   10    2 1
    11   11   10 1
    12   12   11 ar
    13   13   12 ar
    14   14   13 ar
    15   15   14 ar
    16   16   11 ar
    17   17   18 ar
    18   18   19 ar
    19   19   20 ar
    20   20   21 ar
    21   21   22 ar
    22   22   17 ar
    23   23   21 1
    24   24   23 2
    25   25   23 2
    26   26   18 1
    27   27   26 1
    28   28   27 ar
    29   29   28 ar
    30   30   29 ar
    31   31   30 ar
    32   32   27 ar
    33   33    3 1
    34   34    4 1
    35   35    6 1
    36   36   10 1
    37   37   12 1
    38   38   13 1
    39   39   14 1
    40   40   15 1
    41   41   16 1
    42   42   19 1
    43   43   20 1
    44   44   22 1
    45   45   26 1
    46   46   28 1
    47   47   29 1
    48   48   30 1
    49   49   31 1
    50   50   32 1
    51   15   16 ar
    52   31   32 ar
@<TRIPOS>SUBSTRUCTURE
     1 RES1 1
     2 RES2 17

@<TRIPOS>CRYSIN
   9.8620   11.2090    9.8220 107.9300  90.8700  80.9500   2 1

