# MOL2 file generated by ConQuest
# Please check atom types

@<TRIPOS>MOLECULE
FAKWET
    54    56     2
SMALL
NO_CHARGES
****
Generated from CSD

@<TRIPOS>ATOM
      1 N1        -0.6009    5.8754    5.9601 N.ar      1 RES1    0.0000
      2 C1        -0.3417    6.9966    6.6473 C.ar      1 RES1    0.0000
      3 C2         0.8966    7.6541    6.5642 C.ar      1 RES1    0.0000
      4 C3         1.8732    7.1394    5.7670 C.ar      1 RES1    0.0000
      5 C4         1.6021    5.9740    5.0776 C.ar      1 RES1    0.0000
      6 C5         0.3732    5.3641    5.1764 C.ar      1 RES1    0.0000
      7 N2         2.6394    5.3824    4.2444 N.pl3     1 RES1    0.0000
      8 O1         3.7132    5.9341    4.1703 O.2       1 RES1    0.0000
      9 O2         2.4021    4.3663    3.6223 O.2       1 RES1    0.0000
     10 N3        -1.2754    7.5666    7.5119 N.3       1 RES1    0.0000
     11 C6        -2.4668    7.0498    7.9925 C.ar      1 RES1    0.0000
     12 C7        -3.0397    5.9020    7.5478 C.ar      1 RES1    0.0000
     13 C8        -4.2042    5.4538    8.1227 C.ar      1 RES1    0.0000
     14 C9        -4.8096    6.1953    9.1243 C.ar      1 RES1    0.0000
     15 C10       -4.2516    7.3774    9.5735 C.ar      1 RES1    0.0000
     16 C11       -3.0995    7.8046    9.0053 C.ar      1 RES1    0.0000
     17 N4        -6.0290    5.6895    9.7307 N.pl3     1 RES1    0.0000
     18 O3        -6.4711    4.6275    9.3467 O.2       1 RES1    0.0000
     19 O4        -6.5534    6.3752   10.6155 O.2       1 RES1    0.0000
     20 N5         5.8847    0.7155    9.5914 N.ar      2 RES2    0.0000
     21 C12        7.0282    0.9745    8.9132 C.ar      2 RES2    0.0000
     22 C13        7.4043    0.2424    7.7881 C.ar      2 RES2    0.0000
     23 C14        6.6159   -0.7609    7.3390 C.ar      2 RES2    0.0000
     24 C15        5.4638   -1.0371    8.0441 C.ar      2 RES2    0.0000
     25 C16        5.1040   -0.2966    9.1535 C.ar      2 RES2    0.0000
     26 N6         4.5993   -2.1444    7.6242 N.pl3     2 RES2    0.0000
     27 O5         4.8933   -2.7404    6.5979 O.2       2 RES2    0.0000
     28 O6         3.6921   -2.4875    8.3541 O.2       2 RES2    0.0000
     29 N7         7.8816    1.9779    9.3332 N.3       2 RES2    0.0000
     30 C17        7.8121    2.9059   10.3483 C.ar      2 RES2    0.0000
     31 C18        6.7670    2.9845   11.2106 C.ar      2 RES2    0.0000
     32 C19        6.7436    3.9745   12.1650 C.ar      2 RES2    0.0000
     33 C20        7.7884    4.8710   12.2391 C.ar      2 RES2    0.0000
     34 C21        8.8806    4.7769   11.3948 C.ar      2 RES2    0.0000
     35 C22        8.8851    3.8013   10.4493 C.ar      2 RES2    0.0000
     36 N8         7.7341    5.9352   13.2250 N.pl3     2 RES2    0.0000
     37 O7         6.7389    6.0536   13.9257 O.2       2 RES2    0.0000
     38 O8         8.7134    6.6646   13.3373 O.2       2 RES2    0.0000
     39 H1         0.9962    8.3840    7.0965 H         1 RES1    0.0000
     40 H2         2.7923    7.6093    5.7490 H         1 RES1    0.0000
     41 H3         0.1773    4.5489    4.6935 H         1 RES1    0.0000
     42 H4        -1.0247    8.4394    7.9274 H         1 RES1    0.0000
     43 H5        -2.6155    5.3126    7.0515 H         1 RES1    0.0000
     44 H6        -4.6588    4.6209    7.7702 H         1 RES1    0.0000
     45 H7        -4.6103    7.9579   10.2854 H         1 RES1    0.0000
     46 H8        -2.7491    8.4560    9.3197 H         1 RES1    0.0000
     47 H9         8.2442    0.3542    7.2537 H         2 RES2    0.0000
     48 H10        6.7414   -1.2673    6.4677 H         2 RES2    0.0000
     49 H11        4.2714   -0.4261    9.6117 H         2 RES2    0.0000
     50 H12        8.5949    2.0808    8.8257 H         2 RES2    0.0000
     51 H13        6.1954    2.4682   11.2510 H         2 RES2    0.0000
     52 H14        6.0585    4.0675   12.8006 H         2 RES2    0.0000
     53 H15        9.6144    5.4399   11.4756 H         2 RES2    0.0000
     54 H16        9.6387    3.7299    9.7689 H         2 RES2    0.0000
@<TRIPOS>BOND
     1    1    2 ar
     2    2    3 ar
     3    3    4 ar
     4    4    5 ar
     5    5    6 ar
     6    6    1 ar
     7    7    5 1
     8    8    7 2
     9    9    7 2
    10   10    2 1
    11   11   10 1
    12   12   11 ar
    13   13   12 ar
    14   14   13 ar
    15   15   14 ar
    16   16   11 ar
    17   17   14 1
    18   18   17 2
    19   19   17 2
    20   20   21 ar
    21   21   22 ar
    22   22   23 ar
    23   23   24 ar
    24   24   25 ar
    25   25   20 ar
    26   26   24 1
    27   27   26 2
    28   28   26 2
    29   29   21 1
    30   30   29 1
    31   31   30 ar
    32   32   31 ar
    33   33   32 ar
    34   34   33 ar
    35   35   30 ar
    36   36   33 1
    37   37   36 2
    38   38   36 2
    39   39    3 1
    40   40    4 1
    41   41    6 1
    42   42   10 1
    43   43   12 1
    44   44   13 1
    45   45   15 1
    46   46   16 1
    47   47   22 1
    48   48   23 1
    49   49   25 1
    50   50   29 1
    51   51   31 1
    52   52   32 1
    53   53   34 1
    54   54   35 1
    55   15   16 ar
    56   34   35 ar
@<TRIPOS>SUBSTRUCTURE
     1 RES1 1
     2 RES2 20

@<TRIPOS>CRYSIN
  18.4380    5.5340   24.6930  90.0000 114.5700  90.0000  14 1

