# MOL2 file generated by ConQuest
# Please check atom types

@<TRIPOS>MOLECULE
FALBEB
    26    28     1
SMALL
NO_CHARGES
****
Generated from CSD

@<TRIPOS>ATOM
      1 O1         1.6013   -1.5574   18.3017 O.3       1 RES1    0.0000
      2 O2        -0.0203    0.8437   20.3251 O.2       1 RES1    0.0000
      3 O3         0.6264    2.3595   18.2116 O.3       1 RES1    0.0000
      4 H1         1.4910    2.9858   18.3328 H         1 RES1    0.0000
      5 N1         1.1748    1.0976   18.4083 N.am      1 RES1    0.0000
      6 C1         1.2939   -0.9977   19.5794 C.3       1 RES1    0.0000
      7 H2         0.5355   -1.5501   19.8959 H         1 RES1    0.0000
      8 H3         2.2065   -1.0091   20.1468 H         1 RES1    0.0000
      9 C2         0.7672    0.3995   19.4694 C.2       1 RES1    0.0000
     10 C3         2.0791    0.6346   17.3544 C.3       1 RES1    0.0000
     11 H4         2.8897    1.2796   17.2521 H         1 RES1    0.0000
     12 C4         2.6219   -0.7855   17.6593 C.3       1 RES1    0.0000
     13 H5         3.4298   -0.7282   18.1591 H         1 RES1    0.0000
     14 C5         2.8795   -1.3993   16.2834 C.3       1 RES1    0.0000
     15 H6         3.8406   -1.2380   16.0557 H         1 RES1    0.0000
     16 H7         2.7604   -2.3824   16.3644 H         1 RES1    0.0000
     17 C6         1.9157   -0.6929   15.3861 C.ar      1 RES1    0.0000
     18 C7         1.4804   -1.0351   14.1143 C.ar      1 RES1    0.0000
     19 H8         1.7495   -1.8518   13.7110 H         1 RES1    0.0000
     20 C8         0.5415   -0.2310   13.4659 C.ar      1 RES1    0.0000
     21 H9         0.1939   -0.4994   12.6207 H         1 RES1    0.0000
     22 C9         0.0849    0.9280   14.0777 C.ar      1 RES1    0.0000
     23 H10       -0.6139    1.4045   13.5837 H         1 RES1    0.0000
     24 C10        0.5373    1.2952   15.3340 C.ar      1 RES1    0.0000
     25 H11        0.1800    2.0599   15.6987 H         1 RES1    0.0000
     26 C11        1.4333    0.4723   15.9881 C.ar      1 RES1    0.0000
@<TRIPOS>BOND
     1    1    6 1
     2    2    9 2
     3    3    4 1
     4    5    3 1
     5    6    7 1
     6    8    6 1
     7    9    5 1
     8   10    5 1
     9   11   10 1
    10   12    1 1
    11   13   12 1
    12   14   12 1
    13   15   14 1
    14   16   14 1
    15   17   14 1
    16   18   17 ar
    17   19   18 1
    18   20   18 ar
    19   21   20 1
    20   22   20 ar
    21   23   22 1
    22   24   22 ar
    23   25   24 1
    24   26   10 1
    25    6    9 1
    26   10   12 1
    27   17   26 ar
    28   24   26 ar
@<TRIPOS>SUBSTRUCTURE
     1 RES1 1

@<TRIPOS>CRYSIN
   4.6161   10.4035   19.2977  90.0000  90.0000  90.0000  19 1

