# MOL2 file generated by ConQuest
# Please check atom types

@<TRIPOS>MOLECULE
FALHUW
    41    43     1
SMALL
NO_CHARGES
****
Generated from CSD

@<TRIPOS>ATOM
      1 C1         1.6051    8.1704    2.5049 C.ar      1 RES1    0.0000
      2 C2         1.8175    8.4703    1.1778 C.ar      1 RES1    0.0000
      3 C3         2.0249    7.4591    0.2562 C.ar      1 RES1    0.0000
      4 C4         1.9666    6.1197    0.6860 C.ar      1 RES1    0.0000
      5 C5         1.7654    5.8443    2.0326 C.ar      1 RES1    0.0000
      6 C6         1.5876    6.8655    2.9688 C.ar      1 RES1    0.0000
      7 C7         1.3323    6.5370    4.4210 C.3       1 RES1    0.0000
      8 C8        -0.1392    6.7667    4.8047 C.3       1 RES1    0.0000
      9 C9        -0.4142    6.5842    6.2678 C.3       1 RES1    0.0000
     10 O1        -0.1311    7.7211    7.1339 O.3       1 RES1    0.0000
     11 C10        0.6811    6.5334    7.2501 C.3       1 RES1    0.0000
     12 C11        2.1125    6.6932    6.8178 C.3       1 RES1    0.0000
     13 C12        2.2030    7.3079    5.4227 C.3       1 RES1    0.0000
     14 N1         3.6411    7.2324    4.9677 N.pl3     1 RES1    0.0000
     15 O2         2.3043    7.6500   -1.0679 O.3       1 RES1    0.0000
     16 C13        2.3074    8.9915   -1.5421 C.3       1 RES1    0.0000
     17 O3         2.1733    5.0687   -0.1826 O.3       1 RES1    0.0000
     18 C14        1.2198    4.9322   -1.2264 C.3       1 RES1    0.0000
     19 O4         1.6638    4.5211    2.4534 O.3       1 RES1    0.0000
     20 C15        2.9217    3.8070    2.4539 C.3       1 RES1    0.0000
     21 O5         4.2360    8.2735    4.7313 O.2       1 RES1    0.0000
     22 O6         4.1343    6.1173    4.8373 O.2       1 RES1    0.0000
     23 H1         1.5290    8.8334    3.0963 H         1 RES1    0.0000
     24 H2         1.8511    9.3023    0.9592 H         1 RES1    0.0000
     25 H3         1.5301    5.6384    4.5630 H         1 RES1    0.0000
     26 H4        -0.4270    7.5985    4.5290 H         1 RES1    0.0000
     27 H5        -0.6888    6.1831    4.2376 H         1 RES1    0.0000
     28 H6        -1.2557    6.1275    6.5325 H         1 RES1    0.0000
     29 H7         0.5475    6.0930    8.0381 H         1 RES1    0.0000
     30 H8         2.5469    5.8034    6.8482 H         1 RES1    0.0000
     31 H9         2.5818    7.2346    7.4796 H         1 RES1    0.0000
     32 H10        2.0090    8.2561    5.4276 H         1 RES1    0.0000
     33 H11        2.9878    9.5666   -1.0321 H         1 RES1    0.0000
     34 H12        2.4840    8.9142   -2.4406 H         1 RES1    0.0000
     35 H13        1.4451    9.4547   -1.4206 H         1 RES1    0.0000
     36 H14        0.3244    5.0417   -0.9349 H         1 RES1    0.0000
     37 H15        1.2041    5.5361   -1.8213 H         1 RES1    0.0000
     38 H16        1.3452    4.0500   -1.6028 H         1 RES1    0.0000
     39 H17        2.7669    2.9772    2.7806 H         1 RES1    0.0000
     40 H18        3.2783    3.7116    1.4935 H         1 RES1    0.0000
     41 H19        3.5278    4.2732    3.0355 H         1 RES1    0.0000
@<TRIPOS>BOND
     1    1    2 ar
     2    2    3 ar
     3    3    4 ar
     4    4    5 ar
     5    5    6 ar
     6    6    1 ar
     7    7    6 1
     8    8    7 1
     9    9    8 1
    10   10    9 1
    11   11    9 1
    12   12   11 1
    13   13    7 1
    14   14   13 1
    15   15    3 1
    16   16   15 1
    17   17    4 1
    18   18   17 1
    19   19    5 1
    20   20   19 1
    21   21   14 2
    22   22   14 2
    23   23    1 1
    24   24    2 1
    25   25    7 1
    26   26    8 1
    27   27    8 1
    28   28    9 1
    29   29   11 1
    30   30   12 1
    31   31   12 1
    32   32   13 1
    33   33   16 1
    34   34   16 1
    35   35   16 1
    36   36   18 1
    37   37   18 1
    38   38   18 1
    39   39   20 1
    40   40   20 1
    41   41   20 1
    42   10   11 1
    43   12   13 1
@<TRIPOS>SUBSTRUCTURE
     1 RES1 1

@<TRIPOS>CRYSIN
   7.4881    8.2197   12.2295  83.1990  89.0580  88.9690   2 1

