# MOL2 file generated by ConQuest
# Please check atom types

@<TRIPOS>MOLECULE
FAMFEH
    54    58     1
SMALL
NO_CHARGES
****
Generated from CSD

@<TRIPOS>ATOM
      1 C1         6.3337    3.5774    3.2417 C.2       1 RES1    0.0000
      2 C2         4.3923    3.7574    4.2783 C.2       1 RES1    0.0000
      3 C3         3.0005    3.4493    4.6564 C.ar      1 RES1    0.0000
      4 C4         2.7720    2.2523    5.3312 C.ar      1 RES1    0.0000
      5 H1         3.4909    1.7138    5.5714 H         1 RES1    0.0000
      6 C5         1.4945    1.8614    5.6448 C.ar      1 RES1    0.0000
      7 H2         1.3487    1.0599    6.0950 H         1 RES1    0.0000
      8 C6         0.4339    2.6561    5.2937 C.ar      1 RES1    0.0000
      9 H3        -0.4319    2.3970    5.5115 H         1 RES1    0.0000
     10 C7         0.6478    3.8435    4.6142 C.ar      1 RES1    0.0000
     11 H4        -0.0817    4.3687    4.3764 H         1 RES1    0.0000
     12 C8         1.9283    4.2684    4.2785 C.ar      1 RES1    0.0000
     13 C9         2.1011    5.5053    3.4612 C.ar      1 RES1    0.0000
     14 C10        2.8410    6.5976    3.8836 C.ar      1 RES1    0.0000
     15 H5         3.2518    6.5779    4.7181 H         1 RES1    0.0000
     16 C11        2.9789    7.7198    3.0807 C.ar      1 RES1    0.0000
     17 H6         3.4690    8.4467    3.3912 H         1 RES1    0.0000
     18 C12        2.4018    7.7759    1.8321 C.ar      1 RES1    0.0000
     19 C13        1.6416    6.6925    1.4152 C.ar      1 RES1    0.0000
     20 H7         1.2306    6.7125    0.5815 H         1 RES1    0.0000
     21 C14        1.4876    5.5846    2.2248 C.ar      1 RES1    0.0000
     22 H8         0.9602    4.8766    1.9324 H         1 RES1    0.0000
     23 C15        2.5402    8.9530    0.8895 C.3       1 RES1    0.0000
     24 H9         2.7344    8.6186    0.0000 H         1 RES1    0.0000
     25 H10        1.6912    9.4206    0.8493 H         1 RES1    0.0000
     26 C16        0.3314   13.1499    1.5132 C.3       1 RES1    0.0000
     27 H11        0.1894   12.8753    0.6035 H         1 RES1    0.0000
     28 H12        0.1063   14.0789    1.6067 H         1 RES1    0.0000
     29 H13       -0.2227   12.6265    2.0963 H         1 RES1    0.0000
     30 C17        1.7549   12.9488    1.8731 C.3       1 RES1    0.0000
     31 H14        2.3231   13.5382    1.3529 H         1 RES1    0.0000
     32 H15        1.8958   13.1344    2.8157 H         1 RES1    0.0000
     33 C18        3.3220   11.1990    1.6261 C.2       1 RES1    0.0000
     34 C19        4.9536    9.7533    1.3749 C.ar      1 RES1    0.0000
     35 C20        5.4222   11.0058    1.8205 C.ar      1 RES1    0.0000
     36 C21        6.7625   11.2096    2.0763 C.ar      1 RES1    0.0000
     37 H16        7.0759   12.0428    2.3481 H         1 RES1    0.0000
     38 C22        7.6267   10.1436    1.9188 C.ar      1 RES1    0.0000
     39 H17        8.5334   10.2611    2.0923 H         1 RES1    0.0000
     40 C23        7.1677    8.9050    1.5084 C.ar      1 RES1    0.0000
     41 H18        7.7721    8.2023    1.4348 H         1 RES1    0.0000
     42 C24        5.8307    8.6777    1.2038 C.ar      1 RES1    0.0000
     43 C25        5.4253    7.3641    0.6605 C.2       1 RES1    0.0000
     44 H19        4.7804    2.3631    2.8677 H         1 RES1    0.0000
     45 H20        5.7265    5.5316    0.8033 H         1 RES1    0.0000
     46 N1         5.0851    3.0565    3.3341 N.am      1 RES1    0.0000
     47 N2         5.1127    4.6746    4.8245 N.2       1 RES1    0.0000
     48 N3         3.5791    9.9032    1.2678 N.pl3     1 RES1    0.0000
     49 N4         4.3627   11.9055    1.9564 N.2       1 RES1    0.0000
     50 O1         7.2640    3.2829    2.5427 O.2       1 RES1    0.0000
     51 O2         6.3835    4.5760    4.1626 O.3       1 RES1    0.0000
     52 O3         2.0551   11.5753    1.5817 O.3       1 RES1    0.0000
     53 O4         4.6047    7.2438   -0.2348 O.2       1 RES1    0.0000
     54 O5         6.0546    6.3471    1.1930 O.3       1 RES1    0.0000
@<TRIPOS>BOND
     1    1   46 1
     2    2    3 1
     3    3    4 ar
     4    4    5 1
     5    6    4 ar
     6    7    6 1
     7    8    6 ar
     8    9    8 1
     9   10    8 ar
    10   11   10 1
    11   12    3 ar
    12   13   12 1
    13   14   13 ar
    14   15   14 1
    15   16   14 ar
    16   17   16 1
    17   18   16 ar
    18   19   18 ar
    19   20   19 1
    20   21   13 ar
    21   22   21 1
    22   23   18 1
    23   24   23 1
    24   25   23 1
    25   26   27 1
    26   28   26 1
    27   29   26 1
    28   30   26 1
    29   31   30 1
    30   32   30 1
    31   33   48 1
    32   34   35 ar
    33   35   36 ar
    34   36   37 1
    35   38   36 ar
    36   39   38 1
    37   40   38 ar
    38   41   40 1
    39   42   34 ar
    40   43   42 1
    41   44   46 1
    42   45   54 1
    43   46    2 1
    44   47    2 2
    45   48   23 1
    46   49   33 2
    47   50    1 2
    48   51    1 1
    49   52   30 1
    50   53   43 2
    51   54   43 1
    52   10   12 ar
    53   19   21 ar
    54   33   52 1
    55   34   48 1
    56   35   49 1
    57   40   42 ar
    58   47   51 1
@<TRIPOS>SUBSTRUCTURE
     1 RES1 1

@<TRIPOS>CRYSIN
   9.6485   11.3120   19.9840  90.0000  90.3370  90.0000  14 1

