# MOL2 file generated by ConQuest
# Please check atom types

@<TRIPOS>MOLECULE
FAMVIY
    31    31     1
SMALL
NO_CHARGES
****
Generated from CSD

@<TRIPOS>ATOM
      1 O1         8.4045    0.8924    1.8311 O.3       1 RES1    0.0000
      2 O2         7.0844   -0.2322    3.3190 O.3       1 RES1    0.0000
      3 O3        10.7445    1.9922    5.2868 O.2       1 RES1    0.0000
      4 N1         8.2687    0.5809    3.2246 N.3       1 RES1    0.0000
      5 N2        10.4443    2.9611    3.2836 N.am      1 RES1    0.0000
      6 C1         7.4370    1.9206    1.5784 C.3       1 RES1    0.0000
      7 C2         6.0573    1.3568    1.8114 C.3       1 RES1    0.0000
      8 C3         6.0001    0.7061    3.1705 C.3       1 RES1    0.0000
      9 C4         9.4268   -0.3019    3.5432 C.3       1 RES1    0.0000
     10 C5         9.5435   -1.5183    2.6257 C.3       1 RES1    0.0000
     11 C6         9.2576   -0.7290    4.9927 C.3       1 RES1    0.0000
     12 C7        10.6802    0.5695    3.3524 C.3       1 RES1    0.0000
     13 C8        10.6230    1.9043    4.0693 C.2       1 RES1    0.0000
     14 C9        10.2536    4.3055    3.8235 C.3       1 RES1    0.0000
     15 H1         7.6467    2.7499    2.3130 H         1 RES1    0.0000
     16 H2         7.5014    2.1078    0.6186 H         1 RES1    0.0000
     17 H3         5.8476    0.6173    1.1221 H         1 RES1    0.0000
     18 H4         5.3067    2.0887    1.7829 H         1 RES1    0.0000
     19 H5         6.0931    1.4132    3.8962 H         1 RES1    0.0000
     20 H6         5.1876    0.1261    3.2610 H         1 RES1    0.0000
     21 H7        10.4276   -1.9874    2.8332 H         1 RES1    0.0000
     22 H8         8.8549   -2.1250    2.7486 H         1 RES1    0.0000
     23 H9         9.5650   -1.2173    1.6669 H         1 RES1    0.0000
     24 H10        8.4903   -1.3387    5.0675 H         1 RES1    0.0000
     25 H11       10.0797   -1.1571    5.2868 H         1 RES1    0.0000
     26 H12        9.1098    0.0850    5.6319 H         1 RES1    0.0000
     27 H13       11.4236    0.0631    3.7025 H         1 RES1    0.0000
     28 H14       10.8136    0.7424    2.3651 H         1 RES1    0.0000
     29 H15       10.4180    2.8350    2.3739 H         1 RES1    0.0000
     30 H16        9.6007    4.3131    4.5512 H         1 RES1    0.0000
     31 H17        9.9820    4.8998    3.1075 H         1 RES1    0.0000
@<TRIPOS>BOND
     1    1    4 1
     2    2    4 1
     3    3   13 2
     4    4    9 1
     5    5   13 1
     6    6    1 1
     7    7    6 1
     8    8    2 1
     9    9   10 1
    10   10   21 1
    11   11    9 1
    12   12    9 1
    13   13   12 1
    14   14    5 1
    15   15    6 1
    16   16    6 1
    17   17    7 1
    18   18    7 1
    19   19    8 1
    20   20    8 1
    21   22   10 1
    22   23   10 1
    23   24   11 1
    24   25   11 1
    25   26   11 1
    26   27   12 1
    27   28   12 1
    28   29    5 1
    29   30   14 1
    30   31   14 1
    31    7    8 1
@<TRIPOS>SUBSTRUCTURE
     1 RES1 1

@<TRIPOS>CRYSIN
  23.8290    9.5550    9.8340  90.0000  90.0000  90.0000  61 1

