# MOL2 file generated by ConQuest
# Please check atom types

@<TRIPOS>MOLECULE
FANJIO
    45    43     2
SMALL
NO_CHARGES
****
Generated from CSD

@<TRIPOS>ATOM
      1 O1         4.9298    3.3670    4.1354 O.2       1 RES1    0.0000
      2 O2        10.3931    4.9732    3.5835 O.2       1 RES1    0.0000
      3 N1         7.9999    2.9313    3.8244 N.ar      1 RES1    0.0000
      4 N2         5.9886    2.1796    1.0801 N.2       1 RES1    0.0000
      5 N3         5.0670    3.0809    2.9136 N.3       1 RES1    0.0000
      6 N4        10.1609    3.2592    6.5618 N.2       1 RES1    0.0000
      7 N5        10.4137    4.6094    4.7844 N.3       1 RES1    0.0000
      8 C1         7.3229    1.9917    3.1284 C.ar      1 RES1    0.0000
      9 C2         7.6490    0.6487    3.1377 C.ar      1 RES1    0.0000
     10 C3         8.7109    0.2011    3.8848 C.ar      1 RES1    0.0000
     11 C4         9.4344    1.1730    4.6101 C.ar      1 RES1    0.0000
     12 C5         9.0474    2.4992    4.5291 C.ar      1 RES1    0.0000
     13 C6         6.1382    2.4369    2.3284 C.2       1 RES1    0.0000
     14 C7         4.6202    2.6225    0.6786 C.3       1 RES1    0.0000
     15 C8         4.0918    3.4124    1.8646 C.3       1 RES1    0.0000
     16 C9         3.7863    1.1957    0.7408 C.3       1 RES1    0.0000
     17 C10        4.5810    3.0689   -0.6630 C.3       1 RES1    0.0000
     18 C11        2.7100    3.3729    2.3408 C.3       1 RES1    0.0000
     19 C12        4.4406    4.9840    1.5689 C.3       1 RES1    0.0000
     20 C13        9.8379    3.4687    5.3416 C.2       1 RES1    0.0000
     21 C14       11.2114    4.2635    6.9478 C.3       1 RES1    0.0000
     22 C15       11.0236    5.4005    5.8894 C.3       1 RES1    0.0000
     23 C16       12.5128    3.5106    6.8139 C.3       1 RES1    0.0000
     24 C17       11.0215    4.6668    8.3952 C.3       1 RES1    0.0000
     25 C18       12.3332    6.0445    5.4474 C.3       1 RES1    0.0000
     26 C19        9.9989    6.4634    6.2972 C.3       1 RES1    0.0000
     27 C20        4.0454    1.7475   -0.3051 Du        2 SUP2    0.0000
     28 C21        4.8606    3.8541   -0.4576 Du        2 SUP2    0.0000
     29 C22        2.8276    2.0827    2.4218 Du        2 SUP2    0.0000
     30 C23        3.0340    4.2850    2.0046 Du        2 SUP2    0.0000
     31 H1         7.1506    0.0359    2.6085 H         1 RES1    0.0000
     32 H2         8.9297   -0.7217    3.9346 H         1 RES1    0.0000
     33 H3        10.1856    0.9168    5.1330 H         1 RES1    0.0000
     34 H4        10.3549    6.9913    7.0007 H         1 RES1    0.0000
     35 H5         9.8090    7.0200    5.5501 H         1 RES1    0.0000
     36 H6         9.1991    6.0421    6.5898 H         1 RES1    0.0000
     37 H7        11.6799    5.3120    8.6225 H         1 RES1    0.0000
     38 H8        10.1567    5.0427    8.5073 H         1 RES1    0.0000
     39 H9        11.1134    3.9080    8.9586 H         1 RES1    0.0000
     40 H10       12.5014    2.7613    7.3991 H         1 RES1    0.0000
     41 H11       12.6273    3.2126    5.9205 H         1 RES1    0.0000
     42 H12       13.2310    4.0851    7.0505 H         1 RES1    0.0000
     43 H13       12.9400    5.3670    5.1704 H         1 RES1    0.0000
     44 H14       12.1536    6.6250    4.7159 H         1 RES1    0.0000
     45 H15       12.7181    6.5424    6.1571 H         1 RES1    0.0000
@<TRIPOS>BOND
     1    1    5 1
     2    2    7 1
     3    3    8 ar
     4    4   13 2
     5    5   13 1
     6    6   20 2
     7    7   20 1
     8    8    9 ar
     9    9   10 ar
    10   10   11 ar
    11   11   12 ar
    12   12    3 ar
    13   13    8 1
    14   14    4 1
    15   15    5 1
    16   16   14 1
    17   17   14 1
    18   18   15 1
    19   19   15 1
    20   20   12 1
    21   21    6 1
    22   22    7 1
    23   23   21 1
    24   24   21 1
    25   25   22 1
    26   26   22 1
    27   31    9 1
    28   32   10 1
    29   33   11 1
    30   34   26 1
    31   35   26 1
    32   36   26 1
    33   37   24 1
    34   38   24 1
    35   39   24 1
    36   40   23 1
    37   41   23 1
    38   42   23 1
    39   43   25 1
    40   44   25 1
    41   45   25 1
    42   14   15 1
    43   21   22 1
@<TRIPOS>SUBSTRUCTURE
     1 RES1 1
     2 SUP2 27

@<TRIPOS>CRYSIN
  10.3198   11.9693   31.1280  90.0000  90.0000  90.0000  61 1

