# MOL2 file generated by ConQuest
# Please check atom types

@<TRIPOS>MOLECULE
FANTIX
   156   156     4
SMALL
NO_CHARGES
****
Generated from CSD

@<TRIPOS>ATOM
      1 C1        16.5002    3.2119   10.2963 C.ar      1 RES1    0.0000
      2 C2        15.9968    4.3651   10.9459 C.ar      1 RES1    0.0000
      3 C3        14.8536    5.0756   10.6290 C.ar      1 RES1    0.0000
      4 C4        14.0925    4.6040    9.5642 C.ar      1 RES1    0.0000
      5 C5        14.4766    3.4658    8.8575 C.ar      1 RES1    0.0000
      6 C6        15.6457    2.8524    9.2378 C.ar      1 RES1    0.0000
      7 C7        17.7619    2.4513   10.7336 C.3       1 RES1    0.0000
      8 C8        17.3338    1.4399   11.8174 C.3       1 RES1    0.0000
      9 C9        18.8898    3.3772   11.2438 C.3       1 RES1    0.0000
     10 C10       18.4102    1.6506    9.5864 C.3       1 RES1    0.0000
     11 C11       13.6201    2.9252    7.7198 C.3       1 RES1    0.0000
     12 C12       14.3516    6.2523   11.4181 C.3       1 RES1    0.0000
     13 C13       12.7897    5.2934    9.2188 C.2       1 RES1    0.0000
     14 C14       12.8112    6.3393    8.1698 C.3       1 RES1    0.0000
     15 N1        15.9178    1.6154    8.4550 N.pl3     1 RES1    0.0000
     16 N2        16.6794    4.8955   12.1470 N.pl3     1 RES1    0.0000
     17 O1        15.5560    0.5593    8.9336 O.2       1 RES1    0.0000
     18 O2        16.4203    1.7407    7.3617 O.2       1 RES1    0.0000
     19 O3        16.4381    4.3479   13.1991 O.2       1 RES1    0.0000
     20 O4        17.3875    5.8818   12.0044 O.2       1 RES1    0.0000
     21 O5        11.7974    5.0036    9.8241 O.2       1 RES1    0.0000
     22 C15       23.2554   -0.6800   13.4336 C.ar      2 RES2    0.0000
     23 C16       23.7767    0.4129   12.7396 C.ar      2 RES2    0.0000
     24 C17       24.9159    1.1312   13.0502 C.ar      2 RES2    0.0000
     25 C18       25.6550    0.7152   14.1530 C.ar      2 RES2    0.0000
     26 C19       25.2392   -0.4082   14.8787 C.ar      2 RES2    0.0000
     27 C20       24.0709   -1.0505   14.4921 C.ar      2 RES2    0.0000
     28 C21       21.9514   -1.4281   13.0407 C.3       2 RES2    0.0000
     29 C22       22.3023   -2.5108   12.0266 C.3       2 RES2    0.0000
     30 C23       20.9001   -0.4826   12.3910 C.3       2 RES2    0.0000
     31 C24       21.2177   -2.0439   14.2259 C.3       2 RES2    0.0000
     32 C25       26.1074   -0.9080   16.0196 C.3       2 RES2    0.0000
     33 C26       25.4001    2.2914   12.1914 C.3       2 RES2    0.0000
     34 C27       26.9225    1.4477   14.5270 C.2       2 RES2    0.0000
     35 C28       26.8570    2.4199   15.6520 C.3       2 RES2    0.0000
     36 N3        23.7983   -2.2460   15.3351 N.pl3     2 RES2    0.0000
     37 N4        23.1264    0.9009   11.4973 N.pl3     2 RES2    0.0000
     38 O6        23.3178   -2.0533   16.4094 O.2       2 RES2    0.0000
     39 O7        24.1065   -3.3177   14.8565 O.2       2 RES2    0.0000
     40 O8        22.4525    1.9217   11.5449 O.2       2 RES2    0.0000
     41 O9        23.3550    0.2781   10.4674 O.2       2 RES2    0.0000
     42 O10       27.9311    1.2558   13.9090 O.2       2 RES2    0.0000
     43 C29       28.5976   -3.3694   10.9681 C.ar      3 RES3    0.0000
     44 C30       29.0954   -4.4732   10.2677 C.ar      3 RES3    0.0000
     45 C31       28.4610   -5.1383    9.2410 C.ar      3 RES3    0.0000
     46 C32       27.2273   -4.6745    8.8322 C.ar      3 RES3    0.0000
     47 C33       26.6615   -3.5613    9.3994 C.ar      3 RES3    0.0000
     48 C34       27.3812   -2.9495   10.4452 C.ar      3 RES3    0.0000
     49 C35       29.3163   -2.6581   12.1343 C.3       3 RES3    0.0000
     50 C36       29.6694   -1.2589   11.8174 C.3       3 RES3    0.0000
     51 C37       28.4994   -2.6925   13.3227 C.3       3 RES3    0.0000
     52 C38       30.6060   -3.2723   12.5812 C.3       3 RES3    0.0000
     53 C39       25.3349   -3.0161    8.9367 C.3       3 RES3    0.0000
     54 C40       29.0948   -6.3448    8.5438 C.3       3 RES3    0.0000
     55 C41       26.5309   -5.3232    7.6628 C.2       3 RES3    0.0000
     56 C42       25.6260   -6.4858    7.9512 C.3       3 RES3    0.0000
     57 N5        26.6574   -1.7705   11.0093 N.pl3     3 RES3    0.0000
     58 N6        30.4263   -5.0482   10.5656 N.pl3     3 RES3    0.0000
     59 O11       26.8876   -0.7035   10.5118 O.2       3 RES3    0.0000
     60 O12       25.8526   -1.9718   11.8966 O.2       3 RES3    0.0000
     61 O13       30.5068   -5.9593   11.3357 O.2       3 RES3    0.0000
     62 O14       31.3399   -4.5852    9.9287 O.2       3 RES3    0.0000
     63 O15       26.7085   -4.9049    6.5568 O.2       3 RES3    0.0000
     64 C43       32.3536    0.6643   17.0876 C.ar      4 RES4    0.0000
     65 C44       33.4116    1.0576   17.8735 C.ar      4 RES4    0.0000
     66 C45       33.8408    0.4254   19.0365 C.ar      4 RES4    0.0000
     67 C46       33.1415   -0.6863   19.4675 C.ar      4 RES4    0.0000
     68 C47       32.0525   -1.1602   18.7513 C.ar      4 RES4    0.0000
     69 C48       31.7009   -0.4794   17.6104 C.ar      4 RES4    0.0000
     70 C49       31.8995    1.4328   15.7977 C.3       4 RES4    0.0000
     71 C50       31.2155    0.5045   14.7773 C.3       4 RES4    0.0000
     72 C51       30.9001    2.5053   16.2129 C.3       4 RES4    0.0000
     73 C52       33.0712    2.0415   15.0118 C.3       4 RES4    0.0000
     74 C53       31.2593   -2.3330   19.2869 C.3       4 RES4    0.0000
     75 C54       35.0198    0.9683   19.8478 C.3       4 RES4    0.0000
     76 C55       33.5681   -1.3905   20.7446 C.2       4 RES4    0.0000
     77 C56       34.6603   -2.4090   20.6464 C.3       4 RES4    0.0000
     78 N7        30.4379   -0.9730   17.0147 N.pl3     4 RES4    0.0000
     79 N8        34.2207    2.2852   17.5724 N.pl3     4 RES4    0.0000
     80 O16       30.4975   -1.9875   16.3301 O.2       4 RES4    0.0000
     81 O17       29.4091   -0.3619   17.2809 O.2       4 RES4    0.0000
     82 O18       33.6971    3.3498   17.9083 O.2       4 RES4    0.0000
     83 O19       35.2978    2.1473   17.0654 O.2       4 RES4    0.0000
     84 O20       33.0247   -1.1187   21.7778 O.2       4 RES4    0.0000
     85 H1        16.4113    0.8147   11.3769 H         1 RES1    0.0000
     86 H2        18.1406    1.1359   11.9473 H         1 RES1    0.0000
     87 H3        16.9415    1.9193   12.5495 H         1 RES1    0.0000
     88 H4        18.6476    3.5410   12.3593 H         1 RES1    0.0000
     89 H5        19.6200    2.7811   11.2501 H         1 RES1    0.0000
     90 H6        19.0769    3.9405   10.5530 H         1 RES1    0.0000
     91 H7        18.4870    2.1308    8.5248 H         1 RES1    0.0000
     92 H8        19.2607    1.3553    9.8875 H         1 RES1    0.0000
     93 H9        17.8197    0.8382    9.3487 H         1 RES1    0.0000
     94 H10       14.0178    3.0004    6.9085 H         1 RES1    0.0000
     95 H11       13.3460    1.9350    7.9543 H         1 RES1    0.0000
     96 H12       12.6722    3.4000    7.7008 H         1 RES1    0.0000
     97 H13       14.5395    7.0349   10.9649 H         1 RES1    0.0000
     98 H14       13.5187    5.9695   11.8840 H         1 RES1    0.0000
     99 H15       14.8014    6.4160   12.3276 H         1 RES1    0.0000
    100 H16       13.1194    6.0478    7.4473 H         1 RES1    0.0000
    101 H17       11.9734    6.8469    7.8276 H         1 RES1    0.0000
    102 H18       13.5607    6.9018    8.3663 H         1 RES1    0.0000
    103 H19       22.9809   -3.1258   12.5812 H         2 RES2    0.0000
    104 H20       21.4633   -2.9456   11.6938 H         2 RES2    0.0000
    105 H21       22.6826   -2.1230   11.1234 H         2 RES2    0.0000
    106 H22       21.3623   -0.1567   11.3452 H         2 RES2    0.0000
    107 H23       20.0813   -0.9714   12.3910 H         2 RES2    0.0000
    108 H24       20.7501    0.2742   13.2467 H         2 RES2    0.0000
    109 H25       20.8532   -1.2613   14.8946 H         2 RES2    0.0000
    110 H26       20.3916   -2.3580   13.9438 H         2 RES2    0.0000
    111 H27       21.9014   -2.8751   14.7044 H         2 RES2    0.0000
    112 H28       25.6753   -0.7834   16.7960 H         2 RES2    0.0000
    113 H29       26.4725   -1.5041   16.0988 H         2 RES2    0.0000
    114 H30       26.8506   -0.3839   15.8136 H         2 RES2    0.0000
    115 H31       25.5881    3.0709   12.7713 H         2 RES2    0.0000
    116 H32       26.3324    2.2562   12.1058 H         2 RES2    0.0000
    117 H33       25.2452    2.1544   11.2818 H         2 RES2    0.0000
    118 H34       26.6953    1.9507   16.4474 H         2 RES2    0.0000
    119 H35       27.6630    2.8829   15.7502 H         2 RES2    0.0000
    120 H36       26.2461    3.1728   15.4016 H         2 RES2    0.0000
    121 H37       28.9043   -0.8069   11.4403 H         3 RES3    0.0000
    122 H38       30.1410   -0.7834   12.8030 H         3 RES3    0.0000
    123 H39       30.2367   -1.1594   11.3135 H         3 RES3    0.0000
    124 H40       28.0159   -3.3608   13.4051 H         3 RES3    0.0000
    125 H41       28.8107   -2.1779   14.2291 H         3 RES3    0.0000
    126 H42       27.6304   -2.4520   13.1833 H         3 RES3    0.0000
    127 H43       31.1249   -3.2198   12.1692 H         3 RES3    0.0000
    128 H44       31.0130   -2.7967   13.5953 H         3 RES3    0.0000
    129 H45       30.3562   -4.2460   12.8347 H         3 RES3    0.0000
    130 H46       24.6547   -2.8986    9.6339 H         3 RES3    0.0000
    131 H47       25.3993   -2.2092    8.7783 H         3 RES3    0.0000
    132 H48       25.0957   -3.3765    8.1128 H         3 RES3    0.0000
    133 H49       28.6078   -7.1211    8.8417 H         3 RES3    0.0000
    134 H50       29.0359   -6.2907    7.7959 H         3 RES3    0.0000
    135 H51       29.7857   -6.5179    8.7783 H         3 RES3    0.0000
    136 H52       24.7096   -6.2045    8.2712 H         3 RES3    0.0000
    137 H53       25.2757   -6.8234    7.2888 H         3 RES3    0.0000
    138 H54       25.9522   -7.1916    8.4614 H         3 RES3    0.0000
    139 H55       30.2309    0.1175   15.1164 H         4 RES4    0.0000
    140 H56       31.0368    1.0106   13.9755 H         4 RES4    0.0000
    141 H57       31.6328   -0.1958   14.6410 H         4 RES4    0.0000
    142 H58       31.4793    3.1179   16.7643 H         4 RES4    0.0000
    143 H59       30.4578    3.0161   15.4333 H         4 RES4    0.0000
    144 H60       30.0579    2.2249   16.6375 H         4 RES4    0.0000
    145 H61       33.9068    1.3318   14.9579 H         4 RES4    0.0000
    146 H62       32.7097    2.2405   14.2291 H         4 RES4    0.0000
    147 H63       33.4467    2.8672   15.6868 H         4 RES4    0.0000
    148 H64       30.3988   -2.0682   19.4580 H         4 RES4    0.0000
    149 H65       31.3583   -2.9377   18.8242 H         4 RES4    0.0000
    150 H66       31.4658   -2.6009   20.2503 H         4 RES4    0.0000
    151 H67       34.8686    0.8226   20.6939 H         4 RES4    0.0000
    152 H68       35.8493    0.5797   19.5214 H         4 RES4    0.0000
    153 H69       35.3046    1.9977   19.7749 H         4 RES4    0.0000
    154 H70       35.6649   -1.9977   20.5672 H         4 RES4    0.0000
    155 H71       34.6969   -2.7027   21.4545 H         4 RES4    0.0000
    156 H72       34.4312   -3.2668   19.9334 H         4 RES4    0.0000
@<TRIPOS>BOND
     1    1    2 ar
     2    2    3 ar
     3    3    4 ar
     4    4    5 ar
     5    5    6 ar
     6    6    1 ar
     7    7    1 1
     8    8    7 1
     9    9    7 1
    10   10    7 1
    11   11    5 1
    12   12    3 1
    13   13    4 1
    14   14   13 1
    15   15    6 1
    16   16    2 1
    17   17   15 2
    18   18   15 2
    19   19   16 2
    20   20   16 2
    21   21   13 2
    22   22   23 ar
    23   23   24 ar
    24   24   25 ar
    25   25   26 ar
    26   26   27 ar
    27   27   22 ar
    28   28   22 1
    29   29   28 1
    30   30   28 1
    31   31   28 1
    32   32   26 1
    33   33   24 1
    34   34   25 1
    35   35   34 1
    36   36   27 1
    37   37   23 1
    38   38   36 2
    39   39   36 2
    40   40   37 2
    41   41   37 2
    42   42   34 2
    43   43   44 ar
    44   44   45 ar
    45   45   46 ar
    46   46   47 ar
    47   47   48 ar
    48   48   43 ar
    49   49   43 1
    50   50   49 1
    51   51   49 1
    52   52   49 1
    53   53   47 1
    54   54   45 1
    55   55   46 1
    56   56   55 1
    57   57   48 1
    58   58   44 1
    59   59   57 2
    60   60   57 2
    61   61   58 2
    62   62   58 2
    63   63   55 2
    64   64   65 ar
    65   65   66 ar
    66   66   67 ar
    67   67   68 ar
    68   68   69 ar
    69   69   64 ar
    70   70   64 1
    71   71   70 1
    72   72   70 1
    73   73   70 1
    74   74   68 1
    75   75   66 1
    76   76   67 1
    77   77   76 1
    78   78   69 1
    79   79   65 1
    80   80   78 2
    81   81   78 2
    82   82   79 2
    83   83   79 2
    84   84   76 2
    85   85    8 1
    86   86    8 1
    87   87    8 1
    88   88    9 1
    89   89    9 1
    90   90    9 1
    91   91   10 1
    92   92   10 1
    93   93   10 1
    94   94   11 1
    95   95   11 1
    96   96   11 1
    97   97   12 1
    98   98   12 1
    99   99   12 1
   100  100   14 1
   101  101   14 1
   102  102   14 1
   103  103   29 1
   104  104   29 1
   105  105   29 1
   106  106   30 1
   107  107   30 1
   108  108   30 1
   109  109   31 1
   110  110   31 1
   111  111   31 1
   112  112   32 1
   113  113   32 1
   114  114   32 1
   115  115   33 1
   116  116   33 1
   117  117   33 1
   118  118   35 1
   119  119   35 1
   120  120   35 1
   121  121   50 1
   122  122   50 1
   123  123   50 1
   124  124   51 1
   125  125   51 1
   126  126   51 1
   127  127   52 1
   128  128   52 1
   129  129   52 1
   130  130   53 1
   131  131   53 1
   132  132   53 1
   133  133   54 1
   134  134   54 1
   135  135   54 1
   136  136   56 1
   137  137   56 1
   138  138   56 1
   139  139   71 1
   140  140   71 1
   141  141   71 1
   142  142   72 1
   143  143   72 1
   144  144   72 1
   145  145   73 1
   146  146   73 1
   147  147   73 1
   148  148   74 1
   149  149   74 1
   150  150   74 1
   151  151   75 1
   152  152   75 1
   153  153   75 1
   154  154   77 1
   155  155   77 1
   156  156   77 1
@<TRIPOS>SUBSTRUCTURE
     1 RES1 1
     2 RES2 22
     3 RES3 43
     4 RES4 64

@<TRIPOS>CRYSIN
  24.3690    7.8340   31.9560  90.0000  97.3900  90.0000 231 1

