# MOL2 file generated by ConQuest
# Please check atom types

@<TRIPOS>MOLECULE
FANTIX01
    84    84     4
SMALL
NO_CHARGES
****
Generated from CSD

@<TRIPOS>ATOM
      1 C1         4.2512    0.5472   10.9690 C.ar      1 RES1    0.0000
      2 C2         4.7339   -0.5644   10.2904 C.ar      1 RES1    0.0000
      3 C3         4.1041   -1.2378    9.2376 C.ar      1 RES1    0.0000
      4 C4         2.8716   -0.7439    8.8285 C.ar      1 RES1    0.0000
      5 C5         2.3056    0.3684    9.4152 C.ar      1 RES1    0.0000
      6 C6         3.0115    0.9618   10.4648 C.ar      1 RES1    0.0000
      7 C7         4.9642    1.2644   12.1519 C.3       1 RES1    0.0000
      8 C8         5.3800    2.6543   11.7269 C.3       1 RES1    0.0000
      9 C9         4.0447    1.3209   13.3601 C.3       1 RES1    0.0000
     10 C10        6.2787    0.6608   12.5863 C.3       1 RES1    0.0000
     11 C11        4.7222   -2.4246    8.5494 C.3       1 RES1    0.0000
     12 C12        2.1639   -1.4110    7.6615 C.2       1 RES1    0.0000
     13 C13        1.2722   -2.5532    7.9374 C.3       1 RES1    0.0000
     14 C14        0.9785    0.9109    8.9268 C.3       1 RES1    0.0000
     15 N1         6.0710   -1.1296   10.5695 N.pl3     1 RES1    0.0000
     16 N2         2.3061    2.1416   11.0166 N.pl3     1 RES1    0.0000
     17 O1         2.3572   -0.9963    6.5611 O.2       1 RES1    0.0000
     18 O2         6.9963   -0.6522    9.9384 O.2       1 RES1    0.0000
     19 O3         6.1682   -2.0515   11.3274 O.2       1 RES1    0.0000
     20 O4         1.4825    1.9331   11.8982 O.2       1 RES1    0.0000
     21 O5         2.5265    3.2210   10.5187 O.2       1 RES1    0.0000
     22 C15       -1.1071    3.2383   13.4425 C.ar      2 RES2    0.0000
     23 C16       -0.5930    4.3295   12.7480 C.ar      2 RES2    0.0000
     24 C17        0.5558    5.0522   13.0493 C.ar      2 RES2    0.0000
     25 C18        1.2957    4.6328   14.1560 C.ar      2 RES2    0.0000
     26 C19        0.9064    3.5142   14.8854 C.ar      2 RES2    0.0000
     27 C20       -0.2797    2.8785   14.5144 C.ar      2 RES2    0.0000
     28 C21       -2.4087    2.4857   13.0398 C.3       2 RES2    0.0000
     29 C22       -2.0463    1.4102   12.0282 C.3       2 RES2    0.0000
     30 C23       -3.1346    1.8704   14.2607 C.3       2 RES2    0.0000
     31 C24       -3.4686    3.4343   12.4087 C.3       2 RES2    0.0000
     32 C25        1.0521    6.1983   12.2089 C.3       2 RES2    0.0000
     33 C26        2.5648    5.3736   14.5271 C.2       2 RES2    0.0000
     34 C27        2.4763    6.3621   15.6275 C.3       2 RES2    0.0000
     35 C28        1.7532    2.9796   16.0334 C.3       2 RES2    0.0000
     36 N3        -1.2434    4.8100   11.4954 N.pl3     2 RES2    0.0000
     37 N4        -0.5716    1.6979   15.3389 N.pl3     2 RES2    0.0000
     38 O6         3.5820    5.1761   13.9214 O.2       2 RES2    0.0000
     39 O7        -1.0148    4.1774   10.4807 O.2       2 RES2    0.0000
     40 O8        -1.9036    5.8322   11.5462 O.2       2 RES2    0.0000
     41 O9        -1.0430    1.8774   16.4393 O.2       2 RES2    0.0000
     42 O10       -0.2626    0.6060   14.8727 O.2       2 RES2    0.0000
     43 C29       16.5150    7.1484   10.2999 C.ar      3 RES3    0.0000
     44 C30       16.0197    8.2882   10.9437 C.ar      3 RES3    0.0000
     45 C31       14.8640    8.9921   10.6392 C.ar      3 RES3    0.0000
     46 C32       14.1053    8.5226    9.5642 C.ar      3 RES3    0.0000
     47 C33       14.4901    7.3898    8.8507 C.ar      3 RES3    0.0000
     48 C34       15.6698    6.7611    9.2534 C.ar      3 RES3    0.0000
     49 C35       17.7881    6.3692   10.7534 C.3       3 RES3    0.0000
     50 C36       17.3696    5.3791   11.8411 C.3       3 RES3    0.0000
     51 C37       18.4530    5.5876    9.5896 C.3       3 RES3    0.0000
     52 C38       18.8989    7.2903   11.2544 C.3       3 RES3    0.0000
     53 C39       14.3856   10.1735   11.4352 C.3       3 RES3    0.0000
     54 C40       12.8077    9.2147    9.2249 C.2       3 RES3    0.0000
     55 C41       12.8202   10.2628    8.1657 C.3       3 RES3    0.0000
     56 C42       13.6303    6.8552    7.7281 C.3       3 RES3    0.0000
     57 N5        16.7002    8.8212   12.1519 N.pl3     3 RES3    0.0000
     58 N6        15.9482    5.5390    8.4575 N.pl3     3 RES3    0.0000
     59 O11       11.8052    8.9169    9.8306 O.2       3 RES3    0.0000
     60 O12       16.4540    8.2639   13.2079 O.2       3 RES3    0.0000
     61 O13       17.4047    9.7988   12.0218 O.2       3 RES3    0.0000
     62 O14       16.4399    5.6723    7.3507 O.2       3 RES3    0.0000
     63 O15       15.5680    4.4831    8.9268 O.2       3 RES3    0.0000
     64 C43       22.2411   -0.6679    1.2399 C.ar      4 RES4    0.0000
     65 C44       23.3180   -1.0512    2.0232 C.ar      4 RES4    0.0000
     66 C45       23.7485   -0.4288    3.2029 C.ar      4 RES4    0.0000
     67 C46       23.0465    0.6836    3.6151 C.ar      4 RES4    0.0000
     68 C47       21.9383    1.1500    2.9238 C.ar      4 RES4    0.0000
     69 C48       21.5862    0.4500    1.7600 C.ar      4 RES4    0.0000
     70 C49       21.7957   -1.4165   -0.0507 C.3       4 RES4    0.0000
     71 C50       20.7953   -2.5077    0.3679 C.3       4 RES4    0.0000
     72 C51       21.0862   -0.4923   -1.0719 C.3       4 RES4    0.0000
     73 C52       22.9606   -2.0303   -0.8182 C.3       4 RES4    0.0000
     74 C53       24.9078   -0.9713    4.0083 C.3       4 RES4    0.0000
     75 C54       23.4675    1.3844    4.9058 C.2       4 RES4    0.0000
     76 C55       24.5452    2.3940    4.8138 C.3       4 RES4    0.0000
     77 C56       21.1512    2.3258    3.4280 C.3       4 RES4    0.0000
     78 N7        24.0885   -2.2804    1.7410 N.pl3     4 RES4    0.0000
     79 N8        20.3287    0.9673    1.1670 N.pl3     4 RES4    0.0000
     80 O16       22.9105    1.1194    5.9332 O.2       4 RES4    0.0000
     81 O17       23.5838   -3.3496    2.0613 O.2       4 RES4    0.0000
     82 O18       25.1926   -2.1549    1.2368 O.2       4 RES4    0.0000
     83 O19       20.3810    1.9793    0.4979 O.2       4 RES4    0.0000
     84 O20       19.3110    0.3520    1.4365 O.2       4 RES4    0.0000
@<TRIPOS>BOND
     1    1    2 ar
     2    2    3 ar
     3    3    4 ar
     4    4    5 ar
     5    5    6 ar
     6    6    1 ar
     7    7    1 1
     8    8    7 1
     9    9    7 1
    10   10    7 1
    11   11    3 1
    12   12    4 1
    13   13   12 1
    14   14    5 1
    15   15    2 1
    16   16    6 1
    17   17   12 2
    18   18   15 2
    19   19   15 2
    20   20   16 2
    21   21   16 2
    22   22   23 ar
    23   23   24 ar
    24   24   25 ar
    25   25   26 ar
    26   26   27 ar
    27   27   22 ar
    28   28   22 1
    29   29   28 1
    30   30   28 1
    31   31   28 1
    32   32   24 1
    33   33   25 1
    34   34   33 1
    35   35   26 1
    36   36   23 1
    37   37   27 1
    38   38   33 2
    39   39   36 2
    40   40   36 2
    41   41   37 2
    42   42   37 2
    43   43   44 ar
    44   44   45 ar
    45   45   46 ar
    46   46   47 ar
    47   47   48 ar
    48   48   43 ar
    49   49   43 1
    50   50   49 1
    51   51   49 1
    52   52   49 1
    53   53   45 1
    54   54   46 1
    55   55   54 1
    56   56   47 1
    57   57   44 1
    58   58   48 1
    59   59   54 2
    60   60   57 2
    61   61   57 2
    62   62   58 2
    63   63   58 2
    64   64   65 ar
    65   65   66 ar
    66   66   67 ar
    67   67   68 ar
    68   68   69 ar
    69   69   64 ar
    70   70   64 1
    71   71   70 1
    72   72   70 1
    73   73   70 1
    74   74   66 1
    75   75   67 1
    76   76   75 1
    77   77   68 1
    78   78   65 1
    79   79   69 1
    80   80   75 2
    81   81   78 2
    82   82   78 2
    83   83   79 2
    84   84   79 2
@<TRIPOS>SUBSTRUCTURE
     1 RES1 1
     2 RES2 22
     3 RES3 43
     4 RES4 64

@<TRIPOS>CRYSIN
  24.3890    7.8390   31.9750  90.0000  97.3600  90.0000 231 1

