# MOL2 file generated by ConQuest
# Please check atom types

@<TRIPOS>MOLECULE
FAQJAI
    33    35     1
SMALL
NO_CHARGES
****
Generated from CSD

@<TRIPOS>ATOM
      1 N1         1.0134    0.3478    5.0549 N.pl3     1 RES1    0.0000
      2 N2         1.5067   -0.8941    5.2876 N.2       1 RES1    0.0000
      3 C1         1.9087   -1.0329    6.5173 C.2       1 RES1    0.0000
      4 N3         1.7212   -0.3045    7.6174 N.2       1 RES1    0.0000
      5 N4         1.1973    0.9120    7.3166 N.pl3     1 RES1    0.0000
      6 C2         1.4315    1.4090    5.9815 C.3       1 RES1    0.0000
      7 N5         2.5874   -2.3135    6.7830 N.pl3     1 RES1    0.0000
      8 O1         2.6033   -3.1374    5.8805 O.2       1 RES1    0.0000
      9 O2         3.0964   -2.4837    7.8743 O.2       1 RES1    0.0000
     10 C3         0.4182    0.6179    3.7901 C.ar      1 RES1    0.0000
     11 C4         0.4468    1.8986    3.2806 C.ar      1 RES1    0.0000
     12 C5        -0.1184    2.1493    2.0400 C.ar      1 RES1    0.0000
     13 C6        -0.6691    1.1120    1.3219 C.ar      1 RES1    0.0000
     14 C7        -0.6632   -0.1642    1.8511 C.ar      1 RES1    0.0000
     15 C8        -0.1134   -0.4373    3.0830 C.ar      1 RES1    0.0000
     16 C9         0.6268    1.6971    8.3552 C.ar      1 RES1    0.0000
     17 C10        0.3511    1.1000    9.5586 C.ar      1 RES1    0.0000
     18 C11       -0.2017    1.8269   10.5753 C.ar      1 RES1    0.0000
     19 C12       -0.5296    3.1434   10.3732 C.ar      1 RES1    0.0000
     20 C13       -0.2853    3.7479    9.1633 C.ar      1 RES1    0.0000
     21 C14        0.3075    3.0240    8.1466 C.ar      1 RES1    0.0000
     22 H1         0.9167    2.1956    5.8322 H         1 RES1    0.0000
     23 H2         2.3515    1.6060    5.8629 H         1 RES1    0.0000
     24 H3         0.8523    2.6016    3.7769 H         1 RES1    0.0000
     25 H4        -0.1262    3.0315    1.6864 H         1 RES1    0.0000
     26 H5        -1.0484    1.2717    0.4655 H         1 RES1    0.0000
     27 H6        -1.0492   -0.8732    1.3505 H         1 RES1    0.0000
     28 H7        -0.1025   -1.3210    3.4343 H         1 RES1    0.0000
     29 H8         0.5489    0.1791    9.6859 H         1 RES1    0.0000
     30 H9        -0.3634    1.4210   11.4207 H         1 RES1    0.0000
     31 H10       -0.9266    3.6434   11.0759 H         1 RES1    0.0000
     32 H11       -0.5210    4.6569    9.0294 H         1 RES1    0.0000
     33 H12        0.4918    3.4360    7.3122 H         1 RES1    0.0000
@<TRIPOS>BOND
     1    1    2 1
     2    2    3 2
     3    3    4 1
     4    4    5 1
     5    5    6 1
     6    6    1 1
     7    7    3 1
     8    8    7 2
     9    9    7 2
    10   10    1 1
    11   11   10 ar
    12   12   11 ar
    13   13   12 ar
    14   14   13 ar
    15   15   10 ar
    16   16    5 1
    17   17   16 ar
    18   18   17 ar
    19   19   18 ar
    20   20   19 ar
    21   21   16 ar
    22   22    6 1
    23   23    6 1
    24   24   11 1
    25   25   12 1
    26   26   13 1
    27   27   14 1
    28   28   15 1
    29   29   17 1
    30   30   18 1
    31   31   19 1
    32   32   20 1
    33   33   21 1
    34   14   15 ar
    35   20   21 ar
@<TRIPOS>SUBSTRUCTURE
     1 RES1 1

@<TRIPOS>CRYSIN
   3.9990   14.9260   22.0280  90.0000  94.5500  90.0000 231 1

