# MOL2 file generated by ConQuest
# Please check atom types

@<TRIPOS>MOLECULE
FAQJEM
    72    76     2
SMALL
NO_CHARGES
****
Generated from CSD

@<TRIPOS>ATOM
      1 N1         3.7539    3.4805    1.3814 N.pl3     1 RES1    0.0000
      2 N2         3.8133    2.3955    0.5821 N.2       1 RES1    0.0000
      3 C1         4.9453    2.3454   -0.1112 C.2       1 RES1    0.0000
      4 N3         6.0512    3.0585   -0.0362 N.2       1 RES1    0.0000
      5 N4         5.9120    4.1319    0.7580 N.pl3     1 RES1    0.0000
      6 C2         4.5672    4.6484    1.0154 C.3       1 RES1    0.0000
      7 N5         5.0208    1.2026   -1.0348 N.pl3     1 RES1    0.0000
      8 O1         5.9420    1.1717   -1.8186 O.2       1 RES1    0.0000
      9 O2         4.1768    0.3469   -0.9804 O.2       1 RES1    0.0000
     10 C3         3.9913    5.3750   -0.1617 C.3       1 RES1    0.0000
     11 C4         2.6861    3.5615    2.3075 C.ar      1 RES1    0.0000
     12 C5         1.9291    2.4341    2.5624 C.ar      1 RES1    0.0000
     13 C6         0.9068    2.4765    3.4885 C.ar      1 RES1    0.0000
     14 C7         0.6505    3.6424    4.1792 C.ar      1 RES1    0.0000
     15 C8         1.3903    4.7602    3.9308 C.ar      1 RES1    0.0000
     16 C9         2.4045    4.7293    2.9866 C.ar      1 RES1    0.0000
     17 C10        7.0772    4.6870    1.3465 C.ar      1 RES1    0.0000
     18 C11        7.1119    6.0032    1.7436 C.ar      1 RES1    0.0000
     19 C12        8.2369    6.4908    2.3722 C.ar      1 RES1    0.0000
     20 C13        9.3245    5.6795    2.5792 C.ar      1 RES1    0.0000
     21 C14        9.3029    4.3921    2.1523 C.ar      1 RES1    0.0000
     22 C15        8.1744    3.8833    1.5328 C.ar      1 RES1    0.0000
     23 N6         3.3173    0.6148    5.2243 N.pl3     2 RES2    0.0000
     24 N7         2.5743    0.5126    6.3419 N.2       2 RES2    0.0000
     25 C16        1.6255   -0.3989    6.2242 C.2       2 RES2    0.0000
     26 N8         1.1571   -1.0465    5.1803 N.2       2 RES2    0.0000
     27 N9         1.9283   -0.8653    4.0783 N.pl3     2 RES2    0.0000
     28 C17        3.3275   -0.4953    4.2736 C.3       2 RES2    0.0000
     29 N10        0.8382   -0.6128    7.4594 N.pl3     2 RES2    0.0000
     30 O3        -0.2150   -1.2257    7.3650 O.2       2 RES2    0.0000
     31 O4         1.2912   -0.1889    8.4968 O.2       2 RES2    0.0000
     32 C18        4.1625   -1.6535    4.7470 C.3       2 RES2    0.0000
     33 C19        4.1344    1.7518    5.0807 C.ar      2 RES2    0.0000
     34 C20        5.2760    1.7056    4.3047 C.ar      2 RES2    0.0000
     35 C21        6.0552    2.8484    4.1753 C.ar      2 RES2    0.0000
     36 C22        5.6874    4.0086    4.7819 C.ar      2 RES2    0.0000
     37 C23        4.5586    4.0356    5.5580 C.ar      2 RES2    0.0000
     38 C24        3.7802    2.9293    5.7081 C.ar      2 RES2    0.0000
     39 C25        1.3578   -1.1602    2.8327 C.ar      2 RES2    0.0000
     40 C26       -0.0274   -1.2623    2.7370 C.ar      2 RES2    0.0000
     41 C27       -0.5880   -1.5475    1.5134 C.ar      2 RES2    0.0000
     42 C28        0.1806   -1.6959    0.4049 C.ar      2 RES2    0.0000
     43 C29        1.5301   -1.5495    0.4889 C.ar      2 RES2    0.0000
     44 C30        2.1294   -1.3124    1.7009 C.ar      2 RES2    0.0000
     45 H1         4.6328    5.2420    1.7591 H         1 RES1    0.0000
     46 H2         2.1012    1.6574    2.1342 H         1 RES1    0.0000
     47 H3         0.3978    1.6767    3.6734 H         1 RES1    0.0000
     48 H4        -0.0796    3.6424    4.8376 H         1 RES1    0.0000
     49 H5         1.2082    5.6467    4.3460 H         1 RES1    0.0000
     50 H6         2.8732    5.5118    2.8327 H         1 RES1    0.0000
     51 H7         6.3766    6.6103    1.5263 H         1 RES1    0.0000
     52 H8         8.2340    7.3812    2.6645 H         1 RES1    0.0000
     53 H9        10.0338    6.0514    2.9879 H         1 RES1    0.0000
     54 H10       10.0312    3.7388    2.2894 H         1 RES1    0.0000
     55 H11        8.1154    2.9679    1.2417 H         1 RES1    0.0000
     56 H12        3.9593    4.7602   -0.9572 H         1 RES1    0.0000
     57 H13        3.1390    5.6852    0.0647 H         1 RES1    0.0000
     58 H14        4.5665    6.2249   -0.3363 H         1 RES1    0.0000
     59 H15        3.6503   -0.1156    3.4924 H         2 RES2    0.0000
     60 H16        5.5916    0.9251    3.9839 H         2 RES2    0.0000
     61 H17        6.7908    2.6788    3.7252 H         2 RES2    0.0000
     62 H18        6.2070    4.7216    4.7212 H         2 RES2    0.0000
     63 H19        4.3258    4.7987    5.9241 H         2 RES2    0.0000
     64 H20        3.0316    2.9679    6.1957 H         2 RES2    0.0000
     65 H21       -0.5663   -1.0985    3.5570 H         2 RES2    0.0000
     66 H22       -1.4836   -1.7152    1.5522 H         2 RES2    0.0000
     67 H23       -0.1828   -1.8694   -0.3880 H         2 RES2    0.0000
     68 H24        2.0802   -1.5225   -0.2199 H         2 RES2    0.0000
     69 H25        3.0608   -1.2334    1.7462 H         2 RES2    0.0000
     70 H26        5.0411   -1.3490    4.9022 H         2 RES2    0.0000
     71 H27        4.1527   -2.3126    4.0227 H         2 RES2    0.0000
     72 H28        3.7999   -1.9850    5.5748 H         2 RES2    0.0000
@<TRIPOS>BOND
     1    1    2 1
     2    2    3 2
     3    3    4 1
     4    4    5 1
     5    5    6 1
     6    6    1 1
     7    7    3 1
     8    8    7 2
     9    9    7 2
    10   10    6 1
    11   11    1 1
    12   12   11 ar
    13   13   12 ar
    14   14   13 ar
    15   15   14 ar
    16   16   11 ar
    17   17    5 1
    18   18   17 ar
    19   19   18 ar
    20   20   19 ar
    21   21   20 ar
    22   22   17 ar
    23   23   24 1
    24   24   25 2
    25   25   26 1
    26   26   27 1
    27   27   28 1
    28   28   23 1
    29   29   25 1
    30   30   29 2
    31   31   29 2
    32   32   28 1
    33   33   23 1
    34   34   33 ar
    35   35   34 ar
    36   36   35 ar
    37   37   36 ar
    38   38   33 ar
    39   39   27 1
    40   40   39 ar
    41   41   40 ar
    42   42   41 ar
    43   43   42 ar
    44   44   39 ar
    45   45    6 1
    46   46   12 1
    47   47   13 1
    48   48   14 1
    49   49   15 1
    50   50   16 1
    51   51   18 1
    52   52   19 1
    53   53   20 1
    54   54   21 1
    55   55   22 1
    56   56   10 1
    57   57   10 1
    58   58   10 1
    59   59   28 1
    60   60   34 1
    61   61   35 1
    62   62   36 1
    63   63   37 1
    64   64   38 1
    65   65   40 1
    66   66   41 1
    67   67   42 1
    68   68   43 1
    69   69   44 1
    70   70   32 1
    71   71   32 1
    72   72   32 1
    73   15   16 ar
    74   21   22 ar
    75   37   38 ar
    76   43   44 ar
@<TRIPOS>SUBSTRUCTURE
     1 RES1 1
     2 RES2 23

@<TRIPOS>CRYSIN
  11.6570   19.2720   13.0430  90.0000  97.3900  90.0000 231 1

