# MOL2 file generated by ConQuest
# Please check atom types

@<TRIPOS>MOLECULE
FAQMER
    38    39     1
SMALL
NO_CHARGES
****
Generated from CSD

@<TRIPOS>ATOM
      1 N1         0.0937    5.6186   -1.3450 N.pl3     1 RES1    0.0000
      2 O1         1.0579    1.0808    8.7529 O.3       1 RES1    0.0000
      3 O2         0.7426    5.8202    8.4765 O.3       1 RES1    0.0000
      4 H1         0.7354    6.4130    7.9086 H         1 RES1    0.0000
      5 O3         0.2769    6.8111    6.1791 O.2       1 RES1    0.0000
      6 O4         1.2322    7.1053    3.2360 O.3       1 RES1    0.0000
      7 H2         1.6591    6.8853    3.9023 H         1 RES1    0.0000
      8 O5         1.2814    5.4779   -1.1972 O.2       1 RES1    0.0000
      9 O6        -0.4351    5.4507   -2.4136 O.2       1 RES1    0.0000
     10 C1         1.4326    1.1789   10.1253 C.3       1 RES1    0.0000
     11 H3         2.1770    1.7786   10.2115 H         1 RES1    0.0000
     12 H4         1.6810    0.3111   10.4509 H         1 RES1    0.0000
     13 H5         0.6913    1.5135   10.6356 H         1 RES1    0.0000
     14 C2         0.8200    2.2375    8.0797 C.ar      1 RES1    0.0000
     15 C3         0.5378    2.0820    6.7169 C.ar      1 RES1    0.0000
     16 H6         0.5166    1.2341    6.3351 H         1 RES1    0.0000
     17 C4         0.2950    3.1856    5.9589 C.ar      1 RES1    0.0000
     18 H7         0.0857    3.0765    5.0585 H         1 RES1    0.0000
     19 C5         0.3496    4.4873    6.4925 C.ar      1 RES1    0.0000
     20 C6         0.6444    4.6102    7.8676 C.ar      1 RES1    0.0000
     21 C7         0.8649    3.4930    8.6639 C.ar      1 RES1    0.0000
     22 H8         1.0405    3.5862    9.5725 H         1 RES1    0.0000
     23 C8         0.1254    5.6850    5.6934 C.2       1 RES1    0.0000
     24 C9        -0.3330    5.5684    4.2608 C.3       1 RES1    0.0000
     25 H9        -1.2726    5.3268    4.2526 H         1 RES1    0.0000
     26 H10        0.1587    4.8496    3.8339 H         1 RES1    0.0000
     27 C10       -0.1509    6.8308    3.4481 C.3       1 RES1    0.0000
     28 H11       -0.5624    7.5840    3.9201 H         1 RES1    0.0000
     29 C11       -0.8038    6.6676    2.1071 C.ar      1 RES1    0.0000
     30 C12       -0.0753    6.2264    1.0029 C.ar      1 RES1    0.0000
     31 H12        0.8355    6.0523    1.0823 H         1 RES1    0.0000
     32 C13       -0.7087    6.0487   -0.2025 C.ar      1 RES1    0.0000
     33 C14       -2.0648    6.2561   -0.3626 C.ar      1 RES1    0.0000
     34 H13       -2.4812    6.1227   -1.1836 H         1 RES1    0.0000
     35 C15       -2.7716    6.6670    0.7348 C.ar      1 RES1    0.0000
     36 H14       -3.6882    6.8056    0.6622 H         1 RES1    0.0000
     37 C16       -2.1556    6.8762    1.9375 C.ar      1 RES1    0.0000
     38 H15       -2.6622    7.1668    2.6613 H         1 RES1    0.0000
@<TRIPOS>BOND
     1    1    8 2
     2    2   10 1
     3    3    4 1
     4    5   23 2
     5    6    7 1
     6    9    1 2
     7   10   11 1
     8   12   10 1
     9   13   10 1
    10   14    2 1
    11   15   14 ar
    12   16   15 1
    13   17   15 ar
    14   18   17 1
    15   19   17 ar
    16   20    3 1
    17   21   14 ar
    18   22   21 1
    19   23   19 1
    20   24   23 1
    21   25   24 1
    22   26   24 1
    23   27    6 1
    24   28   27 1
    25   29   27 1
    26   30   29 ar
    27   31   30 1
    28   32    1 1
    29   33   32 ar
    30   34   33 1
    31   35   33 ar
    32   36   35 1
    33   37   29 ar
    34   38   37 1
    35   19   20 ar
    36   20   21 ar
    37   24   27 1
    38   30   32 ar
    39   35   37 ar
@<TRIPOS>SUBSTRUCTURE
     1 RES1 1

@<TRIPOS>CRYSIN
   6.9530    7.9410   14.0980 101.0640  97.6950  93.4280   2 1

