# MOL2 file generated by ConQuest
# Please check atom types

@<TRIPOS>MOLECULE
FAQQUJ
    51    54     1
SMALL
USER_CHARGES
****
Generated from CSD

@<TRIPOS>ATOM
      1 O1         0.7535   -2.8822    2.1893 O.2       1 RES1   -1.0000
      2 O2         2.7913    1.4328    3.6057 O.3       1 RES1    0.0000
      3 O3        -0.3850   -4.5973   -1.3458 O.2       1 RES1    0.0000
      4 O4        -1.7950  -10.1179    1.7731 O.3       1 RES1    0.0000
      5 N1         0.9270   -2.2469    1.0554 N.pl3     1 RES1    1.0000
      6 N2         0.4492   -2.4654   -2.5400 N.3       1 RES1    0.0000
      7 N3         1.3695   -0.7565   -1.2674 N.ar      1 RES1    0.0000
      8 N4        -0.0443   -4.9011    0.8693 N.am      1 RES1    0.0000
      9 C1         0.5870   -2.7846   -0.1482 C.ar      1 RES1    0.0000
     10 C2         0.8192   -1.9617   -1.3234 C.ar      1 RES1    0.0000
     11 C3         1.7144   -0.2786   -0.0405 C.ar      1 RES1    0.0000
     12 C4         2.3319    0.9930    0.0603 C.ar      1 RES1    0.0000
     13 C5         2.6718    1.5103    1.2743 C.ar      1 RES1    0.0000
     14 C6         2.4140    0.7889    2.4590 C.ar      1 RES1    0.0000
     15 C7         1.8339   -0.4548    2.4168 C.ar      1 RES1    0.0000
     16 C8         1.5002   -0.9773    1.1494 C.ar      1 RES1    0.0000
     17 C9         0.0065   -4.1744   -0.2533 C.2       1 RES1    0.0000
     18 C10       -0.5159   -6.2244    1.0399 C.ar      1 RES1    0.0000
     19 C11       -0.3962   -6.7592    2.3211 C.ar      1 RES1    0.0000
     20 C12       -0.8228   -8.0444    2.6106 C.ar      1 RES1    0.0000
     21 C13       -1.3719   -8.8249    1.6077 C.ar      1 RES1    0.0000
     22 C14       -1.4990   -8.3048    0.3231 C.ar      1 RES1    0.0000
     23 C15       -1.0796   -7.0166    0.0370 C.ar      1 RES1    0.0000
     24 C16        0.6503   -1.9601   -3.8401 C.ar      1 RES1    0.0000
     25 C17        0.2732   -2.8153   -4.8852 C.ar      1 RES1    0.0000
     26 C18        0.4267   -2.4149   -6.2009 C.ar      1 RES1    0.0000
     27 C19        0.9697   -1.1768   -6.5076 C.ar      1 RES1    0.0000
     28 C20        1.3436   -0.3359   -5.4737 C.ar      1 RES1    0.0000
     29 C21        1.1749   -0.7044   -4.1425 C.ar      1 RES1    0.0000
     30 C22       -1.7184  -10.6613    3.0922 C.3       1 RES1    0.0000
     31 C23        2.5958    0.7377    4.8473 C.3       1 RES1    0.0000
     32 H1         0.0706   -3.3083   -2.4555 H         1 RES1    0.0000
     33 H2         2.5137    1.4835   -0.7840 H         1 RES1    0.0000
     34 H3         3.0849    2.3767    1.3613 H         1 RES1    0.0000
     35 H4         1.6365   -0.9610    3.1793 H         1 RES1    0.0000
     36 H5         0.2607   -4.4018    1.6456 H         1 RES1    0.0000
     37 H6         0.0366   -6.2128    2.9897 H         1 RES1    0.0000
     38 H7        -0.6857   -8.3788    3.5067 H         1 RES1    0.0000
     39 H8        -1.9111   -8.8680   -0.3619 H         1 RES1    0.0000
     40 H9        -1.1820   -6.6866   -0.8616 H         1 RES1    0.0000
     41 H10       -0.0821   -3.7122   -4.6698 H         1 RES1    0.0000
     42 H11        0.1361   -3.0011   -6.8927 H         1 RES1    0.0000
     43 H12        1.0967   -0.8917   -7.4614 H         1 RES1    0.0000
     44 H13        1.7504    0.5670   -5.7037 H         1 RES1    0.0000
     45 H14        1.4368   -0.0662   -3.4291 H         1 RES1    0.0000
     46 H15       -0.7625  -10.6600    3.3947 H         1 RES1    0.0000
     47 H16       -2.1180  -11.5963    3.0328 H         1 RES1    0.0000
     48 H17       -2.2422  -10.1049    3.7565 H         1 RES1    0.0000
     49 H18        1.6319    0.5379    5.0058 H         1 RES1    0.0000
     50 H19        3.1323   -0.1355    4.8680 H         1 RES1    0.0000
     51 H20        2.9450    1.3840    5.5400 H         1 RES1    0.0000
@<TRIPOS>BOND
     1    1    5 1
     2    2   14 1
     3    3   17 2
     4    4   21 1
     5    5    9 ar
     6    6   10 1
     7    7   10 ar
     8    8   17 1
     9    9   10 ar
    10   11    7 ar
    11   12   11 ar
    12   13   12 ar
    13   14   13 ar
    14   15   14 ar
    15   16    5 ar
    16   17    9 1
    17   18    8 1
    18   19   18 ar
    19   20   19 ar
    20   21   20 ar
    21   22   21 ar
    22   23   18 ar
    23   24    6 1
    24   25   24 ar
    25   26   25 ar
    26   27   26 ar
    27   28   27 ar
    28   29   24 ar
    29   30    4 1
    30   31    2 1
    31   32    6 1
    32   33   12 1
    33   34   13 1
    34   35   15 1
    35   36    8 1
    36   37   19 1
    37   38   20 1
    38   39   22 1
    39   40   23 1
    40   41   25 1
    41   42   26 1
    42   43   27 1
    43   44   28 1
    44   45   29 1
    45   46   30 1
    46   47   30 1
    47   48   30 1
    48   49   31 1
    49   50   31 1
    50   51   31 1
    51   11   16 ar
    52   15   16 ar
    53   22   23 ar
    54   28   29 ar
@<TRIPOS>SUBSTRUCTURE
     1 RES1 1

@<TRIPOS>CRYSIN
  10.6370   11.0320   10.0110  99.3800 114.6700 106.2800   2 1

