# MOL2 file generated by ConQuest
# Please check atom types

@<TRIPOS>MOLECULE
FAQQIX
    43    46     1
SMALL
USER_CHARGES
****
Generated from CSD

@<TRIPOS>ATOM
      1 O1         1.0117    7.3253   -0.9101 O.2       1 RES1   -1.0000
      2 O2         1.3920    3.2454   -1.1506 O.2       1 RES1    0.0000
      3 N1         0.4352    6.5477   -0.0374 N.pl3     1 RES1    1.0000
      4 N2        -0.2204    3.0908    0.8478 N.3       1 RES1    0.0000
      5 N3        -0.9116    5.0379    1.9082 N.ar      1 RES1    0.0000
      6 N4         1.9935    5.2552   -2.0084 N.am      1 RES1    0.0000
      7 C1         0.5200    5.1903   -0.0782 C.ar      1 RES1    0.0000
      8 C2        -0.2253    4.4574    0.9491 C.ar      1 RES1    0.0000
      9 C3        -0.9253    6.4075    1.9445 C.ar      1 RES1    0.0000
     10 C4        -1.6108    7.0619    2.9873 C.ar      1 RES1    0.0000
     11 C5        -1.6374    8.4380    3.0567 C.ar      1 RES1    0.0000
     12 C6        -0.9875    9.2027    2.0767 C.ar      1 RES1    0.0000
     13 C7        -0.3230    8.6062    1.0328 C.ar      1 RES1    0.0000
     14 C8        -0.2842    7.1965    0.9899 C.ar      1 RES1    0.0000
     15 C9         1.3411    4.4817   -1.1352 C.2       1 RES1    0.0000
     16 C10        2.7306    4.8631   -3.1646 C.ar      1 RES1    0.0000
     17 C11        3.1941    5.9101   -3.9640 C.ar      1 RES1    0.0000
     18 C12        3.8779    5.6446   -5.1300 C.ar      1 RES1    0.0000
     19 C13        4.0967    4.3265   -5.5286 C.ar      1 RES1    0.0000
     20 C14        3.6503    3.2963   -4.7226 C.ar      1 RES1    0.0000
     21 C15        2.9777    3.5431   -3.5257 C.ar      1 RES1    0.0000
     22 C16       -0.7791    2.1221    1.7122 C.ar      1 RES1    0.0000
     23 C17       -0.6378    0.7946    1.2784 C.ar      1 RES1    0.0000
     24 C18       -1.0900   -0.2524    2.0701 C.ar      1 RES1    0.0000
     25 C19       -1.6891   -0.0037    3.3022 C.ar      1 RES1    0.0000
     26 C20       -1.8409    1.3051    3.7107 C.ar      1 RES1    0.0000
     27 C21       -1.4041    2.3745    2.9333 C.ar      1 RES1    0.0000
     28 H1         0.2987    2.7802    0.1431 H         1 RES1    0.0000
     29 H2        -2.0831    6.5440    3.6777 H         1 RES1    0.0000
     30 H3        -2.0831    8.8437    3.7988 H         1 RES1    0.0000
     31 H4        -0.9931   10.1712    2.1582 H         1 RES1    0.0000
     32 H5         0.1453    9.1615    0.3303 H         1 RES1    0.0000
     33 H6         1.9135    6.0765   -1.8829 H         1 RES1    0.0000
     34 H7         3.0197    6.8618   -3.6667 H         1 RES1    0.0000
     35 H8         4.2550    6.3944   -5.6927 H         1 RES1    0.0000
     36 H9         4.5941    4.1320   -6.3644 H         1 RES1    0.0000
     37 H10        3.8513    2.2997   -4.9660 H         1 RES1    0.0000
     38 H11        2.6321    2.8232   -2.9509 H         1 RES1    0.0000
     39 H12       -0.2261    0.6170    0.3854 H         1 RES1    0.0000
     40 H13       -0.9770   -1.2153    1.7507 H         1 RES1    0.0000
     41 H14       -1.9620   -0.8227    3.8318 H         1 RES1    0.0000
     42 H15       -2.3011    1.4771    4.5916 H         1 RES1    0.0000
     43 H16       -1.5421    3.2533    3.2482 H         1 RES1    0.0000
@<TRIPOS>BOND
     1    1    3 1
     2    2   15 2
     3    3    7 ar
     4    4    8 1
     5    5    8 ar
     6    6   15 1
     7    7    8 ar
     8    9    5 ar
     9   10    9 ar
    10   11   10 ar
    11   12   11 ar
    12   13   12 ar
    13   14    3 ar
    14   15    7 1
    15   16    6 1
    16   17   16 ar
    17   18   17 ar
    18   19   18 ar
    19   20   19 ar
    20   21   16 ar
    21   22    4 1
    22   23   22 ar
    23   24   23 ar
    24   25   24 ar
    25   26   25 ar
    26   27   22 ar
    27   28    4 1
    28   29   10 1
    29   30   11 1
    30   31   12 1
    31   32   13 1
    32   33    6 1
    33   34   17 1
    34   35   18 1
    35   36   19 1
    36   37   20 1
    37   38   21 1
    38   39   23 1
    39   40   24 1
    40   41   25 1
    41   42   26 1
    42   43   27 1
    43    9   14 ar
    44   13   14 ar
    45   20   21 ar
    46   26   27 ar
@<TRIPOS>SUBSTRUCTURE
     1 RES1 1

@<TRIPOS>CRYSIN
   8.0740   18.6970   11.0110  90.0000  90.0000  90.0000  33 1

