# MOL2 file generated by ConQuest
# Please check atom types

@<TRIPOS>MOLECULE
FAQRAQ
    45    48     1
SMALL
NO_CHARGES
****
Generated from CSD

@<TRIPOS>ATOM
      1 O1         0.9134    9.6725    0.9557 O.2       1 RES1    0.0000
      2 O2         1.3221    9.2928    3.0482 O.2       1 RES1    0.0000
      3 O3         0.1633    3.4332    1.1888 O.2       1 RES1    0.0000
      4 O4         1.1189    2.5287    2.9227 O.2       1 RES1    0.0000
      5 N1         4.6070   11.7118    0.9826 N.ar      1 RES1    0.0000
      6 N2         2.4777   11.7007    0.0753 N.3       1 RES1    0.0000
      7 N3         1.6902    9.6237    1.9141 N.pl3     1 RES1    0.0000
      8 N4         3.8915    8.1488    3.1370 N.3       1 RES1    0.0000
      9 N5         0.9372    3.4782    2.1481 N.pl3     1 RES1    0.0000
     10 C1         3.4185   11.1496    0.9010 C.ar      1 RES1    0.0000
     11 C2         3.0853    9.9881    1.7115 C.ar      1 RES1    0.0000
     12 C3         4.0819    9.3168    2.4126 C.ar      1 RES1    0.0000
     13 C4         5.3921    9.8955    2.4413 C.ar      1 RES1    0.0000
     14 C5         6.4926    9.3077    3.1074 C.ar      1 RES1    0.0000
     15 C6         7.7013    9.9520    3.1486 C.ar      1 RES1    0.0000
     16 C7         7.8633   11.2026    2.5291 C.ar      1 RES1    0.0000
     17 C8         6.8274   11.7770    1.8496 C.ar      1 RES1    0.0000
     18 C9         5.5706   11.1284    1.7653 C.ar      1 RES1    0.0000
     19 C10        2.5892   12.7885   -0.8284 C.ar      1 RES1    0.0000
     20 C11        3.6941   13.6258   -0.9593 C.ar      1 RES1    0.0000
     21 C12        3.6950   14.6059   -1.9491 C.ar      1 RES1    0.0000
     22 C13        2.6200   14.7778   -2.8008 C.ar      1 RES1    0.0000
     23 C14        1.5029   13.9672   -2.6394 C.ar      1 RES1    0.0000
     24 C15        1.4767   12.9891   -1.6568 C.ar      1 RES1    0.0000
     25 C16        3.1062    7.0305    2.8519 C.ar      1 RES1    0.0000
     26 C17        2.9700    6.0718    3.8659 C.ar      1 RES1    0.0000
     27 C18        2.2606    4.9083    3.6328 C.ar      1 RES1    0.0000
     28 C19        1.6851    4.7120    2.3839 C.ar      1 RES1    0.0000
     29 C20        1.8075    5.6421    1.3645 C.ar      1 RES1    0.0000
     30 C21        2.5258    6.8006    1.5976 C.ar      1 RES1    0.0000
     31 H1         1.7508   11.2213   -0.0090 H         1 RES1    0.0000
     32 H2         4.4466    8.0419    3.8013 H         1 RES1    0.0000
     33 H3         6.4012    8.4003    3.5144 H         1 RES1    0.0000
     34 H4         8.4440    9.5541    3.5772 H         1 RES1    0.0000
     35 H5         8.7417   11.6414    2.5641 H         1 RES1    0.0000
     36 H6         6.9326   12.6345    1.4165 H         1 RES1    0.0000
     37 H7         4.4553   13.4928   -0.4124 H         1 RES1    0.0000
     38 H8         4.4384   15.1758   -2.0351 H         1 RES1    0.0000
     39 H9         2.6333   15.4859   -3.5413 H         1 RES1    0.0000
     40 H10        0.7207   14.0669   -3.2186 H         1 RES1    0.0000
     41 H11        0.7177   12.4167   -1.5689 H         1 RES1    0.0000
     42 H12        3.4167    6.2116    4.7158 H         1 RES1    0.0000
     43 H13        2.1556    4.2174    4.3213 H         1 RES1    0.0000
     44 H14        1.4209    5.4853    0.5110 H         1 RES1    0.0000
     45 H15        2.6558    7.4019    0.8965 H         1 RES1    0.0000
@<TRIPOS>BOND
     1    1    7 2
     2    2    7 2
     3    3    9 2
     4    4    9 2
     5    5   10 ar
     6    6   10 1
     7    7   11 1
     8    8   12 1
     9    9   28 1
    10   10   11 ar
    11   11   12 ar
    12   12   13 ar
    13   13   14 ar
    14   14   15 ar
    15   15   16 ar
    16   16   17 ar
    17   17   18 ar
    18   18    5 ar
    19   19    6 1
    20   20   19 ar
    21   21   20 ar
    22   22   21 ar
    23   23   22 ar
    24   24   19 ar
    25   25    8 1
    26   26   25 ar
    27   27   26 ar
    28   28   27 ar
    29   29   28 ar
    30   30   25 ar
    31   31    6 1
    32   32    8 1
    33   33   14 1
    34   34   15 1
    35   35   16 1
    36   36   17 1
    37   37   20 1
    38   38   21 1
    39   39   22 1
    40   40   23 1
    41   41   24 1
    42   42   26 1
    43   43   27 1
    44   44   29 1
    45   45   30 1
    46   13   18 ar
    47   23   24 ar
    48   29   30 ar
@<TRIPOS>SUBSTRUCTURE
     1 RES1 1

@<TRIPOS>CRYSIN
   9.9580   10.0080    9.8410 104.2700 109.2300  90.2800   2 1

