# MOL2 file generated by ConQuest
# Please check atom types

@<TRIPOS>MOLECULE
FARLAO
   132   118     3
SMALL
NO_CHARGES
****
Generated from CSD

@<TRIPOS>ATOM
      1 N1        -0.4661   11.2342    4.0113 N.am      1 RES1    0.0000
      2 C1        -1.7934   11.4602    3.4644 C.3       1 RES1    0.0000
      3 H1        -2.0858   10.6811    2.9264 H         1 RES1    0.0000
      4 H2        -1.7997   12.2649    2.8886 H         1 RES1    0.0000
      5 C2        -2.6923   11.6506    4.6438 C.3       1 RES1    0.0000
      6 H3        -3.1741   12.5132    4.5751 H         1 RES1    0.0000
      7 H4        -3.3592   10.9206    4.6918 H         1 RES1    0.0000
      8 C3        -1.8183   11.6386    5.8550 C.2       1 RES1    0.0000
      9 C4        -0.3376   11.4937    5.4283 C.3       1 RES1    0.0000
     10 O1        -2.1724   11.7240    6.9960 O.2       1 RES1    0.0000
     11 C5         0.2185   10.2574    6.1679 C.2       1 RES1    0.0000
     12 O2         1.0471   10.2893    7.0251 O.2       1 RES1    0.0000
     13 C6         0.5237   12.7488    5.7235 C.3       1 RES1    0.0000
     14 H5         1.4804   12.4859    5.6038 H         1 RES1    0.0000
     15 C7         0.3596   13.2211    7.1767 C.3       1 RES1    0.0000
     16 H6        -0.5627   13.5513    7.3194 H         1 RES1    0.0000
     17 H7         0.5154   12.4634    7.7951 H         1 RES1    0.0000
     18 N2         1.3352   14.3107    7.4602 N.pl3     1 RES1    0.0000
     19 O3         0.9425   15.2728    8.0510 O.2       1 RES1    0.0000
     20 O4         2.4720   14.1865    7.1254 O.2       1 RES1    0.0000
     21 C8         0.2302   13.8463    4.7143 C.ar      1 RES1    0.0000
     22 C9         1.0744   14.0171    3.6345 C.ar      1 RES1    0.0000
     23 H8         1.8634   13.4924    3.5687 H         1 RES1    0.0000
     24 C10        0.7885   14.9441    2.6454 C.ar      1 RES1    0.0000
     25 H9         1.3857   15.0415    1.9131 H         1 RES1    0.0000
     26 C11       -0.3437   15.7266    2.7040 C.ar      1 RES1    0.0000
     27 C12       -1.1835   15.5558    3.7851 C.ar      1 RES1    0.0000
     28 H10       -1.9724   16.0805    3.8452 H         1 RES1    0.0000
     29 C13       -0.9047   14.6394    4.7793 C.ar      1 RES1    0.0000
     30 H11       -1.4981   14.5514    5.5162 H         1 RES1    0.0000
     31 C14       -0.6447   16.7512    1.6332 C.3       1 RES1    0.0000
     32 H12       -1.6144   16.8488    1.5405 H         1 RES1    0.0000
     33 H13       -0.2620   16.4544    0.7814 H         1 RES1    0.0000
     34 H14       -0.2512   17.6127    1.8857 H         1 RES1    0.0000
     35 C15        0.5973   10.8038    3.2999 C.2       1 RES1    0.0000
     36 O5         1.6717   10.5566    3.8076 O.2       1 RES1    0.0000
     37 O6         0.2777   10.7008    2.0098 O.3       1 RES1    0.0000
     38 C16        1.2186   10.0982    1.0512 C.3       1 RES1    0.0000
     39 C17        1.4986    8.6751    1.4421 C.3       1 RES1    0.0000
     40 H15        1.9922    8.6609    2.2893 H         1 RES1    0.0000
     41 H16        2.0336    8.2436    0.7436 H         1 RES1    0.0000
     42 H17        0.6515    8.1942    1.5491 H         1 RES1    0.0000
     43 C18        0.4219   10.1474   -0.2353 C.3       1 RES1    0.0000
     44 H18       -0.4527    9.7290   -0.0945 H         1 RES1    0.0000
     45 H19        0.9053    9.6640   -0.9377 H         1 RES1    0.0000
     46 H20        0.2969   11.0801   -0.5066 H         1 RES1    0.0000
     47 C19        2.4640   10.9337    0.9669 C.3       1 RES1    0.0000
     48 H21        2.2220   11.8612    0.7625 H         1 RES1    0.0000
     49 H22        3.0449   10.5839    0.2593 H         1 RES1    0.0000
     50 H23        2.9377   10.9017    1.8256 H         1 RES1    0.0000
     51 O7        -0.1914    9.1625    5.6381 O.3       1 RES1    0.0000
     52 C20        0.3361    7.9475    6.2031 C.3       1 RES1    0.0000
     53 H24        0.0439    7.8475    7.1425 H         1 RES1    0.0000
     54 H25        1.3266    7.9560    6.1791 H         1 RES1    0.0000
     55 C21       -0.2083    6.8028    5.3513 C.3       1 RES1    0.0000
     56 H26        0.1253    5.9489    5.6982 H         1 RES1    0.0000
     57 H27       -1.1876    6.8085    5.3839 H         1 RES1    0.0000
     58 H28        0.0886    6.9157    4.4239 H         1 RES1    0.0000
     59 O8        -0.7123    9.1996    5.9146 Du        3 SUP3    0.0000
     60 C22       -0.4543    7.9179    6.5518 Du        3 SUP3    0.0000
     61 H29       -0.0868    8.0759    7.4568 Du        3 SUP3    0.0000
     62 H30       -1.3108    7.4311    6.6531 Du        3 SUP3    0.0000
     63 C23        0.4269    7.1328    5.8442 Du        3 SUP3    0.0000
     64 H31        0.5574    6.2851    6.3182 Du        3 SUP3    0.0000
     65 H32        0.0560    6.9534    4.9546 Du        3 SUP3    0.0000
     66 H33        1.2800    7.5982    5.7566 Du        3 SUP3    0.0000
     67 N3         5.2399    5.2837    4.5314 N.am      2 RES2    0.0000
     68 C24        3.9576    5.6515    5.0953 C.3       2 RES2    0.0000
     69 H34        4.0463    6.4433    5.6828 H         2 RES2    0.0000
     70 H35        3.5772    4.9039    5.6209 H         2 RES2    0.0000
     71 C25        3.0874    5.9650    3.9060 C.3       2 RES2    0.0000
     72 H36        2.3423    5.3162    3.8435 H         2 RES2    0.0000
     73 H37        2.7071    6.8750    3.9877 H         2 RES2    0.0000
     74 C26        3.9574    5.8741    2.6964 C.2       2 RES2    0.0000
     75 C27        5.4003    5.5708    3.1211 C.3       2 RES2    0.0000
     76 O9         3.6180    5.9976    1.5552 O.2       2 RES2    0.0000
     77 C28        5.8599    4.3238    2.3488 C.2       2 RES2    0.0000
     78 O10        6.7331    4.2981    1.5453 O.2       2 RES2    0.0000
     79 C29        6.3608    6.7858    2.8888 C.3       2 RES2    0.0000
     80 H38        7.2920    6.4687    3.0741 H         2 RES2    0.0000
     81 C30        6.3238    7.2714    1.4343 C.3       2 RES2    0.0000
     82 H39        6.4723    6.5106    0.8192 H         2 RES2    0.0000
     83 H40        5.4388    7.6666    1.2331 H         2 RES2    0.0000
     84 N4         7.3981    8.2992    1.2461 N.pl3     2 RES2    0.0000
     85 O11        7.0809    9.2886    0.6406 O.2       2 RES2    0.0000
     86 O12        8.5069    8.0951    1.6830 O.2       2 RES2    0.0000
     87 C31        6.0542    7.8928    3.8804 C.ar      2 RES2    0.0000
     88 C32        5.0189    8.7846    3.7117 C.ar      2 RES2    0.0000
     89 H41        4.5187    8.7725    2.9041 H         2 RES2    0.0000
     90 C33        4.6951    9.7012    4.7056 C.ar      2 RES2    0.0000
     91 H42        3.9679   10.2947    4.5630 H         2 RES2    0.0000
     92 C34        5.3877    9.7723    5.8737 C.ar      2 RES2    0.0000
     93 C35        6.4389    8.8888    6.0391 C.ar      2 RES2    0.0000
     94 H43        6.9473    8.9128    6.8420 H         2 RES2    0.0000
     95 C36        6.7613    7.9756    5.0633 C.ar      2 RES2    0.0000
     96 H44        7.4906    7.3845    5.2071 H         2 RES2    0.0000
     97 C37        5.0440   10.7830    6.9364 C.3       2 RES2    0.0000
     98 H45        5.4303   11.6516    6.6977 H         2 RES2    0.0000
     99 H46        5.4094   10.4896    7.7968 H         2 RES2    0.0000
    100 H47        4.0700   10.8665    7.0051 H         2 RES2    0.0000
    101 C38        6.2650    4.7564    5.2375 C.2       2 RES2    0.0000
    102 O13        7.3030    4.4135    4.7257 O.2       2 RES2    0.0000
    103 O14        5.9499    4.6844    6.5332 O.3       2 RES2    0.0000
    104 C39        6.8844    4.0653    7.4918 C.3       2 RES2    0.0000
    105 C40        6.1158    4.1958    8.7915 C.3       2 RES2    0.0000
    106 H48        6.0119    5.1438    9.0162 H         2 RES2    0.0000
    107 H49        6.6075    3.7425    9.5091 H         2 RES2    0.0000
    108 H50        5.2325    3.7849    8.6916 H         2 RES2    0.0000
    109 C41        7.0843    2.6191    7.1310 C.3       2 RES2    0.0000
    110 H51        6.2119    2.1895    7.0103 H         2 RES2    0.0000
    111 H52        7.5747    2.1682    7.8501 H         2 RES2    0.0000
    112 H53        7.5960    2.5588    6.2976 H         2 RES2    0.0000
    113 C42        8.1729    4.8408    7.5341 C.3       2 RES2    0.0000
    114 H54        8.6257    4.7677    6.6685 H         2 RES2    0.0000
    115 H55        8.7504    4.4776    8.2365 H         2 RES2    0.0000
    116 H56        7.9803    5.7833    7.7230 H         2 RES2    0.0000
    117 O15        4.9999    3.3249    2.6155 O.3       2 RES2    0.0000
    118 C43        5.2456    2.0629    1.9612 C.3       2 RES2    0.0000
    119 H57        5.5748    2.2231    1.0407 H         2 RES2    0.0000
    120 H58        4.4020    1.5489    1.9011 H         2 RES2    0.0000
    121 C44        6.2770    1.2675    2.7426 C.3       2 RES2    0.0000
    122 H59        6.4384    0.4120    2.2927 H         2 RES2    0.0000
    123 H60        7.1134    1.7756    2.7907 H         2 RES2    0.0000
    124 H61        5.9428    1.1014    3.6494 H         2 RES2    0.0000
    125 O16        5.4514    3.2307    2.9041 Du        3 SUP3    0.0000
    126 C45        5.8825    1.9694    2.3184 Du        3 SUP3    0.0000
    127 H62        5.4045    1.8098    1.4632 Du        3 SUP3    0.0000
    128 H63        6.8512    1.9895    2.1398 Du        3 SUP3    0.0000
    129 C46        5.5862    0.9958    3.1995 Du        3 SUP3    0.0000
    130 H64        5.8638    0.1303    2.8337 Du        3 SUP3    0.0000
    131 H65        6.0617    1.1637    4.0392 Du        3 SUP3    0.0000
    132 H66        4.6204    0.9852    3.3660 Du        3 SUP3    0.0000
@<TRIPOS>BOND
     1    1    2 1
     2    2    3 1
     3    4    2 1
     4    5    2 1
     5    6    5 1
     6    7    5 1
     7    8    5 1
     8    9    1 1
     9   10    8 2
    10   11    9 1
    11   12   11 2
    12   13    9 1
    13   14   13 1
    14   15   13 1
    15   16   15 1
    16   17   15 1
    17   18   15 1
    18   19   18 2
    19   20   18 2
    20   21   13 1
    21   22   21 ar
    22   23   22 1
    23   24   22 ar
    24   25   24 1
    25   26   24 ar
    26   27   26 ar
    27   28   27 1
    28   29   21 ar
    29   30   29 1
    30   31   26 1
    31   32   31 1
    32   33   31 1
    33   34   31 1
    34   35    1 1
    35   36   35 2
    36   37   35 1
    37   38   37 1
    38   39   38 1
    39   40   39 1
    40   41   39 1
    41   42   39 1
    42   43   38 1
    43   44   43 1
    44   45   43 1
    45   46   43 1
    46   47   38 1
    47   48   47 1
    48   49   47 1
    49   50   47 1
    50   51   11 1
    51   52   51 1
    52   53   52 1
    53   54   52 1
    54   55   52 1
    55   56   55 1
    56   57   55 1
    57   58   55 1
    58   67   68 1
    59   68   69 1
    60   70   68 1
    61   71   68 1
    62   72   71 1
    63   73   71 1
    64   74   71 1
    65   75   67 1
    66   76   74 2
    67   77   75 1
    68   78   77 2
    69   79   75 1
    70   80   79 1
    71   81   79 1
    72   82   81 1
    73   83   81 1
    74   84   81 1
    75   85   84 2
    76   86   84 2
    77   87   79 1
    78   88   87 ar
    79   89   88 1
    80   90   88 ar
    81   91   90 1
    82   92   90 ar
    83   93   92 ar
    84   94   93 1
    85   95   87 ar
    86   96   95 1
    87   97   92 1
    88   98   97 1
    89   99   97 1
    90  100   97 1
    91  101   67 1
    92  102  101 2
    93  103  101 1
    94  104  103 1
    95  105  104 1
    96  106  105 1
    97  107  105 1
    98  108  105 1
    99  109  104 1
   100  110  109 1
   101  111  109 1
   102  112  109 1
   103  113  104 1
   104  114  113 1
   105  115  113 1
   106  116  113 1
   107  117   77 1
   108  118  117 1
   109  119  118 1
   110  120  118 1
   111  121  118 1
   112  122  121 1
   113  123  121 1
   114  124  121 1
   115    8    9 1
   116   27   29 ar
   117   74   75 1
   118   93   95 ar
@<TRIPOS>SUBSTRUCTURE
     1 RES1 1
     2 RES2 67
     3 SUP3 59

@<TRIPOS>CRYSIN
  10.8869   11.8423   17.1750  90.3710  90.5890  92.9770   2 1

