# MOL2 file generated by ConQuest
# Please check atom types

@<TRIPOS>MOLECULE
FARLIW
    83    79     2
SMALL
NO_CHARGES
****
Generated from CSD

@<TRIPOS>ATOM
      1 N1         6.1913   10.9236    5.8862 N.am      1 RES1    0.0000
      2 C1         5.3747    9.7407    5.5453 C.3       1 RES1    0.0000
      3 H1         5.3018    9.6352    4.5636 H         1 RES1    0.0000
      4 H2         4.4650    9.8205    5.9263 H         1 RES1    0.0000
      5 C2         6.1137    8.5595    6.1588 C.3       1 RES1    0.0000
      6 H3         5.5418    8.1052    6.8286 H         1 RES1    0.0000
      7 H4         6.3599    7.9058    5.4590 H         1 RES1    0.0000
      8 C3         7.3449    9.1141    6.8137 C.2       1 RES1    0.0000
      9 C4         7.4934   10.6078    6.4730 C.3       1 RES1    0.0000
     10 O1         8.1181    8.5330    7.5280 O.2       1 RES1    0.0000
     11 C5         7.7077   11.3942    7.7770 C.2       1 RES1    0.0000
     12 O2         8.7083   11.9832    8.0680 O.2       1 RES1    0.0000
     13 O3         6.6373   11.2592    8.5522 O.3       1 RES1    0.0000
     14 C6         8.6695   10.8923    5.4786 C.3       1 RES1    0.0000
     15 H5         8.8532   11.8741    5.5165 H         1 RES1    0.0000
     16 C7         9.9447   10.1833    5.9309 C.3       1 RES1    0.0000
     17 H6        10.0869   10.3403    6.8977 H         1 RES1    0.0000
     18 H7         9.8514    9.2080    5.7882 H         1 RES1    0.0000
     19 N2        11.1178   10.6902    5.1632 N.pl3     1 RES1    0.0000
     20 O4        11.1433   11.8514    4.8217 O.2       1 RES1    0.0000
     21 O5        12.0321    9.8970    4.9445 O.2       1 RES1    0.0000
     22 C8         8.3089   10.5668    4.0433 C.ar      1 RES1    0.0000
     23 C9         8.2447    9.2633    3.5576 C.ar      1 RES1    0.0000
     24 H8         8.4831    8.5376    4.1216 H         1 RES1    0.0000
     25 C10        7.8377    9.0201    2.2605 C.ar      1 RES1    0.0000
     26 H9         7.7829    8.1258    1.9463 H         1 RES1    0.0000
     27 C11        7.5089   10.0547    1.4226 C.ar      1 RES1    0.0000
     28 H10        7.2232    9.8797    0.5340 H         1 RES1    0.0000
     29 C12        7.5981   11.3504    1.8818 C.ar      1 RES1    0.0000
     30 H11        7.3797   12.0710    1.3029 H         1 RES1    0.0000
     31 C13        8.0023   11.6116    3.1813 C.ar      1 RES1    0.0000
     32 H12        8.0700   12.5098    3.4840 H         1 RES1    0.0000
     33 C14        5.8033   12.2091    5.7939 C.2       1 RES1    0.0000
     34 O6         6.5138   13.1229    6.2027 O.2       1 RES1    0.0000
     35 C15        4.4703   12.5166    5.1172 C.3       1 RES1    0.0000
     36 H13        3.9727   11.6644    4.9514 H         1 RES1    0.0000
     37 C16        4.7904   13.1956    3.7797 C.3       1 RES1    0.0000
     38 H14        5.3606   13.9870    3.9501 H         1 RES1    0.0000
     39 H15        5.3073   12.5664    3.2169 H         1 RES1    0.0000
     40 C17        3.5626   13.6331    3.0224 C.ar      1 RES1    0.0000
     41 C18        2.8142   12.7182    2.3146 C.ar      1 RES1    0.0000
     42 H16        3.0957   11.8124    2.2674 H         1 RES1    0.0000
     43 C19        1.6461   13.1146    1.6689 C.ar      1 RES1    0.0000
     44 H17        1.1182   12.4763    1.2028 H         1 RES1    0.0000
     45 C20        1.2533   14.4502    1.7103 C.ar      1 RES1    0.0000
     46 H18        0.4637   14.7294    1.2626 H         1 RES1    0.0000
     47 C21        2.0022   15.3484    2.3928 C.ar      1 RES1    0.0000
     48 H19        1.7339   16.2594    2.4216 H         1 RES1    0.0000
     49 C22        3.1532   14.9533    3.0477 C.ar      1 RES1    0.0000
     50 H20        3.6687   15.5954    3.5208 H         1 RES1    0.0000
     51 N3         3.6781   13.3859    5.9594 N.am      1 RES1    0.0000
     52 H21        3.6517   14.2495    5.7905 H         1 RES1    0.0000
     53 C23        2.9841   12.8919    6.9955 C.2       1 RES1    0.0000
     54 O7         2.9567   11.7267    7.3247 O.2       1 RES1    0.0000
     55 O8         2.2871   13.8762    7.5933 O.3       1 RES1    0.0000
     56 C24        1.6554   13.5739    8.8497 C.3       1 RES1    0.0000
     57 H22        1.7234   12.6024    9.0293 H         1 RES1    0.0000
     58 H23        0.6963   13.8133    8.8048 H         1 RES1    0.0000
     59 C25        2.3105   14.3357    9.9604 C.ar      1 RES1    0.0000
     60 C26        1.8049   14.2649   11.2322 C.ar      1 RES1    0.0000
     61 H24        1.0151   13.7631   11.3933 H         1 RES1    0.0000
     62 C27        2.4266   14.9121   12.2842 C.ar      1 RES1    0.0000
     63 H25        2.0615   14.8491   13.1589 H         1 RES1    0.0000
     64 C28        3.5534   15.6314   12.0747 C.ar      1 RES1    0.0000
     65 H26        3.9833   16.0612   12.8056 H         1 RES1    0.0000
     66 C29        4.0749   15.7434   10.8121 C.ar      1 RES1    0.0000
     67 H27        4.8546   16.2658   10.6602 H         1 RES1    0.0000
     68 C30        3.4560   15.0897    9.7578 C.ar      1 RES1    0.0000
     69 H28        3.8227   15.1592    8.8843 H         1 RES1    0.0000
     70 C31        6.5963   12.3103    9.6289 C.3       1 RES1    0.0000
     71 H29        7.4283   12.2949   10.1653 H         1 RES1    0.0000
     72 H30        6.4846   13.2111    9.2364 H         1 RES1    0.0000
     73 C32        5.4233   11.9526   10.4680 C.3       1 RES1    0.0000
     74 H31        5.3334   12.6011   11.1977 H         1 RES1    0.0000
     75 H32        4.6119   11.9655    9.9178 H         1 RES1    0.0000
     76 H33        5.5502   11.0558   10.8420 H         1 RES1    0.0000
     77 C33        6.6187   11.7931    9.9052 Du        2 SUP2    0.0000
     78 H34        7.5019   12.1624   10.1549 Du        2 SUP2    0.0000
     79 H35        6.3625   11.0956   10.5600 Du        2 SUP2    0.0000
     80 C34        5.5700   12.8855    9.8315 Du        2 SUP2    0.0000
     81 H36        5.4818   13.3127   10.7085 Du        2 SUP2    0.0000
     82 H37        5.8409   13.5533    9.1685 Du        2 SUP2    0.0000
     83 H38        4.7097   12.4956    9.5702 Du        2 SUP2    0.0000
@<TRIPOS>BOND
     1    1    2 1
     2    2    3 1
     3    4    2 1
     4    5    2 1
     5    6    5 1
     6    7    5 1
     7    8    5 1
     8    9    1 1
     9   10    8 2
    10   11    9 1
    11   12   11 2
    12   13   11 1
    13   14    9 1
    14   15   14 1
    15   16   14 1
    16   17   16 1
    17   18   16 1
    18   19   16 1
    19   20   19 2
    20   21   19 2
    21   22   14 1
    22   23   22 ar
    23   24   23 1
    24   25   23 ar
    25   26   25 1
    26   27   25 ar
    27   28   27 1
    28   29   27 ar
    29   30   29 1
    30   31   22 ar
    31   32   31 1
    32   33    1 1
    33   34   33 2
    34   35   33 1
    35   36   35 1
    36   37   35 1
    37   38   37 1
    38   39   37 1
    39   40   37 1
    40   41   40 ar
    41   42   41 1
    42   43   41 ar
    43   44   43 1
    44   45   43 ar
    45   46   45 1
    46   47   45 ar
    47   48   47 1
    48   49   40 ar
    49   50   49 1
    50   51   35 1
    51   52   51 1
    52   53   51 1
    53   54   53 2
    54   55   53 1
    55   56   55 1
    56   57   56 1
    57   58   56 1
    58   59   56 1
    59   60   59 ar
    60   61   60 1
    61   62   60 ar
    62   63   62 1
    63   64   62 ar
    64   65   64 1
    65   66   64 ar
    66   67   66 1
    67   68   59 ar
    68   69   68 1
    69   70   13 1
    70   71   70 1
    71   72   70 1
    72   73   70 1
    73   74   73 1
    74   75   73 1
    75   76   73 1
    76    8    9 1
    77   29   31 ar
    78   47   49 ar
    79   66   68 ar
@<TRIPOS>SUBSTRUCTURE
     1 RES1 1
     2 SUP2 77

@<TRIPOS>CRYSIN
  10.0225   12.8675   12.1421  90.0000 108.5750  90.0000   4 1

