# MOL2 file generated by ConQuest
# Please check atom types

@<TRIPOS>MOLECULE
FARNAO
    62    64     1
SMALL
NO_CHARGES
****
Generated from CSD

@<TRIPOS>ATOM
      1 C1         3.9244    9.2459    5.6338 C.3       1 RES1    0.0000
      2 H1         3.0695    9.1362    5.1263 H         1 RES1    0.0000
      3 C2         4.8528   10.0968    4.7665 C.3       1 RES1    0.0000
      4 H2         5.2082    9.5456    4.0246 H         1 RES1    0.0000
      5 H3         4.3402   10.8474    4.3725 H         1 RES1    0.0000
      6 C3         5.9965   10.6428    5.5782 C.3       1 RES1    0.0000
      7 H4         6.5168    9.8901    5.9824 H         1 RES1    0.0000
      8 C4         5.5087   11.5758    6.6652 C.3       1 RES1    0.0000
      9 H5         6.2272   11.7040    7.3330 H         1 RES1    0.0000
     10 H6         5.2980   12.4589    6.2689 H         1 RES1    0.0000
     11 C5         4.2937   11.0330    7.3415 C.2       1 RES1    0.0000
     12 H7         4.0010   11.4640    8.1345 H         1 RES1    0.0000
     13 C6         3.5906    9.9885    6.9108 C.2       1 RES1    0.0000
     14 O1         6.8519   11.4104    4.6798 O.3       1 RES1    0.0000
     15 C7         8.0601   10.9448    4.4104 C.2       1 RES1    0.0000
     16 O2         8.5501    9.9885    4.9452 O.2       1 RES1    0.0000
     17 C8         8.7392   11.7938    3.3374 C.3       1 RES1    0.0000
     18 H8         8.1871   11.7652    2.5035 H         1 RES1    0.0000
     19 O3        10.0341   11.2940    3.0464 O.3       1 RES1    0.0000
     20 C9        10.0052   10.0747    2.2930 C.3       1 RES1    0.0000
     21 H9        10.9228    9.7753    2.1215 H         1 RES1    0.0000
     22 H10        9.5468   10.2281    1.4393 H         1 RES1    0.0000
     23 H11        9.5275    9.3875    2.8036 H         1 RES1    0.0000
     24 C10        8.8406   13.2245    3.8084 C.ar      1 RES1    0.0000
     25 C11        9.4493   13.5197    5.0240 C.ar      1 RES1    0.0000
     26 H12        9.8558   12.8260    5.5287 H         1 RES1    0.0000
     27 C12        9.4655   14.8159    5.5032 C.ar      1 RES1    0.0000
     28 H13        9.8906   15.0098    6.3303 H         1 RES1    0.0000
     29 C13        8.8623   15.8353    4.7777 C.ar      1 RES1    0.0000
     30 H14        8.8600   16.7239    5.1126 H         1 RES1    0.0000
     31 C14        8.2661   15.5511    3.5638 C.ar      1 RES1    0.0000
     32 H15        7.8603   16.2467    3.0594 H         1 RES1    0.0000
     33 C15        8.2591   14.2460    3.0802 C.ar      1 RES1    0.0000
     34 H16        7.8518   14.0553    2.2442 H         1 RES1    0.0000
     35 C16        2.3524    9.5476    7.6144 C.2       1 RES1    0.0000
     36 O4         1.8895    8.4359    7.5342 O.2       1 RES1    0.0000
     37 O5         1.7959   10.5305    8.3361 O.3       1 RES1    0.0000
     38 C17        0.5970   10.1857    9.0626 C.3       1 RES1    0.0000
     39 H17        0.2749   10.9707    9.5534 H         1 RES1    0.0000
     40 H18        0.7945    9.4637    9.6966 H         1 RES1    0.0000
     41 H19       -0.0921    9.8883    8.4313 H         1 RES1    0.0000
     42 C18        4.4958    7.8516    5.8504 C.3       1 RES1    0.0000
     43 H20        5.4335    7.8965    6.1665 H         1 RES1    0.0000
     44 H21        3.9577    7.3449    6.5076 H         1 RES1    0.0000
     45 O6         4.4180    7.2419    4.5332 O.3       1 RES1    0.0000
     46 C19        4.7165    5.9507    4.4271 C.2       1 RES1    0.0000
     47 O7         5.1782    5.2766    5.3057 O.2       1 RES1    0.0000
     48 C20        4.3812    5.4533    3.0580 C.ar      1 RES1    0.0000
     49 C21        3.6433    6.2336    2.1702 C.ar      1 RES1    0.0000
     50 H22        3.3769    7.1152    2.4045 H         1 RES1    0.0000
     51 C22        3.3080    5.7001    0.9451 C.ar      1 RES1    0.0000
     52 C23        3.6588    4.4224    0.5512 C.ar      1 RES1    0.0000
     53 H23        3.3963    4.0635   -0.2899 H         1 RES1    0.0000
     54 C24        4.4145    3.6996    1.4513 C.ar      1 RES1    0.0000
     55 C25        4.7854    4.1736    2.6958 C.ar      1 RES1    0.0000
     56 H24        5.3027    3.6390    3.2879 H         1 RES1    0.0000
     57 N1         2.5569    6.5331   -0.0109 N.pl3     1 RES1    0.0000
     58 O8         2.1875    7.6296    0.3701 O.2       1 RES1    0.0000
     59 O9         2.3563    6.0953   -1.1283 O.2       1 RES1    0.0000
     60 N2         4.8389    2.3502    1.0553 N.pl3     1 RES1    0.0000
     61 O10        4.3766    1.8751    0.0218 O.2       1 RES1    0.0000
     62 O11        5.6459    1.7713    1.7804 O.2       1 RES1    0.0000
@<TRIPOS>BOND
     1    1    2 1
     2    3    1 1
     3    4    3 1
     4    5    3 1
     5    6    3 1
     6    7    6 1
     7    8    6 1
     8    9    8 1
     9   10    8 1
    10   11    8 1
    11   12   11 1
    12   13    1 1
    13   14    6 1
    14   15   14 1
    15   16   15 2
    16   17   15 1
    17   18   17 1
    18   19   17 1
    19   20   19 1
    20   21   20 1
    21   22   20 1
    22   23   20 1
    23   24   17 1
    24   25   24 ar
    25   26   25 1
    26   27   25 ar
    27   28   27 1
    28   29   27 ar
    29   30   29 1
    30   31   29 ar
    31   32   31 1
    32   33   24 ar
    33   34   33 1
    34   35   13 1
    35   36   35 2
    36   37   35 1
    37   38   37 1
    38   39   38 1
    39   40   38 1
    40   41   38 1
    41   42    1 1
    42   43   42 1
    43   44   42 1
    44   45   42 1
    45   46   45 1
    46   47   46 2
    47   48   46 1
    48   49   48 ar
    49   50   49 1
    50   51   49 ar
    51   52   51 ar
    52   53   52 1
    53   54   52 ar
    54   55   48 ar
    55   56   55 1
    56   57   51 1
    57   58   57 2
    58   59   57 2
    59   60   54 1
    60   61   60 2
    61   62   60 2
    62   11   13 2
    63   31   33 ar
    64   54   55 ar
@<TRIPOS>SUBSTRUCTURE
     1 RES1 1

@<TRIPOS>CRYSIN
   7.7434    9.4129   34.1070  90.0000  90.0000  90.0000  19 1

