# MOL2 file generated by ConQuest
# Please check atom types

@<TRIPOS>MOLECULE
FASDEJ
    33    35     1
SMALL
NO_CHARGES
****
Generated from CSD

@<TRIPOS>ATOM
      1 C1         8.5991    3.0220    4.3282 C.ar      1 RES1    0.0000
      2 C2         7.6972    3.6541    3.5182 C.ar      1 RES1    0.0000
      3 C3         7.5128    3.2435    2.1963 C.ar      1 RES1    0.0000
      4 C4         8.2622    2.1968    1.7070 C.ar      1 RES1    0.0000
      5 C5         9.1885    1.5749    2.5228 C.ar      1 RES1    0.0000
      6 C6         9.3575    1.9802    3.8231 C.ar      1 RES1    0.0000
      7 N1         8.0735    1.7424    0.3507 N.pl3     1 RES1    0.0000
      8 C7         8.8353    2.3197   -0.6772 C.2       1 RES1    0.0000
      9 C8         9.9041    3.2804   -0.2243 C.3       1 RES1    0.0000
     10 C9         8.5985    1.9704   -1.9618 C.2       1 RES1    0.0000
     11 C10        9.4634    2.4357   -3.0651 C.2       1 RES1    0.0000
     12 O1        10.2642    3.3284   -3.0453 O.2       1 RES1    0.0000
     13 O2         9.2494    1.7142   -4.1687 O.3       1 RES1    0.0000
     14 C11       10.0645    1.9676   -5.3263 C.3       1 RES1    0.0000
     15 C12        9.3633    2.8169   -6.2895 C.3       1 RES1    0.0000
     16 C13        7.4316    1.0724   -2.3280 C.3       1 RES1    0.0000
     17 C14        7.0645    0.1913   -1.1503 C.2       1 RES1    0.0000
     18 C15        6.3978   -1.0925   -1.4548 C.2       1 RES1    0.0000
     19 O3         6.0394   -1.9400   -0.6676 O.2       1 RES1    0.0000
     20 O4         6.2788   -1.2752   -2.7716 O.3       1 RES1    0.0000
     21 C16        5.7338   -2.5488   -3.1944 C.3       1 RES1    0.0000
     22 C17        5.8019   -2.6140   -4.6479 C.3       1 RES1    0.0000
     23 C18        7.3079    0.5860    0.1220 C.2       1 RES1    0.0000
     24 C19        6.7925   -0.1160    1.3487 C.3       1 RES1    0.0000
     25 C20        6.2366    1.8899   -2.8121 C.ar      1 RES1    0.0000
     26 C21        5.9366    1.9448   -4.1627 C.ar      1 RES1    0.0000
     27 C22        4.8391    2.6909   -4.5688 C.ar      1 RES1    0.0000
     28 N2         4.5279    2.7624   -5.9966 N.pl3     1 RES1    0.0000
     29 O5         3.5618    3.3831   -6.3459 O.2       1 RES1    0.0000
     30 O6         5.2204    2.1491   -6.7986 O.2       1 RES1    0.0000
     31 C23        4.0204    3.3625   -3.6821 C.ar      1 RES1    0.0000
     32 C24        4.3229    3.2923   -2.3422 C.ar      1 RES1    0.0000
     33 C25        5.4279    2.5734   -1.9094 C.ar      1 RES1    0.0000
@<TRIPOS>BOND
     1    1    2 ar
     2    2    3 ar
     3    3    4 ar
     4    4    5 ar
     5    5    6 ar
     6    6    1 ar
     7    7    4 1
     8    8    7 1
     9    9    8 1
    10   10    8 2
    11   11   10 1
    12   12   11 2
    13   13   11 1
    14   14   13 1
    15   15   14 1
    16   16   10 1
    17   17   16 1
    18   18   17 1
    19   19   18 2
    20   20   18 1
    21   21   20 1
    22   22   21 1
    23   23    7 1
    24   24   23 1
    25   25   16 1
    26   26   25 ar
    27   27   26 ar
    28   28   27 1
    29   29   28 2
    30   30   28 2
    31   31   27 ar
    32   32   31 ar
    33   33   25 ar
    34   17   23 2
    35   32   33 ar
@<TRIPOS>SUBSTRUCTURE
     1 RES1 1

@<TRIPOS>CRYSIN
   9.5930   10.0270   13.8990  91.7790 102.6210 114.7110   2 1

