# MOL2 file generated by ConQuest
# Please check atom types

@<TRIPOS>MOLECULE
FASLAN
   110   112     2
SMALL
NO_CHARGES
****
Generated from CSD

@<TRIPOS>ATOM
      1 O1        10.7985    5.4470   17.0627 O.3       1 RES1    0.0000
      2 N1         9.9438    5.4470   18.2505 N.3       1 RES1    0.0000
      3 C1         9.1289    4.1831   18.2094 C.3       1 RES1    0.0000
      4 C2        10.0741    2.9883   18.3904 C.3       1 RES1    0.0000
      5 H1        10.6594    2.9251   17.6305 H         1 RES1    0.0000
      6 H2         9.5597    2.1818   18.4645 H         1 RES1    0.0000
      7 H3        10.5953    3.1102   19.1859 H         1 RES1    0.0000
      8 C3         8.1691    4.2312   19.4246 C.3       1 RES1    0.0000
      9 H4         7.5672    4.9730   19.3286 H         1 RES1    0.0000
     10 H5         8.6787    4.3365   20.2311 H         1 RES1    0.0000
     11 H6         7.6654    3.4157   19.4685 H         1 RES1    0.0000
     12 C4         8.2936    4.0145   16.9393 C.3       1 RES1    0.0000
     13 H7         8.8761    3.9513   16.1794 H         1 RES1    0.0000
     14 H8         7.7131    4.7714   16.8350 H         1 RES1    0.0000
     15 H9         7.7675    3.2140   17.0078 H         1 RES1    0.0000
     16 C5         9.2164    6.7426   18.2971 C.3       1 RES1    0.0000
     17 H10        8.4638    6.6071   18.9089 H         1 RES1    0.0000
     18 C6        10.0916    7.8350   18.9391 C.3       1 RES1    0.0000
     19 H11       10.8539    8.0140   18.3520 H         1 RES1    0.0000
     20 C7        10.6225    7.3851   20.3107 C.3       1 RES1    0.0000
     21 H12       11.1281    6.5755   20.2092 H         1 RES1    0.0000
     22 H13        9.8844    7.2286   20.9032 H         1 RES1    0.0000
     23 H14       11.1875    8.0712   20.6755 H         1 RES1    0.0000
     24 C8         9.2709    9.1290   19.0954 C.3       1 RES1    0.0000
     25 H15        8.9344    9.3999   18.2368 H         1 RES1    0.0000
     26 H16        9.8300    9.8227   19.4520 H         1 RES1    0.0000
     27 H17        8.5348    8.9725   19.6907 H         1 RES1    0.0000
     28 C9         8.6057    7.2557   16.9886 C.ar      1 RES1    0.0000
     29 C10        9.3292    7.7477   15.9106 C.ar      1 RES1    0.0000
     30 H18       10.2578    7.6890   15.9352 H         1 RES1    0.0000
     31 C11        8.7253    8.3255   14.7996 C.ar      1 RES1    0.0000
     32 H19        9.2485    8.6671   14.1138 H         1 RES1    0.0000
     33 C12        7.3552    8.3902   14.7173 C.ar      1 RES1    0.0000
     34 H20        6.9381    8.7288   13.9601 H         1 RES1    0.0000
     35 C13        6.6045    7.9313   15.8063 C.ar      1 RES1    0.0000
     36 H21        5.6778    8.0140   15.7926 H         1 RES1    0.0000
     37 C14        7.2249    7.3565   16.8981 C.ar      1 RES1    0.0000
     38 H22        6.7008    7.0285   17.5921 H         1 RES1    0.0000
     39 C15       12.1881    5.1626   17.3672 C.3       1 RES1    0.0000
     40 H23       12.2289    4.6977   18.2286 H         1 RES1    0.0000
     41 C16       13.0146    6.4371   17.4687 C.3       1 RES1    0.0000
     42 H24       12.6723    6.9848   18.1764 H         1 RES1    0.0000
     43 H25       12.9631    6.9186   16.6375 H         1 RES1    0.0000
     44 H26       13.9296    6.2114   17.6497 H         1 RES1    0.0000
     45 C17       12.7725    4.2402   16.2864 C.ar      1 RES1    0.0000
     46 C18       14.1183    3.8340   16.3412 C.ar      1 RES1    0.0000
     47 H27       14.6803    4.1349   17.0188 H         1 RES1    0.0000
     48 C19       14.5792    2.9868   15.3756 C.ar      1 RES1    0.0000
     49 H28       15.4485    2.6648   15.4470 H         1 RES1    0.0000
     50 C20       13.8256    2.5911   14.3140 C.ar      1 RES1    0.0000
     51 H29       14.1922    2.0554   13.6474 H         1 RES1    0.0000
     52 C21       12.5128    2.9959   14.2400 C.ar      1 RES1    0.0000
     53 H30       11.9877    2.7160   13.5240 H         1 RES1    0.0000
     54 C22       11.9634    3.8069   15.2028 C.ar      1 RES1    0.0000
     55 H31       11.0737    4.0702   15.1452 H         1 RES1    0.0000
     56 O2        13.5251    5.8066   24.1127 O.3       2 RES2    0.0000
     57 N2        14.3643    5.8112   22.9030 N.3       2 RES2    0.0000
     58 C23       15.1840    7.0691   22.9386 C.3       2 RES2    0.0000
     59 C24       16.1078    7.0390   21.6932 C.3       2 RES2    0.0000
     60 H32       16.7408    6.3227   21.7810 H         2 RES2    0.0000
     61 H33       16.5755    7.8741   21.6219 H         2 RES2    0.0000
     62 H34       15.5778    6.9006   20.9059 H         2 RES2    0.0000
     63 C25       14.2214    8.2292   22.7768 C.3       2 RES2    0.0000
     64 H35       13.6447    8.2759   23.5421 H         2 RES2    0.0000
     65 H36       13.6924    8.0983   21.9840 H         2 RES2    0.0000
     66 H37       14.7163    9.0478   22.6972 H         2 RES2    0.0000
     67 C26       16.0008    7.2647   24.2170 C.3       2 RES2    0.0000
     68 H38       15.4125    7.2677   24.9768 H         2 RES2    0.0000
     69 H39       16.4695    8.1013   24.1731 H         2 RES2    0.0000
     70 H40       16.6339    6.5485   24.3075 H         2 RES2    0.0000
     71 C27       15.1305    4.5291   22.9002 C.3       2 RES2    0.0000
     72 H41       15.8676    4.6721   22.2720 H         2 RES2    0.0000
     73 C28       14.2787    3.4232   22.2748 C.3       2 RES2    0.0000
     74 H42       13.5096    3.2637   22.8618 H         2 RES2    0.0000
     75 C29       15.0664    2.1051   22.1596 C.3       2 RES2    0.0000
     76 H43       15.3834    1.8448   23.0264 H         2 RES2    0.0000
     77 H44       15.8132    2.2300   21.5698 H         2 RES2    0.0000
     78 H45       14.4936    1.4189   21.8084 H         2 RES2    0.0000
     79 C30       13.7497    3.7903   20.9032 C.3       2 RES2    0.0000
     80 H46       13.2042    4.5773   20.9690 H         2 RES2    0.0000
     81 H47       13.2246    3.0651   20.5575 H         2 RES2    0.0000
     82 H48       14.4868    3.9604   20.3107 H         2 RES2    0.0000
     83 C31       15.8034    4.0732   24.2170 C.ar      2 RES2    0.0000
     84 C32       15.0537    3.6700   25.2950 C.ar      2 RES2    0.0000
     85 H49       14.1270    3.7362   25.2484 H         2 RES2    0.0000
     86 C33       15.6449    3.1599   26.4691 C.ar      2 RES2    0.0000
     87 H50       15.1315    2.8785   27.1933 H         2 RES2    0.0000
     88 C34       17.0267    3.0982   26.4911 C.ar      2 RES2    0.0000
     89 H51       17.4478    2.7641   27.2509 H         2 RES2    0.0000
     90 C35       17.7794    3.4984   25.4596 C.ar      2 RES2    0.0000
     91 H52       18.7061    3.4744   25.5255 H         2 RES2    0.0000
     92 C36       17.1833    3.9483   24.2993 C.ar      2 RES2    0.0000
     93 H53       17.7123    4.1710   23.5668 H         2 RES2    0.0000
     94 C37       12.1462    6.0865   23.8027 C.3       2 RES2    0.0000
     95 H54       12.0967    6.5816   22.9578 H         2 RES2    0.0000
     96 C38       11.3810    4.7865   23.6683 C.3       2 RES2    0.0000
     97 H55       11.7437    4.2764   22.9414 H         2 RES2    0.0000
     98 H56       10.4562    4.9760   23.4955 H         2 RES2    0.0000
     99 H57       11.4578    4.2839   24.4831 H         2 RES2    0.0000
    100 C39       11.6036    6.9427   24.9165 C.ar      2 RES2    0.0000
    101 C40       10.3006    7.3986   24.8561 C.ar      2 RES2    0.0000
    102 H58        9.7950    7.1970   24.1018 H         2 RES2    0.0000
    103 C41        9.7094    8.1389   25.8656 C.ar      2 RES2    0.0000
    104 H59        8.8070    8.3616   25.8217 H         2 RES2    0.0000
    105 C42       10.4776    8.5377   26.9327 C.ar      2 RES2    0.0000
    106 H60       10.1062    9.0703   27.5993 H         2 RES2    0.0000
    107 C43       11.7942    8.1480   27.0178 C.ar      2 RES2    0.0000
    108 H61       12.3213    8.4173   27.7365 H         2 RES2    0.0000
    109 C44       12.3320    7.3324   25.9973 C.ar      2 RES2    0.0000
    110 H62       13.2159    7.0525   26.0659 H         2 RES2    0.0000
@<TRIPOS>BOND
     1    1    2 1
     2    2    3 1
     3    3    4 1
     4    4    5 1
     5    6    4 1
     6    7    4 1
     7    8    3 1
     8    9    8 1
     9   10    8 1
    10   11    8 1
    11   12    3 1
    12   13   12 1
    13   14   12 1
    14   15   12 1
    15   16    2 1
    16   17   16 1
    17   18   16 1
    18   19   18 1
    19   20   18 1
    20   21   20 1
    21   22   20 1
    22   23   20 1
    23   24   18 1
    24   25   24 1
    25   26   24 1
    26   27   24 1
    27   28   16 1
    28   29   28 ar
    29   30   29 1
    30   31   29 ar
    31   32   31 1
    32   33   31 ar
    33   34   33 1
    34   35   33 ar
    35   36   35 1
    36   37   28 ar
    37   38   37 1
    38   39    1 1
    39   40   39 1
    40   41   39 1
    41   42   41 1
    42   43   41 1
    43   44   41 1
    44   45   39 1
    45   46   45 ar
    46   47   46 1
    47   48   46 ar
    48   49   48 1
    49   50   48 ar
    50   51   50 1
    51   52   50 ar
    52   53   52 1
    53   54   45 ar
    54   55   54 1
    55   56   57 1
    56   57   58 1
    57   58   59 1
    58   59   60 1
    59   61   59 1
    60   62   59 1
    61   63   58 1
    62   64   63 1
    63   65   63 1
    64   66   63 1
    65   67   58 1
    66   68   67 1
    67   69   67 1
    68   70   67 1
    69   71   57 1
    70   72   71 1
    71   73   71 1
    72   74   73 1
    73   75   73 1
    74   76   75 1
    75   77   75 1
    76   78   75 1
    77   79   73 1
    78   80   79 1
    79   81   79 1
    80   82   79 1
    81   83   71 1
    82   84   83 ar
    83   85   84 1
    84   86   84 ar
    85   87   86 1
    86   88   86 ar
    87   89   88 1
    88   90   88 ar
    89   91   90 1
    90   92   83 ar
    91   93   92 1
    92   94   56 1
    93   95   94 1
    94   96   94 1
    95   97   96 1
    96   98   96 1
    97   99   96 1
    98  100   94 1
    99  101  100 ar
   100  102  101 1
   101  103  101 ar
   102  104  103 1
   103  105  103 ar
   104  106  105 1
   105  107  105 ar
   106  108  107 1
   107  109  100 ar
   108  110  109 1
   109   35   37 ar
   110   52   54 ar
   111   90   92 ar
   112  107  109 ar
@<TRIPOS>SUBSTRUCTURE
     1 RES1 1
     2 RES2 56

@<TRIPOS>CRYSIN
   9.7240   15.0470   27.4320  90.0000  90.0000  90.0000  19 1

