# MOL2 file generated by ConQuest
# Please check atom types

@<TRIPOS>MOLECULE
FASNOF
    79    83     1
SMALL
NO_CHARGES
****
Generated from CSD

@<TRIPOS>ATOM
      1 C1        11.6757    3.8655    9.4478 C.ar      1 RES1    0.0000
      2 C2        10.5147    4.5281    9.7367 C.ar      1 RES1    0.0000
      3 H1         9.7300    4.0476    9.8709 H         1 RES1    0.0000
      4 C3        10.5023    5.9007    9.8313 C.ar      1 RES1    0.0000
      5 H2         9.7113    6.3486   10.0274 H         1 RES1    0.0000
      6 C4        11.6828    6.6179    9.6328 C.ar      1 RES1    0.0000
      7 C5        12.8553    5.9201    9.3539 C.ar      1 RES1    0.0000
      8 H3        13.6525    6.3861    9.2380 H         1 RES1    0.0000
      9 C6        12.8491    4.5437    9.2483 C.ar      1 RES1    0.0000
     10 H4        13.6301    4.0837    9.0442 H         1 RES1    0.0000
     11 C7        10.7347    8.8982    9.8780 C.2       1 RES1    0.0000
     12 C8         9.6356   11.5551   10.9311 C.3       1 RES1    0.0000
     13 C9        10.0639   11.2383    9.5052 C.3       1 RES1    0.0000
     14 C10        8.8518   10.8635    8.6481 C.2       1 RES1    0.0000
     15 C11        8.0819    9.6159    6.6509 C.3       1 RES1    0.0000
     16 H5         7.9928   10.3129    5.9826 H         1 RES1    0.0000
     17 H6         7.2192    9.4972    7.0778 H         1 RES1    0.0000
     18 C12        8.4996    8.2991    5.9643 C.3       1 RES1    0.0000
     19 C13        7.3943    7.9785    4.9315 C.3       1 RES1    0.0000
     20 H7         6.5301    8.0591    5.3657 H         1 RES1    0.0000
     21 H8         7.4303    8.6399    4.2225 H         1 RES1    0.0000
     22 C14        7.4986    6.5973    4.3132 C.3       1 RES1    0.0000
     23 H9         8.2859    6.5598    3.7478 H         1 RES1    0.0000
     24 H10        6.7213    6.4389    3.7549 H         1 RES1    0.0000
     25 C15        7.5880    5.4983    5.3744 C.3       1 RES1    0.0000
     26 H11        6.7462    5.4427    5.8528 H         1 RES1    0.0000
     27 H12        7.7470    4.6451    4.9426 H         1 RES1    0.0000
     28 C16        8.7118    5.7882    6.3565 C.3       1 RES1    0.0000
     29 H13        9.5623    5.7484    5.8937 H         1 RES1    0.0000
     30 H14        8.7155    5.1106    7.0512 H         1 RES1    0.0000
     31 C17       10.7223   12.5079    8.8932 C.3       1 RES1    0.0000
     32 H15       10.0379   13.1919    8.8273 H         1 RES1    0.0000
     33 H16       11.3864   12.8293    9.5242 H         1 RES1    0.0000
     34 C18        8.5429    7.1640    6.9905 C.3       1 RES1    0.0000
     35 H17        9.2792    7.3213    7.6023 H         1 RES1    0.0000
     36 H18        7.7221    7.1740    7.5063 H         1 RES1    0.0000
     37 C19        9.8821    8.4980    5.3296 C.ar      1 RES1    0.0000
     38 C20       11.3818   12.3942    7.5580 C.2       1 RES1    0.0000
     39 C21       12.7249   12.2509    7.3724 C.2       1 RES1    0.0000
     40 H19       13.3508   12.1748    8.0557 H         1 RES1    0.0000
     41 C22       10.1236    8.6413    3.9990 C.ar      1 RES1    0.0000
     42 H20        9.4208    8.5899    3.3922 H         1 RES1    0.0000
     43 C23       11.4311    8.8664    3.5375 C.ar      1 RES1    0.0000
     44 H21       11.6049    8.9484    2.6277 H         1 RES1    0.0000
     45 C24       11.8570   12.3825    5.3202 C.ar      1 RES1    0.0000
     46 C25       11.6484   12.4583    3.9558 C.ar      1 RES1    0.0000
     47 H22       12.3562   12.3804    3.3585 H         1 RES1    0.0000
     48 C26       10.3694   12.6528    3.5131 C.ar      1 RES1    0.0000
     49 H23       10.2093   12.6986    2.5993 H         1 RES1    0.0000
     50 C27        9.3041   12.7834    4.3967 C.ar      1 RES1    0.0000
     51 H24        8.4485   12.9279    4.0625 H         1 RES1    0.0000
     52 C28        9.4965   12.7024    5.7632 C.ar      1 RES1    0.0000
     53 H25        8.7801   12.7862    6.3489 H         1 RES1    0.0000
     54 C29       10.7994   12.4906    6.2500 C.ar      1 RES1    0.0000
     55 C30       12.4369    8.9637    4.4472 C.ar      1 RES1    0.0000
     56 C31       12.1327    8.8162    5.7693 C.ar      1 RES1    0.0000
     57 H26       12.8206    8.8900    6.3916 H         1 RES1    0.0000
     58 C32       14.1517    9.2555    2.8281 C.3       1 RES1    0.0000
     59 H27       15.0953    9.4180    2.7753 H         1 RES1    0.0000
     60 H28       13.6786    9.9558    2.3717 H         1 RES1    0.0000
     61 H29       13.9480    8.4120    2.4162 H         1 RES1    0.0000
     62 N1        11.7678    7.9973    9.6874 N.am      1 RES1    0.0000
     63 N2        11.6683    2.4084    9.3182 N.pl3     1 RES1    0.0000
     64 N3        11.0521   10.1563    9.4949 N.am      1 RES1    0.0000
     65 N4         9.0659   10.0268    7.6523 N.am      1 RES1    0.0000
     66 N5        10.9060    8.5729    6.2143 N.ar      1 RES1    0.0000
     67 N6        13.0167   12.2365    6.0473 N.pl3     1 RES1    0.0000
     68 O1        12.7001    1.8494    8.9571 O.2       1 RES1    0.0000
     69 O2        10.6116    1.8321    9.5455 O.2       1 RES1    0.0000
     70 O3         9.6444    8.5882   10.3412 O.2       1 RES1    0.0000
     71 O4         7.7509   11.3940    8.8771 O.2       1 RES1    0.0000
     72 O5        13.7599    9.2261    4.1647 O.3       1 RES1    0.0000
     73 H30       12.5449    8.3648    9.4122 H         1 RES1    0.0000
     74 H31        9.8839    9.7432    7.5098 H         1 RES1    0.0000
     75 H32       11.7775   10.3073    9.0904 H         1 RES1    0.0000
     76 H33       13.8077   12.1581    5.6999 H         1 RES1    0.0000
     77 H34        9.0644   12.3249   10.8967 H         1 RES1    0.0000
     78 H35        9.0892   10.8103   11.3697 H         1 RES1    0.0000
     79 H36       10.4179   11.7927   11.4728 H         1 RES1    0.0000
@<TRIPOS>BOND
     1    1    2 ar
     2    2    3 1
     3    4    2 ar
     4    5    4 1
     5    6    4 ar
     6    7    6 ar
     7    8    7 1
     8    9    1 ar
     9   10    9 1
    10   11   62 1
    11   12   13 1
    12   13   14 1
    13   14   65 1
    14   15   16 1
    15   17   15 1
    16   18   15 1
    17   19   18 1
    18   20   19 1
    19   21   19 1
    20   22   19 1
    21   23   22 1
    22   24   22 1
    23   25   22 1
    24   26   25 1
    25   27   25 1
    26   28   25 1
    27   29   28 1
    28   30   28 1
    29   31   13 1
    30   32   31 1
    31   33   31 1
    32   34   18 1
    33   35   34 1
    34   36   34 1
    35   37   18 1
    36   38   31 1
    37   39   38 2
    38   40   39 1
    39   41   37 ar
    40   42   41 1
    41   43   41 ar
    42   44   43 1
    43   45   46 ar
    44   46   47 1
    45   48   46 ar
    46   49   48 1
    47   50   48 ar
    48   51   50 1
    49   52   50 ar
    50   53   52 1
    51   54   38 1
    52   55   43 ar
    53   56   55 ar
    54   57   56 1
    55   58   59 1
    56   60   58 1
    57   61   58 1
    58   62    6 1
    59   63    1 1
    60   64   11 1
    61   65   15 1
    62   66   37 ar
    63   67   39 1
    64   68   63 2
    65   69   63 2
    66   70   11 2
    67   71   14 2
    68   72   55 1
    69   73   62 1
    70   74   65 1
    71   75   64 1
    72   76   67 1
    73   77   12 1
    74   78   12 1
    75   79   12 1
    76    7    9 ar
    77   13   64 1
    78   28   34 1
    79   45   54 ar
    80   45   67 1
    81   52   54 ar
    82   56   66 ar
    83   58   72 1
@<TRIPOS>SUBSTRUCTURE
     1 RES1 1

@<TRIPOS>CRYSIN
  12.4170   13.8950   17.7790  90.0000  90.0000  90.0000  19 1

