# MOL2 file generated by ConQuest
# Please check atom types

@<TRIPOS>MOLECULE
FASXAA
    44    45     1
SMALL
NO_CHARGES
****
Generated from CSD

@<TRIPOS>ATOM
      1 N1         0.4487    4.5344    6.3926 N.2       1 RES1    0.0000
      2 N2         7.6019    7.6637    6.3506 N.2       1 RES1    0.0000
      3 O1         3.4835    3.9670    3.8918 O.3       1 RES1    0.0000
      4 O2         5.5105    5.9574    3.4670 O.3       1 RES1    0.0000
      5 O3         0.2881    5.8946    6.6393 O.3       1 RES1    0.0000
      6 O4         7.8361    6.7812    7.4131 O.3       1 RES1    0.0000
      7 C1         4.5499    3.8609    2.9593 C.3       1 RES1    0.0000
      8 H1         4.2951    3.2738    2.2305 H         1 RES1    0.0000
      9 H2         5.3334    3.4886    3.3923 H         1 RES1    0.0000
     10 C2         4.8535    5.2169    2.4383 C.3       1 RES1    0.0000
     11 H3         5.4263    5.1524    1.6583 H         1 RES1    0.0000
     12 H4         4.0338    5.6643    2.1783 H         1 RES1    0.0000
     13 C3         1.3864    4.3393    5.5747 C.2       1 RES1    0.0000
     14 H5         1.8372    5.0724    5.2195 H         1 RES1    0.0000
     15 C4         1.7851    3.0052    5.1704 C.ar      1 RES1    0.0000
     16 C5         2.8720    2.8232    4.3187 C.ar      1 RES1    0.0000
     17 C6         3.2871    1.5536    3.9481 C.ar      1 RES1    0.0000
     18 H6         4.0281    1.4426    3.3964 H         1 RES1    0.0000
     19 C7         2.5950    0.4670    4.4026 C.ar      1 RES1    0.0000
     20 H7         2.8645   -0.3854    4.1477 H         1 RES1    0.0000
     21 C8         1.5085    0.6099    5.2307 C.ar      1 RES1    0.0000
     22 H8         1.0395   -0.1363    5.5256 H         1 RES1    0.0000
     23 C9         1.1239    1.8721    5.6156 C.ar      1 RES1    0.0000
     24 H9         0.3999    1.9684    6.1919 H         1 RES1    0.0000
     25 C10       -0.7757    6.0872    7.5462 C.3       1 RES1    0.0000
     26 H10       -1.5886    5.7525    7.1603 H         1 RES1    0.0000
     27 H11       -0.8736    7.0237    7.7325 H         1 RES1    0.0000
     28 H12       -0.5905    5.6153    8.3610 H         1 RES1    0.0000
     29 C11        7.1031    7.0588    5.3597 C.2       1 RES1    0.0000
     30 H13        6.8949    6.1550    5.4314 H         1 RES1    0.0000
     31 C12        6.8514    7.7495    4.1150 C.ar      1 RES1    0.0000
     32 C13        6.0583    7.1625    3.1282 C.ar      1 RES1    0.0000
     33 C14        5.8615    7.7911    1.9173 C.ar      1 RES1    0.0000
     34 H14        5.3207    7.3976    1.2713 H         1 RES1    0.0000
     35 C15        6.4638    8.9961    1.6634 C.ar      1 RES1    0.0000
     36 H15        6.3353    9.4101    0.8404 H         1 RES1    0.0000
     37 C16        7.2515    9.5995    2.6072 C.ar      1 RES1    0.0000
     38 H16        7.6512   10.4208    2.4321 H         1 RES1    0.0000
     39 C17        7.4439    8.9741    3.8161 C.ar      1 RES1    0.0000
     40 H17        7.9860    9.3807    4.4528 H         1 RES1    0.0000
     41 C18        8.2357    7.4898    8.5637 C.3       1 RES1    0.0000
     42 H18        8.8954    8.1462    8.3231 H         1 RES1    0.0000
     43 H19        8.6121    6.8792    9.2024 H         1 RES1    0.0000
     44 H20        7.4751    7.9283    8.9506 H         1 RES1    0.0000
@<TRIPOS>BOND
     1    1    5 1
     2    2    6 1
     3    3    7 1
     4    4   10 1
     5    5   25 1
     6    6   41 1
     7    7    8 1
     8    9    7 1
     9   10    7 1
    10   11   10 1
    11   12   10 1
    12   13    1 2
    13   14   13 1
    14   15   13 1
    15   16    3 1
    16   17   16 ar
    17   18   17 1
    18   19   17 ar
    19   20   19 1
    20   21   19 ar
    21   22   21 1
    22   23   15 ar
    23   24   23 1
    24   25   26 1
    25   27   25 1
    26   28   25 1
    27   29    2 2
    28   30   29 1
    29   31   29 1
    30   32    4 1
    31   33   32 ar
    32   34   33 1
    33   35   33 ar
    34   36   35 1
    35   37   35 ar
    36   38   37 1
    37   39   31 ar
    38   40   39 1
    39   41   42 1
    40   43   41 1
    41   44   41 1
    42   15   16 ar
    43   21   23 ar
    44   31   32 ar
    45   37   39 ar
@<TRIPOS>SUBSTRUCTURE
     1 RES1 1

@<TRIPOS>CRYSIN
  20.6740    8.1642   10.4029  90.0000 100.2680  90.0000  14 1

