# MOL2 file generated by ConQuest
# Please check atom types

@<TRIPOS>MOLECULE
FATBEI
    34    36     1
SMALL
NO_CHARGES
****
Generated from CSD

@<TRIPOS>ATOM
      1 O1         6.6527    0.1893   20.3390 O.2       1 RES1    0.0000
      2 O2         8.6295    2.4530   12.3714 O.2       1 RES1    0.0000
      3 O3         9.8210    0.9999   13.4435 O.2       1 RES1    0.0000
      4 N1         7.5511    0.5829   17.9805 N.pl3     1 RES1    0.0000
      5 H1         6.8673    0.5519   18.8435 H         1 RES1    0.0000
      6 N2         8.8461    1.7444   13.3540 N.pl3     1 RES1    0.0000
      7 C1         8.7805   -0.6494   19.6326 C.2       1 RES1    0.0000
      8 C2         7.7545   -0.4266   20.6162 C.2       1 RES1    0.0000
      9 C3         7.9822   -0.8984   21.9653 C.2       1 RES1    0.0000
     10 H2         7.3317   -0.7538   22.6130 H         1 RES1    0.0000
     11 C4         9.1171   -1.5430   22.3029 C.2       1 RES1    0.0000
     12 H3         9.2329   -1.8157   23.1836 H         1 RES1    0.0000
     13 C5        10.1539   -1.8229   21.3505 C.ar      1 RES1    0.0000
     14 C6        11.3164   -2.5227   21.7236 C.ar      1 RES1    0.0000
     15 H4        11.4259   -2.7866   22.6091 H         1 RES1    0.0000
     16 C7        12.2933   -2.8236   20.8024 C.ar      1 RES1    0.0000
     17 H5        13.0648   -3.2740   21.0625 H         1 RES1    0.0000
     18 C8        12.1111   -2.4429   19.4685 C.ar      1 RES1    0.0000
     19 H6        12.7589   -2.6617   18.8397 H         1 RES1    0.0000
     20 C9        10.9899   -1.7512   19.0716 C.ar      1 RES1    0.0000
     21 H7        10.8932   -1.5131   18.1788 H         1 RES1    0.0000
     22 C10        9.9840   -1.3951   19.9974 C.ar      1 RES1    0.0000
     23 C11        8.6290   -0.0927   18.3484 C.2       1 RES1    0.0000
     24 H8         9.3153   -0.2038   17.7311 H         1 RES1    0.0000
     25 C12        7.3260    1.2025   16.7344 C.ar      1 RES1    0.0000
     26 C13        8.2315    1.1578   15.6694 C.ar      1 RES1    0.0000
     27 H9         9.0446    0.7155   15.7561 H         1 RES1    0.0000
     28 C14        7.8885    1.7899   14.4790 C.ar      1 RES1    0.0000
     29 C15        6.6955    2.4587   14.2896 C.ar      1 RES1    0.0000
     30 H10        6.4924    2.8668   13.4794 H         1 RES1    0.0000
     31 C16        5.8090    2.4981   15.3603 C.ar      1 RES1    0.0000
     32 H11        4.9972    2.9425   15.2662 H         1 RES1    0.0000
     33 C17        6.1164    1.8858   16.5632 C.ar      1 RES1    0.0000
     34 H12        5.5102    1.9289   17.2681 H         1 RES1    0.0000
@<TRIPOS>BOND
     1    1    8 2
     2    2    6 2
     3    3    6 2
     4    4    5 1
     5    6   28 1
     6    7    8 1
     7    8    9 1
     8    9   10 1
     9   11    9 2
    10   12   11 1
    11   13   11 1
    12   14   13 ar
    13   15   14 1
    14   16   14 ar
    15   17   16 1
    16   18   16 ar
    17   19   18 1
    18   20   18 ar
    19   21   20 1
    20   22    7 1
    21   23    4 1
    22   24   23 1
    23   25    4 1
    24   26   25 ar
    25   27   26 1
    26   28   26 ar
    27   29   28 ar
    28   30   29 1
    29   31   29 ar
    30   32   31 1
    31   33   25 ar
    32   34   33 1
    33    7   23 2
    34   13   22 ar
    35   20   22 ar
    36   31   33 ar
@<TRIPOS>SUBSTRUCTURE
     1 RES1 1

@<TRIPOS>CRYSIN
  17.0209    4.0286   19.4789  90.0000  99.4887  90.0000 231 1

