# MOL2 file generated by ConQuest
# Please check atom types

@<TRIPOS>MOLECULE
FATFUB
    60    64     4
SMALL
USER_CHARGES
****
Generated from CSD

@<TRIPOS>ATOM
      1 C1        -0.0509    4.9008    0.3629 C.2       1 RES1    0.0000
      2 C2        -0.1765    5.3005    1.6443 C.2       1 RES1    0.0000
      3 C3         0.9902    5.1839    2.5796 C.3       1 RES1    0.0000
      4 C4         0.9936    3.8670    3.3721 C.3       1 RES1    0.0000
      5 C5         3.5215    5.4989    2.3976 C.3       1 RES1    0.0000
      6 C6        -1.1196    4.9646   -0.6401 C.ar      1 RES1    0.0000
      7 C7        -1.2009    4.0404   -1.6993 C.ar      1 RES1    0.0000
      8 C8        -2.2015    4.1351   -2.6304 C.ar      1 RES1    0.0000
      9 C9        -3.1626    5.0942   -2.5637 C.ar      1 RES1    0.0000
     10 C10       -3.1127    6.0422   -1.5427 C.ar      1 RES1    0.0000
     11 C11       -2.1036    5.9515   -0.5661 C.ar      1 RES1    0.0000
     12 N1         2.2032    5.3723    1.7194 N.3       1 RES1    0.0000
     13 N2         2.2092    4.6027    0.5544 N.pl3     1 RES1    1.0000
     14 N3         1.1508    4.3565   -0.1259 N.2       1 RES1    0.0000
     15 O1         3.3551    4.2508    0.1397 O.2       1 RES1   -1.0000
     16 C12       -1.3764    6.2865    5.7158 C.2       2 RES2    0.0000
     17 C13       -1.5061    5.9096    6.9812 C.2       2 RES2    0.0000
     18 C14       -0.3359    6.0043    7.9039 C.3       2 RES2    0.0000
     19 C15       -0.3348    7.2744    8.7355 C.3       2 RES2    0.0000
     20 C16        2.2010    5.7043    7.7166 C.3       2 RES2    0.0000
     21 C17       -2.4678    6.2735    4.7190 C.ar      2 RES2    0.0000
     22 C18       -2.5152    7.2205    3.6811 C.ar      2 RES2    0.0000
     23 C19       -3.5515    7.1707    2.7203 C.ar      2 RES2    0.0000
     24 C20       -4.5309    6.1559    2.7849 C.ar      2 RES2    0.0000
     25 C21       -4.4754    5.2577    3.7625 C.ar      2 RES2    0.0000
     26 C22       -3.4461    5.2666    4.7339 C.ar      2 RES2    0.0000
     27 N4         0.8690    5.8518    7.0500 N.3       2 RES2    0.0000
     28 N5         0.8710    6.5775    5.8925 N.pl3     2 RES2    1.0000
     29 N6        -0.1797    6.8328    5.2142 N.2       2 RES2    0.0000
     30 O2         2.0000    6.9504    5.4629 O.2       2 RES2   -1.0000
     31 C23       11.0031    4.0075   -0.3365 C.2       3 RES3    0.0000
     32 C24       11.5536    3.6905   -1.5120 C.2       3 RES3    0.0000
     33 C25       13.0233    3.8032   -1.7035 C.3       3 RES3    0.0000
     34 C26       13.4386    5.1041   -2.3373 C.3       3 RES3    0.0000
     35 C27       15.0838    3.3406   -0.2740 C.3       3 RES3    0.0000
     36 C28        9.5406    4.0125   -0.0487 C.ar      3 RES3    0.0000
     37 C29        8.9912    4.9277    0.8623 C.ar      3 RES3    0.0000
     38 C30        7.6341    4.9297    1.1163 C.ar      3 RES3    0.0000
     39 C31        6.7646    4.0105    0.4634 C.ar      3 RES3    0.0000
     40 C32        7.3019    3.1223   -0.4338 C.ar      3 RES3    0.0000
     41 C33        8.7276    3.0525   -0.7322 C.ar      3 RES3    0.0000
     42 N7        13.6342    3.5270   -0.3555 N.3       3 RES3    0.0000
     43 N8        13.0338    4.1910    0.6888 N.pl3     3 RES3    1.0000
     44 N9        11.7724    4.4601    0.7375 N.2       3 RES3    0.0000
     45 O3        13.7735    4.4163    1.6644 O.2       3 RES3   -1.0000
     46 C34        8.9396    7.4857    5.5761 C.2       4 RES4    0.0000
     47 C35        8.4246    7.9104    6.7442 C.2       4 RES4    0.0000
     48 C36        6.9530    7.7768    6.9960 C.3       4 RES4    0.0000
     49 C37        6.6059    6.4549    7.7631 C.3       4 RES4    0.0000
     50 C38        4.8071    8.0231    5.6343 C.3       4 RES4    0.0000
     51 C39       10.3753    7.5246    5.2407 C.ar      4 RES4    0.0000
     52 C40       11.1938    8.4806    5.7507 C.ar      4 RES4    0.0000
     53 C41       12.6116    8.5195    5.4428 C.ar      4 RES4    0.0000
     54 C42       13.1275    7.5346    4.6471 C.ar      4 RES4    0.0000
     55 C43       12.2954    6.5626    4.0567 C.ar      4 RES4    0.0000
     56 C44       10.9262    6.5546    4.3551 C.ar      4 RES4    0.0000
     57 N10        6.3094    7.9114    5.6607 N.3       4 RES4    0.0000
     58 N11        6.8517    7.1458    4.6609 N.pl3     4 RES4    1.0000
     59 N12        8.1294    6.8966    4.5677 N.2       4 RES4    0.0000
     60 O4         6.0837    6.7231    3.7583 O.2       4 RES4   -1.0000
@<TRIPOS>BOND
     1    1    2 2
     2    2    3 1
     3    3    4 1
     4    5   12 1
     5    6    1 1
     6    7    6 ar
     7    8    7 ar
     8    9    8 ar
     9   10    9 ar
    10   11    6 ar
    11   12    3 1
    12   13   12 1
    13   14    1 1
    14   15   13 1
    15   16   17 2
    16   17   18 1
    17   18   19 1
    18   20   27 1
    19   21   16 1
    20   22   21 ar
    21   23   22 ar
    22   24   23 ar
    23   25   24 ar
    24   26   21 ar
    25   27   18 1
    26   28   27 1
    27   29   16 1
    28   30   28 1
    29   31   32 2
    30   32   33 1
    31   33   34 1
    32   35   42 1
    33   36   31 1
    34   37   36 ar
    35   38   37 ar
    36   39   38 ar
    37   40   39 ar
    38   41   36 ar
    39   42   33 1
    40   43   42 1
    41   44   31 1
    42   45   43 1
    43   46   47 2
    44   47   48 1
    45   48   49 1
    46   50   57 1
    47   51   46 1
    48   52   51 ar
    49   53   52 ar
    50   54   53 ar
    51   55   54 ar
    52   56   51 ar
    53   57   48 1
    54   58   57 1
    55   59   46 1
    56   60   58 1
    57   10   11 ar
    58   13   14 2
    59   25   26 ar
    60   28   29 2
    61   40   41 ar
    62   43   44 2
    63   55   56 ar
    64   58   59 2
@<TRIPOS>SUBSTRUCTURE
     1 RES1 1
     2 RES2 16
     3 RES3 31
     4 RES4 46

@<TRIPOS>CRYSIN
  20.9070    9.9690   10.9670  90.0000 105.2500  90.0000   4 1

