# MOL2 file generated by ConQuest
# Please check atom types

@<TRIPOS>MOLECULE
FATSIF
   100   104     2
SMALL
NO_CHARGES
****
Generated from CSD

@<TRIPOS>ATOM
      1 N1         6.4981   -0.0547    6.3870 N.2       1 RES1    0.0000
      2 O1         8.5650    0.0142    5.2532 O.3       1 RES1    0.0000
      3 C1         6.3911   -1.4580    6.4774 C.ar      1 RES1    0.0000
      4 O2         3.6416    5.6539    9.1726 O.2       1 RES1    0.0000
      5 C2         5.1414    3.6780    8.0480 C.ar      1 RES1    0.0000
      6 H1         4.7593    3.5090    8.8786 H         1 RES1    0.0000
      7 C3         8.5547    2.2909    4.8441 C.2       1 RES1    0.0000
      8 C4         4.9170    4.8656    7.4037 C.ar      1 RES1    0.0000
      9 C5         6.5301    2.9834    6.2053 C.ar      1 RES1    0.0000
     10 N2         5.5322   -5.5772    6.7560 N.3       1 RES1    0.0000
     11 C6         7.4301    0.5748    5.8277 C.2       1 RES1    0.0000
     12 C7         4.8764   -3.2689    7.0500 C.ar      1 RES1    0.0000
     13 H2         4.0429   -3.5401    7.3612 H         1 RES1    0.0000
     14 C8         5.8295   -4.2273    6.6810 C.ar      1 RES1    0.0000
     15 C9         5.9492    2.7349    7.4369 C.ar      1 RES1    0.0000
     16 H3         6.1037    1.9219    7.8604 H         1 RES1    0.0000
     17 O3        10.0356    1.4604    2.3923 O.2       1 RES1    0.0000
     18 C10        5.4395    5.1318    6.1741 C.ar      1 RES1    0.0000
     19 H4         5.2566    5.9388    5.7472 H         1 RES1    0.0000
     20 C11        7.3361   -2.4159    6.1201 C.ar      1 RES1    0.0000
     21 H5         8.1691   -2.1445    5.8061 H         1 RES1    0.0000
     22 C12        7.4871    2.0327    5.6105 C.2       1 RES1    0.0000
     23 C13        5.1720   -1.9190    6.9531 C.ar      1 RES1    0.0000
     24 H6         4.5303   -1.2996    7.2155 H         1 RES1    0.0000
     25 C14        6.2426    4.1879    5.5724 C.ar      1 RES1    0.0000
     26 H7         6.5976    4.3577    4.7307 H         1 RES1    0.0000
     27 C15        7.0534   -3.7660    6.2255 C.ar      1 RES1    0.0000
     28 H8         7.7052   -4.3830    5.9829 H         1 RES1    0.0000
     29 C16       10.7540    1.0601    5.1926 C.3       1 RES1    0.0000
     30 H9        11.2766    1.7301    4.7454 H         1 RES1    0.0000
     31 H10       11.1736    0.2038    5.0859 H         1 RES1    0.0000
     32 H11       10.6930    1.2733    6.1269 H         1 RES1    0.0000
     33 N3         9.3923    4.5377    3.9153 N.1       1 RES1    0.0000
     34 C17        9.0233    3.5462    4.3439 C.1       1 RES1    0.0000
     35 C18        6.5264   -6.5570    6.3748 C.3       1 RES1    0.0000
     36 H12        6.1682   -7.4401    6.4952 H         1 RES1    0.0000
     37 H13        7.3071   -6.4506    6.9225 H         1 RES1    0.0000
     38 H14        6.7630   -6.4302    5.4525 H         1 RES1    0.0000
     39 C19        8.7698   -0.5022    2.5843 C.3       1 RES1    0.0000
     40 H15        8.9463   -0.5863    1.6451 H         1 RES1    0.0000
     41 H16        7.8229   -0.4354    2.7271 H         1 RES1    0.0000
     42 H17        9.1099   -1.2741    3.0430 H         1 RES1    0.0000
     43 N4         4.1085    5.9062    8.0698 N.pl3     1 RES1    0.0000
     44 O4         3.9585    6.9719    7.4983 O.2       1 RES1    0.0000
     45 C20        4.3459   -6.0374    7.4384 C.3       1 RES1    0.0000
     46 H18        4.3069   -6.9955    7.4021 H         1 RES1    0.0000
     47 H19        3.5681   -5.6696    7.0125 H         1 RES1    0.0000
     48 H20        4.3737   -5.7531    8.3548 H         1 RES1    0.0000
     49 C21        9.4301    0.7070    3.1019 C.2       1 RES1    0.0000
     50 C22        9.3493    1.0192    4.5853 C.3       1 RES1    0.0000
     51 O5         5.0689    9.2369   -2.1470 O.3       2 RES2    0.0000
     52 O6         5.5788    2.4969    2.9698 O.2       2 RES2    0.0000
     53 O7         6.4464    1.4700    1.3193 O.2       2 RES2    0.0000
     54 O8         6.4997    8.7302   -5.2771 O.2       2 RES2    0.0000
     55 N5         5.3210    8.8771    0.1665 N.2       2 RES2    0.0000
     56 N6         5.3950    5.0990   -4.4745 N.1       2 RES2    0.0000
     57 N7         4.3728   14.1090    2.0024 N.3       2 RES2    0.0000
     58 N8         5.9354    2.4454    1.8284 N.pl3     2 RES2    0.0000
     59 C23        5.4345    7.0542   -1.4760 C.2       2 RES2    0.0000
     60 C24        5.1459   10.2341    0.5331 C.ar      2 RES2    0.0000
     61 C25        5.2914    8.4496   -1.0265 C.2       2 RES2    0.0000
     62 C26        5.5788    5.8856   -0.5888 C.ar      2 RES2    0.0000
     63 C27        5.0600   11.3356   -0.3199 C.ar      2 RES2    0.0000
     64 H21        5.1701   11.2159   -1.2359 H         2 RES2    0.0000
     65 C28        5.0205   10.4889    1.8857 C.ar      2 RES2    0.0000
     66 H22        5.1067    9.7782    2.4799 H         2 RES2    0.0000
     67 C29        6.2787    4.7665   -1.0290 C.ar      2 RES2    0.0000
     68 H23        6.6785    4.7781   -1.8677 H         2 RES2    0.0000
     69 C30        5.3634    7.0582   -2.8255 C.2       2 RES2    0.0000
     70 C31        5.3738    5.9640   -3.7289 C.1       2 RES2    0.0000
     71 C32        5.8019    3.6550    0.9838 C.ar      2 RES2    0.0000
     72 C33        4.6419   12.8491    1.5330 C.ar      2 RES2    0.0000
     73 C34        5.0216    5.8544    0.6703 C.ar      2 RES2    0.0000
     74 H24        4.5680    6.6016    0.9887 H         2 RES2    0.0000
     75 C35        4.8144   12.5955    0.1750 C.ar      2 RES2    0.0000
     76 H25        4.7613   13.3065   -0.4223 H         2 RES2    0.0000
     77 C36        5.1243    4.7284    1.4727 C.ar      2 RES2    0.0000
     78 H26        4.7425    4.7065    2.3195 H         2 RES2    0.0000
     79 C37        3.9317    8.6995   -4.2288 C.3       2 RES2    0.0000
     80 H27        3.9063    9.6168   -4.5080 H         2 RES2    0.0000
     81 H28        3.1433    8.4974   -3.7207 H         2 RES2    0.0000
     82 H29        3.9684    8.1300   -5.0007 H         2 RES2    0.0000
     83 C38        4.7743   11.7456    2.3954 C.ar      2 RES2    0.0000
     84 H30        4.6952   11.8649    3.3147 H         2 RES2    0.0000
     85 C39        4.0991   15.1832    1.0840 C.3       2 RES2    0.0000
     86 H31        3.9394   15.9915    1.5763 H         2 RES2    0.0000
     87 H32        3.3231   14.9676    0.5615 H         2 RES2    0.0000
     88 H33        4.8525   15.3059    0.5025 H         2 RES2    0.0000
     89 C40        4.1221   14.3405    3.3884 C.3       2 RES2    0.0000
     90 H34        3.9641   15.2774    3.5324 H         2 RES2    0.0000
     91 H35        4.8826   14.0610    3.9024 H         2 RES2    0.0000
     92 H36        3.3497   13.8407    3.6618 H         2 RES2    0.0000
     93 C41        6.3875    3.6461   -0.2439 C.ar      2 RES2    0.0000
     94 H37        6.8515    2.8974   -0.5435 H         2 RES2    0.0000
     95 C42        7.5537    9.3944   -3.2509 C.3       2 RES2    0.0000
     96 H38        8.3600    9.4067   -3.7714 H         2 RES2    0.0000
     97 H39        7.6751    8.8300   -2.4848 H         2 RES2    0.0000
     98 H40        7.3465   10.2857   -2.9628 H         2 RES2    0.0000
     99 C43        6.4579    8.8818   -4.0661 C.2       2 RES2    0.0000
    100 C44        5.1721    8.4645   -3.3627 C.3       2 RES2    0.0000
@<TRIPOS>BOND
     1    1    3 1
     2    2   11 1
     3    3   20 ar
     4    4   43 2
     5    5    6 1
     6    7   22 2
     7    8    5 ar
     8    9   15 ar
     9   10   14 1
    10   11    1 2
    11   12   13 1
    12   14   12 ar
    13   15    5 ar
    14   16   15 1
    15   17   49 2
    16   18    8 ar
    17   19   18 1
    18   20   21 1
    19   22    9 1
    20   23    3 ar
    21   24   23 1
    22   25    9 ar
    23   26   25 1
    24   27   14 ar
    25   28   27 1
    26   29   30 1
    27   31   29 1
    28   32   29 1
    29   33   34 3
    30   34    7 1
    31   35   10 1
    32   36   35 1
    33   37   35 1
    34   38   35 1
    35   39   40 1
    36   41   39 1
    37   42   39 1
    38   43    8 1
    39   44   43 2
    40   45   10 1
    41   46   45 1
    42   47   45 1
    43   48   45 1
    44   49   39 1
    45   50    2 1
    46   51   61 1
    47   52   58 2
    48   53   58 2
    49   54   99 2
    50   55   60 1
    51   56   70 3
    52   57   72 1
    53   58   71 1
    54   59   61 1
    55   60   63 ar
    56   61   55 2
    57   62   59 1
    58   63   64 1
    59   65   60 ar
    60   66   65 1
    61   67   62 ar
    62   68   67 1
    63   69   59 2
    64   70   69 1
    65   71   77 ar
    66   72   75 ar
    67   73   62 ar
    68   74   73 1
    69   75   63 ar
    70   76   75 1
    71   77   73 ar
    72   78   77 1
    73   79   80 1
    74   81   79 1
    75   82   79 1
    76   83   65 ar
    77   84   83 1
    78   85   57 1
    79   86   85 1
    80   87   85 1
    81   88   85 1
    82   89   57 1
    83   90   89 1
    84   91   89 1
    85   92   89 1
    86   93   67 ar
    87   94   93 1
    88   95   96 1
    89   97   95 1
    90   98   95 1
    91   99   95 1
    92  100   51 1
    93    7   50 1
    94   11   22 1
    95   12   23 ar
    96   18   25 ar
    97   20   27 ar
    98   29   50 1
    99   49   50 1
   100   69  100 1
   101   71   93 ar
   102   72   83 ar
   103   79  100 1
   104   99  100 1
@<TRIPOS>SUBSTRUCTURE
     1 RES1 1
     2 RES2 51

@<TRIPOS>CRYSIN
   7.6387   16.6184   17.7794 112.2890  94.3280  92.5190   2 1

