# MOL2 file generated by ConQuest
# Please check atom types

@<TRIPOS>MOLECULE
FATZEG
    33    34     1
SMALL
NO_CHARGES
****
Generated from CSD

@<TRIPOS>ATOM
      1 O1        -3.6619   -0.8988   13.6964 O.3       1 RES1    0.0000
      2 O2         0.1489    1.0054    9.3188 O.2       1 RES1    0.0000
      3 N1        -2.4689   -0.2337   13.8379 N.2       1 RES1    0.0000
      4 C1        -0.5753    0.6739   12.8040 C.2       1 RES1    0.0000
      5 C2        -1.8374   -0.0672   12.7127 C.2       1 RES1    0.0000
      6 C3        -2.2954   -0.5178   11.4114 C.2       1 RES1    0.0000
      7 H1        -3.0792   -1.0512   11.3535 H         1 RES1    0.0000
      8 C4        -1.6376   -0.1980   10.2957 C.2       1 RES1    0.0000
      9 H2        -1.9575   -0.5075    9.4562 H         1 RES1    0.0000
     10 C5        -0.4345    0.6211   10.3514 C.2       1 RES1    0.0000
     11 C6         0.0707    0.9896   11.6688 C.2       1 RES1    0.0000
     12 H3         0.8874    1.4715   11.7263 H         1 RES1    0.0000
     13 C7        -0.0514    1.0645   14.1554 C.ar      1 RES1    0.0000
     14 C8         0.7102    0.1546   14.8956 C.ar      1 RES1    0.0000
     15 C9         1.2116    0.5489   16.1310 C.ar      1 RES1    0.0000
     16 H4         1.7258   -0.0702   16.6368 H         1 RES1    0.0000
     17 C10        0.9865    1.8137   16.6506 C.ar      1 RES1    0.0000
     18 C11        0.2195    2.6948   15.9020 C.ar      1 RES1    0.0000
     19 H5         0.0437    3.5612   16.2502 H         1 RES1    0.0000
     20 C12       -0.3020    2.3516   14.6533 C.ar      1 RES1    0.0000
     21 C13        1.0451   -1.2211   14.3593 C.3       1 RES1    0.0000
     22 H6         1.6929   -1.1374   13.6277 H         1 RES1    0.0000
     23 H7         0.2299   -1.6492   14.0253 H         1 RES1    0.0000
     24 H8         1.4309   -1.7662   15.0767 H         1 RES1    0.0000
     25 C14        1.5619    2.2078   17.9932 C.3       1 RES1    0.0000
     26 H9         1.1235    1.6907   18.7013 H         1 RES1    0.0000
     27 H10        1.4104    3.1643   18.1461 H         1 RES1    0.0000
     28 H11        2.5250    2.0248   18.0021 H         1 RES1    0.0000
     29 C15       -1.0995    3.3420   13.8535 C.3       1 RES1    0.0000
     30 H12       -1.2759    4.1368   14.3995 H         1 RES1    0.0000
     31 H13       -1.9495    2.9355   13.5839 H         1 RES1    0.0000
     32 H14       -0.5925    3.6005   13.0547 H         1 RES1    0.0000
     33 H15       -3.9827   -0.8938   14.5764 H         1 RES1    0.0000
@<TRIPOS>BOND
     1    1    3 1
     2    2   10 2
     3    3    5 2
     4    4    5 1
     5    5    6 1
     6    6    7 1
     7    8    6 2
     8    9    8 1
     9   10    8 1
    10   11    4 2
    11   12   11 1
    12   13    4 1
    13   14   13 ar
    14   15   14 ar
    15   16   15 1
    16   17   15 ar
    17   18   17 ar
    18   19   18 1
    19   20   13 ar
    20   21   14 1
    21   22   21 1
    22   23   21 1
    23   24   21 1
    24   25   17 1
    25   26   25 1
    26   27   25 1
    27   28   25 1
    28   29   20 1
    29   30   29 1
    30   31   29 1
    31   32   29 1
    32   33    1 1
    33   10   11 1
    34   18   20 ar
@<TRIPOS>SUBSTRUCTURE
     1 RES1 1

@<TRIPOS>CRYSIN
   8.9098   10.6399   13.7086  90.0000  90.0000  90.0000  19 1

