# MOL2 file generated by ConQuest
# Please check atom types

@<TRIPOS>MOLECULE
FAVCUC
    34    35     1
SMALL
NO_CHARGES
****
Generated from CSD

@<TRIPOS>ATOM
      1 O1         1.9836    2.5220    8.0345 O.2       1 RES1    0.0000
      2 O2         3.5405    3.5425    9.1374 O.2       1 RES1    0.0000
      3 N1         2.2115    2.1158   15.0987 N.2       1 RES1    0.0000
      4 N2         2.7990    2.4542   13.9005 N.pl3     1 RES1    0.0000
      5 H1         3.5964    2.8241   13.8752 H         1 RES1    0.0000
      6 N3         0.2320    0.9488   16.4675 N.pl3     1 RES1    0.0000
      7 H2         0.6735    0.9901   15.7397 H         1 RES1    0.0000
      8 H3        -0.3546    0.1871   16.6269 H         1 RES1    0.0000
      9 N4         2.5347    2.8346    9.0883 N.pl3     1 RES1    0.0000
     10 C1         2.2049    2.0461   17.4764 C.ar      1 RES1    0.0000
     11 C2         0.9657    1.3639   17.5710 C.ar      1 RES1    0.0000
     12 C3         0.4218    1.1179   18.8414 C.ar      1 RES1    0.0000
     13 H4        -0.4135    0.6677   18.9053 H         1 RES1    0.0000
     14 C4         1.0503    1.5046   19.9897 C.ar      1 RES1    0.0000
     15 H5         0.6562    1.3214   20.8337 H         1 RES1    0.0000
     16 C5         2.2581    2.1599   19.9212 C.ar      1 RES1    0.0000
     17 H6         2.6978    2.4347   20.7170 H         1 RES1    0.0000
     18 C6         2.8292    2.4175   18.6865 C.ar      1 RES1    0.0000
     19 H7         3.6695    2.8592   18.6521 H         1 RES1    0.0000
     20 C7         2.8774    2.3704   16.1890 C.2       1 RES1    0.0000
     21 C8         4.2449    2.9555   16.1723 C.3       1 RES1    0.0000
     22 H8         4.7764    2.5251   15.4690 H         1 RES1    0.0000
     23 H9         4.6744    2.8085   17.0407 H         1 RES1    0.0000
     24 H10        4.1881    3.9175   15.9951 H         1 RES1    0.0000
     25 C9         2.0931    2.1934   12.7307 C.ar      1 RES1    0.0000
     26 C10        2.6512    2.6062   11.5153 C.ar      1 RES1    0.0000
     27 H11        3.4894    3.0498   11.4933 H         1 RES1    0.0000
     28 C11        1.9571    2.3556   10.3565 C.ar      1 RES1    0.0000
     29 C12        0.7396    1.7046   10.3072 C.ar      1 RES1    0.0000
     30 H12        0.2923    1.5405    9.4857 H         1 RES1    0.0000
     31 C13        0.2020    1.3023   11.5292 C.ar      1 RES1    0.0000
     32 H13       -0.6393    0.8611   11.5461 H         1 RES1    0.0000
     33 C14        0.8718    1.5323   12.7208 C.ar      1 RES1    0.0000
     34 H14        0.4927    1.2349   13.5384 H         1 RES1    0.0000
@<TRIPOS>BOND
     1    1    9 2
     2    2    9 2
     3    3    4 1
     4    4    5 1
     5    6    7 1
     6    8    6 1
     7    9   28 1
     8   10   11 ar
     9   11    6 1
    10   12   11 ar
    11   13   12 1
    12   14   12 ar
    13   15   14 1
    14   16   14 ar
    15   17   16 1
    16   18   10 ar
    17   19   18 1
    18   20    3 2
    19   21   20 1
    20   22   21 1
    21   23   21 1
    22   24   21 1
    23   25    4 1
    24   26   25 ar
    25   27   26 1
    26   28   26 ar
    27   29   28 ar
    28   30   29 1
    29   31   29 ar
    30   32   31 1
    31   33   25 ar
    32   34   33 1
    33   10   20 1
    34   16   18 ar
    35   31   33 ar
@<TRIPOS>SUBSTRUCTURE
     1 RES1 1

@<TRIPOS>CRYSIN
  14.9100    3.8980   22.8900  90.0000 105.9060  90.0000 231 1

