# MOL2 file generated by ConQuest
# Please check atom types

@<TRIPOS>MOLECULE
FAVVII
    52    54     1
SMALL
NO_CHARGES
****
Generated from CSD

@<TRIPOS>ATOM
      1 C1         2.7433    1.7843    3.9561 C.3       1 RES1    0.0000
      2 H1         3.5711    2.0837    3.5255 H         1 RES1    0.0000
      3 C2         2.3038    0.5247    3.2150 C.3       1 RES1    0.0000
      4 H2         2.9372   -0.1923    3.3761 H         1 RES1    0.0000
      5 H3         1.4321    0.2402    3.5318 H         1 RES1    0.0000
      6 C3         2.2402    0.8383    1.7333 C.3       1 RES1    0.0000
      7 H4         1.8992    0.0659    1.2579 H         1 RES1    0.0000
      8 H5         3.1347    1.0209    1.4051 H         1 RES1    0.0000
      9 C4         1.3407    2.0447    1.4535 C.3       1 RES1    0.0000
     10 H6         1.4117    2.2760    0.5154 H         1 RES1    0.0000
     11 H7         0.4195    1.7948    1.6281 H         1 RES1    0.0000
     12 C5         1.6816    3.2774    2.2907 C.3       1 RES1    0.0000
     13 H8         2.5781    3.5768    2.0278 H         1 RES1    0.0000
     14 C6         1.7321    2.9039    3.7659 C.3       1 RES1    0.0000
     15 H9         0.8505    2.5604    4.0219 H         1 RES1    0.0000
     16 C7         2.0992    4.0281    4.7371 C.3       1 RES1    0.0000
     17 H10        3.0191    4.2960    4.5899 H         1 RES1    0.0000
     18 H11        1.5318    4.7968    4.5730 H         1 RES1    0.0000
     19 C8         1.9287    3.5671    6.1696 C.3       1 RES1    0.0000
     20 H12        1.0235    3.7774    6.4536 H         1 RES1    0.0000
     21 H13        2.5346    4.0790    6.7291 H         1 RES1    0.0000
     22 C9         2.1777    2.0874    6.4241 C.3       1 RES1    0.0000
     23 C10        0.8873    1.2948    6.5167 C.3       1 RES1    0.0000
     24 H14        0.2984    1.7409    7.1456 H         1 RES1    0.0000
     25 H15        0.4537    1.3128    5.6479 H         1 RES1    0.0000
     26 C11        1.0364   -0.1310    6.9395 C.3       1 RES1    0.0000
     27 H16        0.5353   -0.6684    6.3063 H         1 RES1    0.0000
     28 H17        1.9714   -0.3630    6.8238 H         1 RES1    0.0000
     29 C12        0.7089   -0.5082    8.0754 C.3       1 RES1    0.0000
     30 H18        0.8274   -1.4580    8.1448 H         1 RES1    0.0000
     31 H19       -0.2146   -0.2896    8.2310 H         1 RES1    0.0000
     32 H20        1.2564   -0.0681    8.7296 H         1 RES1    0.0000
     33 C13        4.2845    1.0725    5.6584 C.2       1 RES1    0.0000
     34 C14        4.7253    0.9094    7.0640 C.ar      1 RES1    0.0000
     35 C15        4.6918   -0.3121    7.6736 C.ar      1 RES1    0.0000
     36 H21        4.3138   -1.0299    7.2192 H         1 RES1    0.0000
     37 C16        5.1946   -0.5164    8.9315 C.ar      1 RES1    0.0000
     38 H22        5.1486   -1.3509    9.3396 H         1 RES1    0.0000
     39 C17        5.7666    0.5531    9.5680 C.ar      1 RES1    0.0000
     40 C18        5.8551    1.7918    8.9988 C.ar      1 RES1    0.0000
     41 H23        6.2665    2.4953    9.4447 H         1 RES1    0.0000
     42 C19        5.3116    1.9691    7.7302 C.ar      1 RES1    0.0000
     43 H24        5.3420    2.8074    7.3286 H         1 RES1    0.0000
     44 C20        0.7110    4.4053    1.9857 C.3       1 RES1    0.0000
     45 H25        0.9414    5.1770    2.5074 H         1 RES1    0.0000
     46 H26       -0.1822    4.1269    2.2045 H         1 RES1    0.0000
     47 H27        0.7564    4.6246    1.0518 H         1 RES1    0.0000
     48 N1         3.0680    1.5620    5.3663 N.am      1 RES1    0.0000
     49 N2         6.3784    0.3323   10.8924 N.pl3     1 RES1    0.0000
     50 O1         5.0908    0.7484    4.7638 O.2       1 RES1    0.0000
     51 O2         7.1017    1.2027   11.3246 O.2       1 RES1    0.0000
     52 O3         6.1284   -0.6758   11.4957 O.2       1 RES1    0.0000
@<TRIPOS>BOND
     1    1    2 1
     2    3    1 1
     3    4    3 1
     4    5    3 1
     5    6    3 1
     6    7    6 1
     7    8    6 1
     8    9    6 1
     9   10    9 1
    10   11    9 1
    11   12    9 1
    12   13   12 1
    13   14    1 1
    14   15   14 1
    15   16   14 1
    16   17   16 1
    17   18   16 1
    18   19   16 1
    19   20   19 1
    20   21   19 1
    21   22   19 1
    22   23   22 1
    23   24   23 1
    24   25   23 1
    25   26   23 1
    26   27   26 1
    27   28   26 1
    28   29   26 1
    29   30   29 1
    30   31   29 1
    31   32   29 1
    32   33   34 1
    33   34   35 ar
    34   35   36 1
    35   37   35 ar
    36   38   37 1
    37   39   37 ar
    38   40   39 ar
    39   41   40 1
    40   42   34 ar
    41   43   42 1
    42   44   12 1
    43   45   44 1
    44   46   44 1
    45   47   44 1
    46   48    1 1
    47   49   39 1
    48   50   33 2
    49   51   49 2
    50   52   49 2
    51   12   14 1
    52   22   48 1
    53   33   48 1
    54   40   42 ar
@<TRIPOS>SUBSTRUCTURE
     1 RES1 1

@<TRIPOS>CRYSIN
  24.7459    7.4844   21.2600  90.0000  98.3420  90.0000  15 1

