# MOL2 file generated by ConQuest
# Please check atom types

@<TRIPOS>MOLECULE
FAWWIJ
    27    27     1
SMALL
NO_CHARGES
****
Generated from CSD

@<TRIPOS>ATOM
      1 C1         5.3866    8.1967    1.2377 C.ar      1 RES1    0.0000
      2 C2         4.8523    9.1638    2.1110 C.ar      1 RES1    0.0000
      3 C3         4.8120   10.5377    1.8813 C.ar      1 RES1    0.0000
      4 C4         5.3523   10.9506    0.6609 C.ar      1 RES1    0.0000
      5 C5         5.9281   10.0455   -0.2163 C.ar      1 RES1    0.0000
      6 C6         5.9517    8.7203    0.0561 C.ar      1 RES1    0.0000
      7 N1         5.3777    6.8553    1.4607 N.3       1 RES1    0.0000
      8 N2         5.3245   12.3408    0.2390 N.pl3     1 RES1    0.0000
      9 O1         6.0705   12.6756   -0.6676 O.2       1 RES1    0.0000
     10 O2         4.5356   13.1140    0.7704 O.2       1 RES1    0.0000
     11 C7         6.1311    5.9806    0.5715 C.3       1 RES1    0.0000
     12 C8         4.3912    6.1653    2.2725 C.3       1 RES1    0.0000
     13 C9         4.3044   11.4834    2.9348 C.3       1 RES1    0.0000
     14 N3         4.3743    8.7366    3.4315 N.pl3     1 RES1    0.0000
     15 O3         5.1920    8.2779    4.2099 O.2       1 RES1    0.0000
     16 O4         3.1876    8.8593    3.6932 O.2       1 RES1    0.0000
     17 H1         6.2720   10.3510   -1.0348 H         1 RES1    0.0000
     18 H2         6.2931    8.1572   -0.5835 H         1 RES1    0.0000
     19 H3         5.6336    5.8792   -0.2911 H         1 RES1    0.0000
     20 H4         7.0223    6.3591    0.4460 H         1 RES1    0.0000
     21 H5         6.1928    5.1435    1.0228 H         1 RES1    0.0000
     22 H6         3.5513    6.6727    2.3753 H         1 RES1    0.0000
     23 H7         4.6763    5.9959    3.2419 H         1 RES1    0.0000
     24 H8         4.1527    5.3262    1.8933 H         1 RES1    0.0000
     25 H9         4.8473   12.1997    2.9682 H         1 RES1    0.0000
     26 H10        3.4190   11.8142    2.6664 H         1 RES1    0.0000
     27 H11        4.2848   11.0765    3.8187 H         1 RES1    0.0000
@<TRIPOS>BOND
     1    1    2 ar
     2    2    3 ar
     3    3    4 ar
     4    4    5 ar
     5    5    6 ar
     6    6    1 ar
     7    7    1 1
     8    8    4 1
     9    9    8 2
    10   10    8 2
    11   11    7 1
    12   12    7 1
    13   13    3 1
    14   14    2 1
    15   15   14 2
    16   16   14 2
    17   17    5 1
    18   18    6 1
    19   19   11 1
    20   20   11 1
    21   21   11 1
    22   22   12 1
    23   23   12 1
    24   24   12 1
    25   25   13 1
    26   26   13 1
    27   27   13 1
@<TRIPOS>SUBSTRUCTURE
     1 RES1 1

@<TRIPOS>CRYSIN
   7.6450   10.1470   14.4160  90.0000 112.1500  90.0000  14 1

