# MOL2 file generated by ConQuest
# Please check atom types

@<TRIPOS>MOLECULE
FAYCAJ
    48    48     2
SMALL
NO_CHARGES
****
Generated from CSD

@<TRIPOS>ATOM
      1 C1         2.2727    1.0767   -0.4429 C.3       1 RES1    0.0000
      2 C2         2.1448   -0.0303   -1.4370 C.3       1 RES1    0.0000
      3 C3         3.1498   -1.5729    0.1633 C.3       1 RES1    0.0000
      4 C4         3.3279    0.8398    0.6361 C.3       1 RES1    0.0000
      5 O1        -0.1002   -1.4662   -1.1606 O.2       1 RES1    0.0000
      6 O2         0.7713   -2.7046    0.3973 O.2       1 RES1    0.0000
      7 O3         2.5888   -1.8749    2.7248 O.2       1 RES1    0.0000
      8 O4         2.5098    0.2492    3.0970 O.2       1 RES1    0.0000
      9 O5         2.9394    3.2053   -0.4696 O.2       1 RES1    0.0000
     10 O6         2.7903    2.4318   -2.3338 O.2       1 RES1    0.0000
     11 O7         0.3094    0.5580    0.6816 O.2       1 RES1    0.0000
     12 O8         0.7112    2.5474    0.4947 O.2       1 RES1    0.0000
     13 N1         2.0958   -1.3416   -0.7837 N.3       1 RES1    0.0000
     14 N2         3.2032   -0.5153    1.1292 N.3       1 RES1    0.0000
     15 N3         0.8258   -1.8760   -0.4978 N.pl3     1 RES1    0.0000
     16 N4         2.7324   -0.7320    2.3997 N.pl3     1 RES1    0.0000
     17 N5         2.6144    2.3554   -1.1904 N.pl3     1 RES1    0.0000
     18 N6         0.9394    1.4191    0.2026 N.pl3     1 RES1    0.0000
     19 C5         9.0509    0.4401   11.3312 C.3       2 RES2    0.0000
     20 C6         8.0025    0.7690   10.2648 C.3       2 RES2    0.0000
     21 C7         6.2729   -0.1684   11.7034 C.3       2 RES2    0.0000
     22 C8         8.6213   -0.6725   12.2750 C.3       2 RES2    0.0000
     23 O9         6.8494    3.1559   10.7092 O.2       2 RES2    0.0000
     24 O10        5.4826    2.3195   12.1243 O.2       2 RES2    0.0000
     25 O11        5.8533    0.0820   14.3198 O.2       2 RES2    0.0000
     26 O12        7.9268   -0.3402   14.8082 O.2       2 RES2    0.0000
     27 O13       11.0543   -0.8016   11.0485 O.2       2 RES2    0.0000
     28 O14       10.5524    0.7275    9.6806 O.2       2 RES2    0.0000
     29 O15        8.9318    1.9086   13.1231 O.2       2 RES2    0.0000
     30 O16       10.0404    2.5407   11.4144 O.2       2 RES2    0.0000
     31 N7         6.6980    0.9509   10.8647 N.3       2 RES2    0.0000
     32 N8         7.2534   -0.4727   12.7069 N.3       2 RES2    0.0000
     33 N9         6.3296    2.2185   11.2715 N.pl3     2 RES2    0.0000
     34 N10        6.9997   -0.1987   14.0261 N.pl3     2 RES2    0.0000
     35 N11       10.3464    0.0550   10.6653 N.pl3     2 RES2    0.0000
     36 N12        9.4304    1.6986   12.0897 N.pl3     2 RES2    0.0000
     37 H1         2.8983   -0.0382   -2.0307 H         1 RES1    0.0000
     38 H2         1.3367    0.0966   -1.9396 H         1 RES1    0.0000
     39 H3         3.9890   -1.6167   -0.3000 H         1 RES1    0.0000
     40 H4         2.9884   -2.4059    0.1429 H         1 RES1    0.0000
     41 H5         3.1943    1.4606    1.3569 H         1 RES1    0.0000
     42 H6         4.2038    0.9655    0.2670 H         1 RES1    0.0000
     43 H7         7.9580    0.0438    9.6366 H         2 RES2    0.0000
     44 H8         8.2585    1.5740    9.8093 H         2 RES2    0.0000
     45 H9         6.1426   -0.9419   11.1490 H         2 RES2    0.0000
     46 H10        5.4448    0.5917   12.1337 H         2 RES2    0.0000
     47 H11        9.1989   -0.6770   13.0414 H         2 RES2    0.0000
     48 H12        8.6881   -1.5145   11.8196 H         2 RES2    0.0000
@<TRIPOS>BOND
     1    1    2 1
     2    2   13 1
     3    3   13 1
     4    4    1 1
     5    5   15 2
     6    6   15 2
     7    7   16 2
     8    8   16 2
     9    9   17 2
    10   10   17 2
    11   11   18 2
    12   12   18 2
    13   13   15 1
    14   14    3 1
    15   16   14 1
    16   17    1 1
    17   18    1 1
    18   19   20 1
    19   20   31 1
    20   21   31 1
    21   22   19 1
    22   23   33 2
    23   24   33 2
    24   25   34 2
    25   26   34 2
    26   27   35 2
    27   28   35 2
    28   29   36 2
    29   30   36 2
    30   31   33 1
    31   32   21 1
    32   34   32 1
    33   35   19 1
    34   36   19 1
    35   37    2 1
    36   38    2 1
    37   39    3 1
    38   40    3 1
    39   41    4 1
    40   42    4 1
    41   43   20 1
    42   44   20 1
    43   45   21 1
    44   46   21 1
    45   47   22 1
    46   48   22 1
    47    4   14 1
    48   22   32 1
@<TRIPOS>SUBSTRUCTURE
     1 RES1 1
     2 RES2 19

@<TRIPOS>CRYSIN
  11.1300   11.2270   15.7050  90.0000  90.0000  90.0000  19 1

