# MOL2 file generated by ConQuest
# Please check atom types

@<TRIPOS>MOLECULE
FAYJAR
    22    22     1
SMALL
NO_CHARGES
****
Generated from CSD

@<TRIPOS>ATOM
      1 O1         1.8265    0.1918   12.1145 O.3       1 RES1    0.0000
      2 N1         2.5048    1.4609   12.1470 N.2       1 RES1    0.0000
      3 C1         2.9804    1.6446   10.9519 C.2       1 RES1    0.0000
      4 C2         2.6676    0.5655   10.0865 C.2       1 RES1    0.0000
      5 C3         1.9435   -0.3061   10.8767 C.2       1 RES1    0.0000
      6 C4         2.9622    0.3104    8.7002 C.2       1 RES1    0.0000
      7 O2         2.5900   -0.6757    8.1110 O.2       1 RES1    0.0000
      8 O3         3.6965    1.2647    8.1249 O.3       1 RES1    0.0000
      9 C5         4.0544    1.0655    6.7373 C.3       1 RES1    0.0000
     10 H1         3.2556    1.0000    6.1903 H         1 RES1    0.0000
     11 H2         4.5646    0.2466    6.6358 H         1 RES1    0.0000
     12 C6         4.8736    2.2407    6.3184 C.3       1 RES1    0.0000
     13 H3         5.1308    2.1395    5.3997 H         1 RES1    0.0000
     14 H4         5.6590    2.2943    6.8669 H         1 RES1    0.0000
     15 H5         4.3566    3.0426    6.4197 H         1 RES1    0.0000
     16 N2         1.3762   -1.4686   10.6465 N.3       1 RES1    0.0000
     17 C7         3.7289    2.8955   10.6599 C.3       1 RES1    0.0000
     18 H6         3.7737    3.4346   11.4526 H         1 RES1    0.0000
     19 H7         3.2798    3.3836    9.9670 H         1 RES1    0.0000
     20 H8         4.6191    2.6769   10.3707 H         1 RES1    0.0000
     21 H9         0.9645   -1.8963   11.2584 H         1 RES1    0.0000
     22 H10        1.4858   -1.8283    9.8833 H         1 RES1    0.0000
@<TRIPOS>BOND
     1    1    2 1
     2    2    3 2
     3    3    4 1
     4    4    5 2
     5    5    1 1
     6    6    4 1
     7    7    6 2
     8    8    6 1
     9    9    8 1
    10   10    9 1
    11   11    9 1
    12   12    9 1
    13   13   12 1
    14   14   12 1
    15   15   12 1
    16   16    5 1
    17   17    3 1
    18   18   17 1
    19   19   17 1
    20   20   17 1
    21   21   16 1
    22   22   16 1
@<TRIPOS>SUBSTRUCTURE
     1 RES1 1

@<TRIPOS>CRYSIN
  12.6420    8.5036   16.9340  90.0000  98.4880  90.0000  15 1

