# MOL2 file generated by ConQuest
# Please check atom types

@<TRIPOS>MOLECULE
FAYPEB
    53    55     1
SMALL
NO_CHARGES
****
Generated from CSD

@<TRIPOS>ATOM
      1 C1         2.9876    1.1778    2.5545 C.3       1 RES1    0.0000
      2 H1         2.3422    1.7421    2.0785 H         1 RES1    0.0000
      3 C2         3.6088    0.2298    1.5238 C.3       1 RES1    0.0000
      4 H2         2.9359   -0.4050    1.2332 H         1 RES1    0.0000
      5 H3         3.8855    0.7434    0.7489 H         1 RES1    0.0000
      6 C3         4.8137   -0.5374    2.0687 C.3       1 RES1    0.0000
      7 H4         5.2306   -1.0264    1.3431 H         1 RES1    0.0000
      8 H5         4.5061   -1.1841    2.7220 H         1 RES1    0.0000
      9 C4         5.8620    0.3749    2.7232 C.3       1 RES1    0.0000
     10 H6         6.2743    0.9186    2.0202 H         1 RES1    0.0000
     11 C5         5.1795    1.3196    3.7203 C.3       1 RES1    0.0000
     12 H7         4.7348    0.7371    4.3700 H         1 RES1    0.0000
     13 C6         6.1522    2.1724    4.5351 C.3       1 RES1    0.0000
     14 H8         6.6279    2.7803    3.9485 H         1 RES1    0.0000
     15 H9         5.6625    2.6995    5.1862 H         1 RES1    0.0000
     16 C7         7.1426    1.2634    5.2492 C.3       1 RES1    0.0000
     17 H10        7.7650    1.7999    5.7647 H         1 RES1    0.0000
     18 H11        6.6675    0.6792    5.8611 H         1 RES1    0.0000
     19 C8         7.9029    0.4304    4.2353 C.3       1 RES1    0.0000
     20 H12        8.5428   -0.1316    4.6997 H         1 RES1    0.0000
     21 H13        8.3965    1.0200    3.6436 H         1 RES1    0.0000
     22 C9         6.9697   -0.4494    3.4050 C.3       1 RES1    0.0000
     23 H14        6.5310   -1.0700    4.0225 H         1 RES1    0.0000
     24 C10        3.1976    3.8947    1.6384 C.ar      1 RES1    0.0000
     25 C11        3.3646    4.1000    0.2760 C.ar      1 RES1    0.0000
     26 H15        4.1271    3.7790   -0.1480 H         1 RES1    0.0000
     27 C12        2.4052    4.7792   -0.4561 C.ar      1 RES1    0.0000
     28 H16        2.5109    4.9084   -1.3700 H         1 RES1    0.0000
     29 C13        1.2940    5.2571    0.1953 C.ar      1 RES1    0.0000
     30 C14        1.1025    5.0915    1.5498 C.ar      1 RES1    0.0000
     31 H17        0.3497    5.4394    1.9709 H         1 RES1    0.0000
     32 C15        2.0583    4.3924    2.2718 C.ar      1 RES1    0.0000
     33 H18        1.9392    4.2545    3.1839 H         1 RES1    0.0000
     34 C16        4.3322    3.2273    2.3902 C.2       1 RES1    0.0000
     35 C17        2.2316    0.4621    3.6626 C.3       1 RES1    0.0000
     36 H19        1.5056   -0.0420    3.2646 H         1 RES1    0.0000
     37 H20        2.8311   -0.1720    4.0853 H         1 RES1    0.0000
     38 C18        1.6618    1.3656    4.7257 C.3       1 RES1    0.0000
     39 H21        1.0864    2.0211    4.3028 H         1 RES1    0.0000
     40 H22        2.3911    1.8451    5.1503 H         1 RES1    0.0000
     41 C19        0.8602    0.6301    5.8075 C.3       1 RES1    0.0000
     42 H23        0.5288    1.2649    6.4463 H         1 RES1    0.0000
     43 H24        1.4278   -0.0048    6.2513 H         1 RES1    0.0000
     44 H25        0.1210    0.1704    5.4015 H         1 RES1    0.0000
     45 C20        7.7604   -1.2919    2.4014 C.3       1 RES1    0.0000
     46 H26        8.4428   -1.7841    2.8633 H         1 RES1    0.0000
     47 H27        8.1672   -0.7157    1.7512 H         1 RES1    0.0000
     48 H28        7.1669   -1.9045    1.9597 H         1 RES1    0.0000
     49 N1         4.0845    2.0754    3.0512 N.am      1 RES1    0.0000
     50 N2         0.2733    6.0021   -0.5767 N.pl3     1 RES1    0.0000
     51 O1         5.4263    3.7784    2.3321 O.2       1 RES1    0.0000
     52 O2         0.4467    6.1297   -1.7713 O.2       1 RES1    0.0000
     53 O3        -0.7037    6.4214    0.0036 O.2       1 RES1    0.0000
@<TRIPOS>BOND
     1    1    2 1
     2    3    1 1
     3    4    3 1
     4    5    3 1
     5    6    3 1
     6    7    6 1
     7    8    6 1
     8    9    6 1
     9   10    9 1
    10   11    9 1
    11   12   11 1
    12   13   11 1
    13   14   13 1
    14   15   13 1
    15   16   13 1
    16   17   16 1
    17   18   16 1
    18   19   16 1
    19   20   19 1
    20   21   19 1
    21   22    9 1
    22   23   22 1
    23   24   25 ar
    24   25   26 1
    25   27   25 ar
    26   28   27 1
    27   29   27 ar
    28   30   29 ar
    29   31   30 1
    30   32   24 ar
    31   33   32 1
    32   34   24 1
    33   35    1 1
    34   36   35 1
    35   37   35 1
    36   38   35 1
    37   39   38 1
    38   40   38 1
    39   41   38 1
    40   42   41 1
    41   43   41 1
    42   44   41 1
    43   45   22 1
    44   46   45 1
    45   47   45 1
    46   48   45 1
    47   49    1 1
    48   50   29 1
    49   51   34 2
    50   52   50 2
    51   53   50 2
    52   11   49 1
    53   19   22 1
    54   30   32 ar
    55   34   49 1
@<TRIPOS>SUBSTRUCTURE
     1 RES1 1

@<TRIPOS>CRYSIN
  10.7559    7.9257   22.4246  90.0000  90.8730  90.0000  14 1

