# MOL2 file generated by ConQuest
# Please check atom types

@<TRIPOS>MOLECULE
FAYPED
   104   106     2
SMALL
NO_CHARGES
****
Generated from CSD

@<TRIPOS>ATOM
      1 O1         5.8583   11.8615    9.4786 O.3       1 RES1    0.0000
      2 O2         5.6118    8.2267    9.9350 O.3       1 RES1    0.0000
      3 O3         5.9311    7.9867    7.7165 O.2       1 RES1    0.0000
      4 O4         5.2879    4.3185   12.7261 O.2       1 RES1    0.0000
      5 O5         6.4957    2.5562   12.2237 O.2       1 RES1    0.0000
      6 O6         7.6989    1.9395    7.5507 O.2       1 RES1    0.0000
      7 O7         8.1960    3.7325    6.4032 O.2       1 RES1    0.0000
      8 N1         5.9986    3.6689   11.9547 N.pl3     1 RES1    0.0000
      9 N2         7.6861    3.1793    7.3977 N.pl3     1 RES1    0.0000
     10 C1         6.3161   12.7934    8.5070 C.3       1 RES1    0.0000
     11 H1         5.9055   12.6030    7.6260 H         1 RES1    0.0000
     12 H2         7.3009   12.7384    8.4139 H         1 RES1    0.0000
     13 C2         5.9114   14.1637    8.9890 C.ar      1 RES1    0.0000
     14 C3         5.5884   14.4077   10.3252 C.ar      1 RES1    0.0000
     15 H3         5.6027   13.6888   10.9461 H         1 RES1    0.0000
     16 C4         5.2460   15.6787   10.7638 C.ar      1 RES1    0.0000
     17 H4         5.0354   15.8335   11.6780 H         1 RES1    0.0000
     18 C5         5.2170   16.7185    9.8483 C.ar      1 RES1    0.0000
     19 H5         4.9769   17.5879   10.1467 H         1 RES1    0.0000
     20 C6         5.5228   16.5334    8.5261 C.ar      1 RES1    0.0000
     21 H6         5.4726   17.2581    7.9141 H         1 RES1    0.0000
     22 C7         5.9085   15.2670    8.0901 C.ar      1 RES1    0.0000
     23 H7         6.1718   15.1396    7.1861 H         1 RES1    0.0000
     24 C8         6.2801   10.5102    9.2159 C.3       1 RES1    0.0000
     25 H8         6.3228   10.3418    8.2316 H         1 RES1    0.0000
     26 C9         7.6713   10.2851    9.8675 C.3       1 RES1    0.0000
     27 H9         7.9417    9.3516    9.7463 H         1 RES1    0.0000
     28 H10        7.6212   10.4891   10.8250 H         1 RES1    0.0000
     29 H11        8.3301   10.8729    9.4416 H         1 RES1    0.0000
     30 C10        5.1541    9.6326    9.8777 C.3       1 RES1    0.0000
     31 C11        3.8627    9.7649    9.0642 C.3       1 RES1    0.0000
     32 H12        4.0249    9.4685    8.1436 H         1 RES1    0.0000
     33 H13        3.5743   10.7016    9.0604 H         1 RES1    0.0000
     34 H14        3.1644    9.2105    9.4684 H         1 RES1    0.0000
     35 C12        4.9478   10.0236   11.3338 C.3       1 RES1    0.0000
     36 H15        5.8016    9.9061   11.8195 H         1 RES1    0.0000
     37 H16        4.7065   10.9831   11.3746 H         1 RES1    0.0000
     38 C13        3.8801    9.2269   12.0261 C.2       1 RES1    0.0000
     39 H17        3.9606    8.2807   12.0299 H         1 RES1    0.0000
     40 C14        2.8308    9.7825   12.6407 C.2       1 RES1    0.0000
     41 H18        2.7281   10.7270   12.6509 H         1 RES1    0.0000
     42 H19        2.1819    9.2304   13.0640 H         1 RES1    0.0000
     43 C15        5.9077    7.5547    8.8296 C.2       1 RES1    0.0000
     44 C16        6.2445    6.1271    9.1407 C.ar      1 RES1    0.0000
     45 C17        5.9474    5.5925   10.3826 C.ar      1 RES1    0.0000
     46 H20        5.5346    6.1205   11.0571 H         1 RES1    0.0000
     47 C18        6.2780    4.2284   10.6197 C.ar      1 RES1    0.0000
     48 C19        6.8608    3.4318    9.6686 C.ar      1 RES1    0.0000
     49 H21        7.0823    2.5257    9.8496 H         1 RES1    0.0000
     50 C20        7.1135    4.0039    8.4343 C.ar      1 RES1    0.0000
     51 C21        6.8175    5.3388    8.1526 C.ar      1 RES1    0.0000
     52 H22        7.0059    5.7028    7.2957 H         1 RES1    0.0000
     53 O8         4.3950    6.8282    3.7269 O.3       2 RES2    0.0000
     54 O9         5.0308    3.2332    3.3342 O.3       2 RES2    0.0000
     55 O10        5.2894    3.0448    5.5910 O.2       2 RES2    0.0000
     56 O11        3.2431   -0.4796    0.7994 O.2       2 RES2    0.0000
     57 O12        3.9654   -2.4752    1.3197 O.2       2 RES2    0.0000
     58 O13        5.5635   -3.3217    5.7644 O.2       2 RES2    0.0000
     59 O14        6.1085   -1.6678    7.0777 O.2       2 RES2    0.0000
     60 N3         3.8007   -1.2765    1.5555 N.pl3     2 RES2    0.0000
     61 N4         5.6538   -2.0998    6.0054 N.pl3     2 RES2    0.0000
     62 C22        4.1460    7.7208    4.8107 C.3       2 RES2    0.0000
     63 H23        4.9066    7.7187    5.4418 H         2 RES2    0.0000
     64 H24        3.3289    7.4455    5.3003 H         2 RES2    0.0000
     65 C23        3.9577    9.1029    4.2153 C.ar      2 RES2    0.0000
     66 C24        3.4609    9.3176    2.9517 C.ar      2 RES2    0.0000
     67 H25        3.2360    8.5691    2.4124 H         2 RES2    0.0000
     68 C25        3.2798   10.5812    2.4493 C.ar      2 RES2    0.0000
     69 H26        2.9570   10.7008    1.5645 H         2 RES2    0.0000
     70 C26        3.5769   11.7066    3.2577 C.ar      2 RES2    0.0000
     71 H27        3.4376   12.5860    2.9275 H         2 RES2    0.0000
     72 C27        4.0602   11.5097    4.5136 C.ar      2 RES2    0.0000
     73 H28        4.2553   12.2590    5.0632 H         2 RES2    0.0000
     74 C28        4.2707   10.2147    5.0070 C.ar      2 RES2    0.0000
     75 H29        4.6269   10.0907    5.8792 H         2 RES2    0.0000
     76 C29        4.2172    5.4291    4.0546 C.3       2 RES2    0.0000
     77 H30        4.3891    5.2853    5.0300 H         2 RES2    0.0000
     78 C30        2.7574    5.0434    3.7116 C.3       2 RES2    0.0000
     79 H31        2.6019    5.1753    2.7528 H         2 RES2    0.0000
     80 H32        2.1418    5.6092    4.2229 H         2 RES2    0.0000
     81 H33        2.6042    4.1034    3.9411 H         2 RES2    0.0000
     82 C31        5.2707    4.7153    3.2450 C.3       2 RES2    0.0000
     83 C32        6.6763    5.0203    3.7792 C.3       2 RES2    0.0000
     84 H34        7.3183    4.3935    3.3852 H         2 RES2    0.0000
     85 H35        6.6832    4.9233    4.7546 H         2 RES2    0.0000
     86 H36        6.9255    5.9372    3.5395 H         2 RES2    0.0000
     87 C33        5.2156    4.9627    1.7774 C.3       2 RES2    0.0000
     88 H37        4.3634    4.5980    1.4331 H         2 RES2    0.0000
     89 H38        5.2011    5.9415    1.6282 H         2 RES2    0.0000
     90 C34        6.3241    4.3871    0.9792 C.2       2 RES2    0.0000
     91 H39        6.5371    3.4716    1.1195 H         2 RES2    0.0000
     92 C35        7.0459    5.0471    0.0880 C.2       2 RES2    0.0000
     93 H40        6.8665    5.9650   -0.0803 H         2 RES2    0.0000
     94 H41        7.7422    4.6056   -0.3825 H         2 RES2    0.0000
     95 C36        5.1273    2.5811    4.4843 C.2       2 RES2    0.0000
     96 C37        4.9196    1.0974    4.2369 C.ar      2 RES2    0.0000
     97 C38        5.3145    0.2060    5.2264 C.ar      2 RES2    0.0000
     98 H42        5.6568    0.5310    6.0513 H         2 RES2    0.0000
     99 C39        5.2097   -1.1427    5.0083 C.ar      2 RES2    0.0000
    100 C40        4.7482   -1.6591    3.8034 C.ar      2 RES2    0.0000
    101 H43        4.7355   -2.5939    3.6389 H         2 RES2    0.0000
    102 C41        4.3129   -0.7558    2.8561 C.ar      2 RES2    0.0000
    103 C42        4.4243    0.6190    3.0180 C.ar      2 RES2    0.0000
    104 H44        4.1718    1.2164    2.3244 H         2 RES2    0.0000
@<TRIPOS>BOND
     1    1   10 1
     2    2   30 1
     3    3   43 2
     4    4    8 2
     5    5    8 2
     6    6    9 2
     7    7    9 2
     8    8   47 1
     9    9   50 1
    10   10   11 1
    11   12   10 1
    12   13   10 1
    13   14   13 ar
    14   15   14 1
    15   16   14 ar
    16   17   16 1
    17   18   16 ar
    18   19   18 1
    19   20   18 ar
    20   21   20 1
    21   22   13 ar
    22   23   22 1
    23   24    1 1
    24   25   24 1
    25   26   24 1
    26   27   26 1
    27   28   26 1
    28   29   26 1
    29   30   24 1
    30   31   30 1
    31   32   31 1
    32   33   31 1
    33   34   31 1
    34   35   30 1
    35   36   35 1
    36   37   35 1
    37   38   35 1
    38   39   38 1
    39   40   38 2
    40   41   40 1
    41   42   40 1
    42   43    2 1
    43   44   43 1
    44   45   44 ar
    45   46   45 1
    46   47   45 ar
    47   48   47 ar
    48   49   48 1
    49   50   48 ar
    50   51   44 ar
    51   52   51 1
    52   53   62 1
    53   54   82 1
    54   55   95 2
    55   56   60 2
    56   57   60 2
    57   58   61 2
    58   59   61 2
    59   60  102 1
    60   61   99 1
    61   62   63 1
    62   64   62 1
    63   65   62 1
    64   66   65 ar
    65   67   66 1
    66   68   66 ar
    67   69   68 1
    68   70   68 ar
    69   71   70 1
    70   72   70 ar
    71   73   72 1
    72   74   65 ar
    73   75   74 1
    74   76   53 1
    75   77   76 1
    76   78   76 1
    77   79   78 1
    78   80   78 1
    79   81   78 1
    80   82   76 1
    81   83   82 1
    82   84   83 1
    83   85   83 1
    84   86   83 1
    85   87   82 1
    86   88   87 1
    87   89   87 1
    88   90   87 1
    89   91   90 1
    90   92   90 2
    91   93   92 1
    92   94   92 1
    93   95   54 1
    94   96   95 1
    95   97   96 ar
    96   98   97 1
    97   99   97 ar
    98  100   99 ar
    99  101  100 1
   100  102  100 ar
   101  103   96 ar
   102  104  103 1
   103   20   22 ar
   104   50   51 ar
   105   72   74 ar
   106  102  103 ar
@<TRIPOS>SUBSTRUCTURE
     1 RES1 1
     2 RES2 53

@<TRIPOS>CRYSIN
   7.5000   10.9840   12.9660  79.5350  87.3560  75.6110   1 1

