# MOL2 file generated by ConQuest
# Please check atom types

@<TRIPOS>MOLECULE
FAYXOU
   188   194     2
SMALL
NO_CHARGES
****
Generated from CSD

@<TRIPOS>ATOM
      1 O1         4.5644    9.4622   18.3434 O.3       1 RES1    0.0000
      2 O2        15.1493    5.3412   14.3157 O.3       1 RES1    0.0000
      3 O3         3.3308   12.5349   26.3397 O.3       2 RES2    0.0000
      4 O4        -0.8612   12.9175   19.3128 O.3       1 RES1    0.0000
      5 O5        13.8928    8.4417   22.3401 O.3       2 RES2    0.0000
      6 O6         1.7232   11.4092   19.2760 O.3       1 RES1    0.0000
      7 N1         8.1720    9.4994   16.2715 N.ar      1 RES1    0.0000
      8 N2         6.5533    9.9728   25.9221 N.ar      2 RES2    0.0000
      9 N3         9.7796    7.3580   16.3079 N.am      1 RES1    0.0000
     10 H1         9.9238    8.1057   15.9055 H         1 RES1    0.0000
     11 O7         8.7329   11.5756   14.6397 O.3       1 RES1    0.0000
     12 O8        19.2978    4.9931   21.3483 O.3       2 RES2    0.0000
     13 N4        11.9238    7.9731   14.7314 N.ar      1 RES1    0.0000
     14 O9        10.6555    5.2847   16.6583 O.2       1 RES1    0.0000
     15 C1         3.6981   10.6152   18.3165 C.3       1 RES1    0.0000
     16 H2         3.3889   10.7891   17.4151 H         1 RES1    0.0000
     17 H3         4.1669   11.4002   18.6405 H         1 RES1    0.0000
     18 N5         8.6784   10.5715   24.3748 N.am      2 RES2    0.0000
     19 H4         8.5326    9.8279   24.7832 H         2 RES2    0.0000
     20 O10       -3.4993   13.9242   18.5780 O.3       1 RES1    0.0000
     21 O11        7.3291   12.8663   15.7557 O.2       1 RES1    0.0000
     22 C2         0.0258   12.6852   20.3784 C.3       1 RES1    0.0000
     23 H5        -0.4512   12.7214   21.2233 H         1 RES1    0.0000
     24 H6         0.7192   13.3639   20.3864 H         1 RES1    0.0000
     25 C3        11.9326    9.5308   22.9568 C.ar      2 RES2    0.0000
     26 O12       21.9374    3.9780   22.0458 O.3       2 RES2    0.0000
     27 C4        11.9127    6.7822   15.3244 C.ar      1 RES1    0.0000
     28 O13        9.6883    6.3073   25.9793 O.3       2 RES2    0.0000
     29 C5        14.2431    9.8907   12.6527 C.ar      1 RES1    0.0000
     30 H7        14.2557   10.7070   12.2094 H         1 RES1    0.0000
     31 C6        15.8956    7.6323   21.4352 C.3       2 RES2    0.0000
     32 H8        15.5629    7.8497   20.5506 H         2 RES2    0.0000
     33 H9        16.3910    8.3932   21.7759 H         2 RES2    0.0000
     34 C7         6.2007    7.2338   18.5055 C.ar      1 RES1    0.0000
     35 H10        5.4161    7.2217   19.0049 H         1 RES1    0.0000
     36 O14       11.1575    5.0262   24.8801 O.2       2 RES2    0.0000
     37 O15       16.7326    6.4846   21.3791 O.3       2 RES2    0.0000
     38 O16       15.9567    2.9071   13.0007 O.3       1 RES1    0.0000
     39 O17        2.5041   14.9029   27.7789 O.3       2 RES2    0.0000
     40 C8        12.2844   10.6442   22.2356 C.ar      2 RES2    0.0000
     41 H11       13.0860   10.6635   21.7639 H         2 RES2    0.0000
     42 O18        7.7892   12.6393   24.0352 O.2       2 RES2    0.0000
     43 C9         4.2722    7.9222   27.9359 C.ar      2 RES2    0.0000
     44 H12        4.2810    7.0889   28.3471 H         2 RES2    0.0000
     45 C10       18.4263    5.2847   20.2843 C.3       2 RES2    0.0000
     46 H13       17.7329    4.6060   20.2382 H         2 RES2    0.0000
     47 H14       18.9180    5.2678   19.4494 H         2 RES2    0.0000
     48 C11        2.5439   10.2843   19.2139 C.3       1 RES1    0.0000
     49 H15        2.0507    9.5284   18.8567 H         1 RES1    0.0000
     50 H16        2.8641   10.0525   20.0981 H         1 RES1    0.0000
     51 N6        10.2764    8.4101   24.3780 N.ar      2 RES2    0.0000
     52 C12        7.3682   10.5573   16.2911 C.ar      1 RES1    0.0000
     53 C13        5.3616    8.3738   27.2596 C.ar      2 RES2    0.0000
     54 C14       15.3296    9.0598   12.5866 C.ar      1 RES1    0.0000
     55 H17       16.0848    9.3279   12.1133 H         1 RES1    0.0000
     56 C15        3.1364    8.7386   27.9972 C.ar      2 RES2    0.0000
     57 H18        2.3569    8.4294   28.3992 H         2 RES2    0.0000
     58 C16        4.3782   11.7456   26.1267 C.ar      2 RES2    0.0000
     59 C17       13.1353    9.5163   13.3731 C.ar      1 RES1    0.0000
     60 C18       14.7746    7.3039   22.3405 C.3       2 RES2    0.0000
     61 H19       14.3072    6.5165   22.0242 H         2 RES2    0.0000
     62 H20       15.1036    7.1324   23.2335 H         2 RES2    0.0000
     63 C19       14.0827    6.1349   14.4935 C.ar      1 RES1    0.0000
     64 C20        6.1544   10.6322   16.9783 C.ar      1 RES1    0.0000
     65 H21        5.6465   11.4123   16.9666 H         1 RES1    0.0000
     66 C21        6.5467    8.3956   17.6962 C.ar      1 RES1    0.0000
     67 O19       15.3274    0.9371   10.9584 O.3       1 RES1    0.0000
     68 C22        6.5327   11.1587   25.3519 C.ar      2 RES2    0.0000
     69 C23        8.2301    6.1711   17.8036 C.ar      1 RES1    0.0000
     70 H22        8.7888    5.4296   17.8476 H         1 RES1    0.0000
     71 C24        7.7414    8.4197   16.9839 C.ar      1 RES1    0.0000
     72 O20        2.9988   17.0110   29.6910 O.3       2 RES2    0.0000
     73 C25       15.1198    4.0215   14.8816 C.3       1 RES1    0.0000
     74 H23       14.2822    3.5867   14.6601 H         1 RES1    0.0000
     75 H24       15.1890    4.0770   15.8494 H         1 RES1    0.0000
     76 C26        8.6026    7.2604   17.0295 C.ar      1 RES1    0.0000
     77 C27       11.0611    7.3473   24.3443 C.ar      2 RES2    0.0000
     78 C28       13.0713    8.2676   14.0326 C.ar      1 RES1    0.0000
     79 C29       -2.2414   14.4218   18.1800 C.3       1 RES1    0.0000
     80 H25       -2.3290   15.3589   17.9477 H         1 RES1    0.0000
     81 H26       -1.9469   13.9459   17.3911 H         1 RES1    0.0000
     82 C30       10.7092    9.4825   23.6668 C.ar      2 RES2    0.0000
     83 C31        4.3068   10.4631   26.7618 C.ar      2 RES2    0.0000
     84 C32       10.2330   11.7384   22.9256 C.ar      2 RES2    0.0000
     85 H27        9.6912   12.4943   22.9052 H         2 RES2    0.0000
     86 C33       12.3095    7.2797   23.6836 C.ar      2 RES2    0.0000
     87 H28       12.8240    6.5044   23.7221 H         2 RES2    0.0000
     88 C34        0.6500   11.3012   20.1906 C.3       1 RES1    0.0000
     89 H29        0.9724   10.9655   21.0431 H         1 RES1    0.0000
     90 H30       -0.0147   10.6829   19.8498 H         1 RES1    0.0000
     91 C35       10.7239    6.4078   16.1666 C.2       1 RES1    0.0000
     92 O21       11.2502   10.4582   12.4929 O.2       1 RES1    0.0000
     93 N7         6.5438    7.4898   27.2183 N.pl3     2 RES2    0.0000
     94 C36       15.3171    7.8715   13.1909 C.ar      1 RES1    0.0000
     95 H31       16.0679    7.3256   13.1344 H         1 RES1    0.0000
     96 C37        9.8583   10.6346   23.6424 C.ar      2 RES2    0.0000
     97 C38       12.7452    8.3666   22.9873 C.ar      2 RES2    0.0000
     98 C39        5.4382    9.6153   26.6325 C.ar      2 RES2    0.0000
     99 C40        3.3168   13.8638   25.8080 C.3       2 RES2    0.0000
    100 H32        3.1997   13.8397   24.8433 H         2 RES2    0.0000
    101 H33        4.1544   14.3131   26.0046 H         2 RES2    0.0000
    102 C41       14.9638    0.7777    9.6106 C.3       1 RES1    0.0000
    103 H34       15.6402    0.2536    9.1541 H         1 RES1    0.0000
    104 H35       14.9225    1.6472    9.1861 H         1 RES1    0.0000
    105 C42        7.7222   11.5282   24.5338 C.2       2 RES2    0.0000
    106 C43        7.0413    6.1687   18.5163 C.ar      1 RES1    0.0000
    107 H36        6.8154    5.4175   19.0169 H         1 RES1    0.0000
    108 C44        3.1858   10.0187   27.4482 C.ar      2 RES2    0.0000
    109 H37        2.4534   10.5838   27.5423 H         2 RES2    0.0000
    110 C45        1.5104   15.6801   28.4392 C.3       2 RES2    0.0000
    111 H38        0.6927   15.1633   28.5153 H         2 RES2    0.0000
    112 H39        1.3168   16.4723   27.9147 H         2 RES2    0.0000
    113 C46       12.9808    5.8426   15.2464 C.ar      1 RES1    0.0000
    114 H40       12.9292    5.0359   15.7053 H         1 RES1    0.0000
    115 C47       17.8095    6.6058   20.4661 C.3       2 RES2    0.0000
    116 H41       18.4660    7.2338   20.8109 H         2 RES2    0.0000
    117 H42       17.4863    6.9416   19.6136 H         2 RES2    0.0000
    118 C48        5.7348    9.5356   17.6630 C.ar      1 RES1    0.0000
    119 C49       20.7008    3.4635   22.5087 C.3       2 RES2    0.0000
    120 H43       20.4233    3.9369   23.3096 H         2 RES2    0.0000
    121 H44       20.7921    2.5216   22.7250 H         2 RES2    0.0000
    122 C50        1.9720   16.0762   29.7807 C.3       2 RES2    0.0000
    123 H45        1.2315   16.4579   30.2773 H         2 RES2    0.0000
    124 H46        2.2863   15.2937   30.2613 H         2 RES2    0.0000
    125 C51       14.1857    7.4246   13.9145 C.ar      1 RES1    0.0000
    126 C52       16.2563    3.2389   14.3370 C.3       1 RES1    0.0000
    127 H47       17.0712    3.7630   14.3758 H         1 RES1    0.0000
    128 H48       16.3866    2.4322   14.8603 H         1 RES1    0.0000
    129 C53       11.4497   11.7166   22.2164 C.ar      2 RES2    0.0000
    130 H49       11.6904   12.4629   21.7199 H         2 RES2    0.0000
    131 N8        11.9768   10.4196   13.4151 N.pl3     1 RES1    0.0000
    132 C54        2.1854   14.5908   26.4439 C.3       2 RES2    0.0000
    133 H50        2.0043   15.4072   25.9525 H         2 RES2    0.0000
    134 H51        1.3882   14.0401   26.4170 H         2 RES2    0.0000
    135 C55        5.5316   12.0886   25.4396 C.ar      2 RES2    0.0000
    136 H52        5.6222   12.9291   25.0475 H         2 RES2    0.0000
    137 C56       16.8776    1.9733   12.4897 C.3       1 RES1    0.0000
    138 H53       16.8341    1.1545   13.0063 H         1 RES1    0.0000
    139 H54       17.7771    2.3308   12.5618 H         1 RES1    0.0000
    140 C57       -1.2189   14.2793   19.2371 C.3       1 RES1    0.0000
    141 H55       -0.4409   14.8179   19.0249 H         1 RES1    0.0000
    142 H56       -1.5759   14.5763   20.0901 H         1 RES1    0.0000
    143 O22        7.4300    7.6589   27.9787 O.2       2 RES2    0.0000
    144 C58       19.6769    3.6447   21.4235 C.3       2 RES2    0.0000
    145 H57       20.0486    3.3621   20.5706 H         2 RES2    0.0000
    146 H58       18.8989    3.0964   21.6117 H         2 RES2    0.0000
    147 C59        3.8865   17.4650   30.8539 C.3       2 RES2    0.0000
    148 H59        4.1198   16.7211   31.4305 H         2 RES2    0.0000
    149 H60        4.6955   17.8901   30.5336 H         2 RES2    0.0000
    150 C60        7.8083   11.8012   15.5671 C.2       1 RES1    0.0000
    151 C61       10.6408    6.1059   25.1120 C.2       2 RES2    0.0000
    152 O23       11.7994   11.0790   14.3950 O.2       1 RES1    0.0000
    153 O24       13.7500   -1.2608    9.7531 O.3       1 RES1    0.0000
    154 C62       16.5596    1.6859   11.0642 C.3       1 RES1    0.0000
    155 H61       16.4735    2.5216   10.5796 H         1 RES1    0.0000
    156 H62       17.2839    1.1787   10.6677 H         1 RES1    0.0000
    157 O25        6.4878    6.5551   26.4619 O.2       2 RES2    0.0000
    158 C63       13.6764    0.1183    9.4824 C.3       1 RES1    0.0000
    159 H63       13.0478    0.5314   10.0951 H         1 RES1    0.0000
    160 H64       13.3429    0.2488    8.5814 H         1 RES1    0.0000
    161 C64        9.0545   12.7262   13.8152 C.3       1 RES1    0.0000
    162 H65        9.7023   12.4726   13.1504 H         1 RES1    0.0000
    163 H66        9.4152   13.4242   14.3638 H         1 RES1    0.0000
    164 H67        8.2581   13.0402   13.3787 H         1 RES1    0.0000
    165 O26        2.8840   19.6219   30.9540 O.3       2 RES2    0.0000
    166 C65       22.9561    3.8741   23.0373 C.3       2 RES2    0.0000
    167 H68       23.7732    4.2461   22.6969 H         2 RES2    0.0000
    168 H69       23.0930    2.9515   23.2616 H         2 RES2    0.0000
    169 H70       22.6882    4.3572   23.8222 H         2 RES2    0.0000
    170 C66        9.3423    5.1373   26.7894 C.3       2 RES2    0.0000
    171 H71        8.6283    5.3644   27.3901 H         2 RES2    0.0000
    172 H72       10.1101    4.8596   27.2980 H         2 RES2    0.0000
    173 H73        9.0626    4.4200   26.2168 H         2 RES2    0.0000
    174 C67       -4.4849   14.0208   17.5473 C.3       1 RES1    0.0000
    175 H74       -5.3241   13.6875   17.8716 H         1 RES1    0.0000
    176 H75       -4.2082   13.4991   16.7904 H         1 RES1    0.0000
    177 H76       -4.5850   14.9386   17.2830 H         1 RES1    0.0000
    178 C68        1.6768   20.3586   31.5787 C.3       2 RES2    0.0000
    179 H77        1.5848   21.2232   31.1702 H         2 RES2    0.0000
    180 H78        1.8189   20.4624   32.5237 H         2 RES2    0.0000
    181 H79        0.8774   19.8489   31.4305 H         2 RES2    0.0000
    182 C69       12.5965   -2.0192    9.3783 C.3       1 RES1    0.0000
    183 H80       12.7217   -2.9370    9.6346 H         1 RES1    0.0000
    184 H81       12.4721   -1.9661    8.4293 H         1 RES1    0.0000
    185 H82       11.8229   -1.6666    9.8228 H         1 RES1    0.0000
    186 C70        3.0474   18.3925   31.5306 C.3       2 RES2    0.0000
    187 H83        2.1751   17.9867   31.6308 H         2 RES2    0.0000
    188 H84        3.4110   18.5254   32.4196 H         2 RES2    0.0000
@<TRIPOS>BOND
     1    1   15 1
     2    2   63 1
     3    3   58 1
     4    4   22 1
     5    5   60 1
     6    6   48 1
     7    7   52 ar
     8    8   68 ar
     9    9   10 1
    10   11  150 1
    11   12   45 1
    12   13   27 ar
    13   14   91 2
    14   15   16 1
    15   17   15 1
    16   18   19 1
    17   20   79 1
    18   21  150 2
    19   22   23 1
    20   24   22 1
    21   25   40 ar
    22   26  119 1
    23   27   91 1
    24   28  151 1
    25   29   30 1
    26   31   32 1
    27   33   31 1
    28   34   35 1
    29   36  151 2
    30   37   31 1
    31   38  126 1
    32   39  110 1
    33   40   41 1
    34   42  105 2
    35   43   44 1
    36   45   46 1
    37   47   45 1
    38   48   15 1
    39   49   48 1
    40   50   48 1
    41   51   77 ar
    42   52   64 ar
    43   53   43 ar
    44   54   29 ar
    45   55   54 1
    46   56   43 ar
    47   57   56 1
    48   58   83 ar
    49   59   29 ar
    50   60   31 1
    51   61   60 1
    52   62   60 1
    53   63  113 ar
    54   64   65 1
    55   66   34 ar
    56   67  102 1
    57   68  105 1
    58   69   70 1
    59   71    7 ar
    60   72  122 1
    61   73    2 1
    62   74   73 1
    63   75   73 1
    64   76    9 1
    65   77   86 ar
    66   78   13 ar
    67   79   80 1
    68   81   79 1
    69   82   25 ar
    70   83   98 ar
    71   84   85 1
    72   86   87 1
    73   88    6 1
    74   89   88 1
    75   90   88 1
    76   91    9 1
    77   92  131 2
    78   93   53 1
    79   94   54 ar
    80   95   94 1
    81   96   18 1
    82   97    5 1
    83   98    8 ar
    84   99    3 1
    85  100   99 1
    86  101   99 1
    87  102  103 1
    88  104  102 1
    89  105   18 1
    90  106   34 ar
    91  107  106 1
    92  108   56 ar
    93  109  108 1
    94  110  111 1
    95  112  110 1
    96  113   27 ar
    97  114  113 1
    98  115   37 1
    99  116  115 1
   100  117  115 1
   101  118    1 1
   102  119  120 1
   103  121  119 1
   104  122  110 1
   105  123  122 1
   106  124  122 1
   107  125   63 ar
   108  126   73 1
   109  127  126 1
   110  128  126 1
   111  129   40 ar
   112  130  129 1
   113  131   59 1
   114  132   39 1
   115  133  132 1
   116  134  132 1
   117  135   58 ar
   118  136  135 1
   119  137   38 1
   120  138  137 1
   121  139  137 1
   122  140    4 1
   123  141  140 1
   124  142  140 1
   125  143   93 2
   126  144   12 1
   127  145  144 1
   128  146  144 1
   129  147   72 1
   130  148  147 1
   131  149  147 1
   132  150   52 1
   133  151   77 1
   134  152  131 2
   135  153  158 1
   136  154   67 1
   137  155  154 1
   138  156  154 1
   139  157   93 2
   140  158  102 1
   141  159  158 1
   142  160  158 1
   143  161   11 1
   144  162  161 1
   145  163  161 1
   146  164  161 1
   147  165  178 1
   148  166   26 1
   149  167  166 1
   150  168  166 1
   151  169  166 1
   152  170   28 1
   153  171  170 1
   154  172  170 1
   155  173  170 1
   156  174   20 1
   157  175  174 1
   158  176  174 1
   159  177  174 1
   160  178  179 1
   161  180  178 1
   162  181  178 1
   163  182  153 1
   164  183  182 1
   165  184  182 1
   166  185  182 1
   167  186  147 1
   168  187  186 1
   169  188  186 1
   170   22   88 1
   171   25   97 ar
   172   45  115 1
   173   51   82 ar
   174   53   98 ar
   175   59   78 ar
   176   64  118 ar
   177   66   71 ar
   178   66  118 ar
   179   68  135 ar
   180   69   76 ar
   181   69  106 ar
   182   71   76 ar
   183   78  125 ar
   184   79  140 1
   185   82   96 ar
   186   83  108 ar
   187   84   96 ar
   188   84  129 ar
   189   86   97 ar
   190   94  125 ar
   191   99  132 1
   192  119  144 1
   193  137  154 1
   194  165  186 1
@<TRIPOS>SUBSTRUCTURE
     1 RES1 1
     2 RES2 3

@<TRIPOS>CRYSIN
   7.3608   24.1530   40.0440  90.0000  90.0000  90.0000  29 5

