# MOL2 file generated by ConQuest
# Please check atom types

@<TRIPOS>MOLECULE
FAYZOX
    48    51     1
SMALL
NO_CHARGES
****
Generated from CSD

@<TRIPOS>ATOM
      1 O1         6.5952    2.0314    7.3488 O.3       1 RES1    0.0000
      2 O2         8.6848    4.0997    8.7124 O.2       1 RES1    0.0000
      3 O3         6.9636    5.1760    7.9834 O.2       1 RES1    0.0000
      4 O4         8.0027    6.7461    3.3023 O.2       1 RES1    0.0000
      5 O5         7.2735    5.0539    2.1804 O.2       1 RES1    0.0000
      6 N1         5.8835    2.9279    5.3565 N.2       1 RES1    0.0000
      7 N2        10.1789    3.5893    5.6433 N.3       1 RES1    0.0000
      8 N3         7.8794    4.3748    7.8439 N.pl3     1 RES1    0.0000
      9 N4         4.8727    5.9354    4.0905 N.3       1 RES1    0.0000
     10 N5         7.4349    5.6627    3.2265 N.pl3     1 RES1    0.0000
     11 C1         6.7075    2.9032    6.2984 C.2       1 RES1    0.0000
     12 C2         7.9800    3.6973    6.4684 C.3       1 RES1    0.0000
     13 C3         8.1950    4.7801    5.3778 C.3       1 RES1    0.0000
     14 H1         8.4888    5.6297    5.8159 H         1 RES1    0.0000
     15 C4         6.9389    5.0551    4.5507 C.3       1 RES1    0.0000
     16 C5         6.0461    3.8439    4.2285 C.3       1 RES1    0.0000
     17 H2         6.3985    3.3542    3.4307 H         1 RES1    0.0000
     18 C6         9.2108    2.7853    6.3787 C.3       1 RES1    0.0000
     19 H3         9.5502    2.5565    7.2796 H         1 RES1    0.0000
     20 H4         8.9987    1.9492    5.8921 H         1 RES1    0.0000
     21 C7         9.3739    4.1906    4.5850 C.3       1 RES1    0.0000
     22 H5         9.0667    3.5101    3.9341 H         1 RES1    0.0000
     23 H6         9.8755    4.8974    4.1070 H         1 RES1    0.0000
     24 C8        11.2991    2.7902    5.1462 C.3       1 RES1    0.0000
     25 H7        11.9207    3.3685    4.6569 H         1 RES1    0.0000
     26 H8        10.9622    2.0919    4.5472 H         1 RES1    0.0000
     27 H9        11.7652    2.3751    5.9024 H         1 RES1    0.0000
     28 C9         4.6817    4.4910    3.9014 C.3       1 RES1    0.0000
     29 H10        4.4170    4.2934    2.9686 H         1 RES1    0.0000
     30 H11        3.9796    4.1495    4.5097 H         1 RES1    0.0000
     31 C10        5.9311    6.0614    5.0855 C.3       1 RES1    0.0000
     32 H12        5.6131    5.8145    5.9902 H         1 RES1    0.0000
     33 H13        6.3059    6.9771    5.1061 H         1 RES1    0.0000
     34 C11        3.6488    6.6502    4.4097 C.3       1 RES1    0.0000
     35 H14        3.8422    7.6066    4.4968 H         1 RES1    0.0000
     36 H15        3.2844    6.3123    5.2545 H         1 RES1    0.0000
     37 H16        2.9941    6.5136    3.6940 H         1 RES1    0.0000
     38 C12        5.8851    0.8309    7.1534 C.ar      1 RES1    0.0000
     39 C13        4.9957    0.4498    8.1323 C.ar      1 RES1    0.0000
     40 H17        4.8268    1.0100    8.8801 H         1 RES1    0.0000
     41 C14        4.3487   -0.7767    8.0009 C.ar      1 RES1    0.0000
     42 H18        3.7309   -1.0576    8.6658 H         1 RES1    0.0000
     43 C15        4.5989   -1.5840    6.9159 C.ar      1 RES1    0.0000
     44 H19        4.1505   -2.4172    6.8292 H         1 RES1    0.0000
     45 C16        5.5055   -1.1814    5.9484 C.ar      1 RES1    0.0000
     46 H20        5.6783   -1.7423    5.2016 H         1 RES1    0.0000
     47 C17        6.1608    0.0331    6.0616 C.ar      1 RES1    0.0000
     48 H21        6.7860    0.3109    5.4029 H         1 RES1    0.0000
@<TRIPOS>BOND
     1    1   11 1
     2    2    8 2
     3    3    8 2
     4    4   10 2
     5    5   10 2
     6    6   11 2
     7    7   18 1
     8    8   12 1
     9    9   28 1
    10   10   15 1
    11   11   12 1
    12   12   13 1
    13   13   14 1
    14   15   13 1
    15   16    6 1
    16   17   16 1
    17   18   12 1
    18   19   18 1
    19   20   18 1
    20   21    7 1
    21   22   21 1
    22   23   21 1
    23   24    7 1
    24   25   24 1
    25   26   24 1
    26   27   24 1
    27   28   16 1
    28   29   28 1
    29   30   28 1
    30   31    9 1
    31   32   31 1
    32   33   31 1
    33   34    9 1
    34   35   34 1
    35   36   34 1
    36   37   34 1
    37   38    1 1
    38   39   38 ar
    39   40   39 1
    40   41   39 ar
    41   42   41 1
    42   43   41 ar
    43   44   43 1
    44   45   43 ar
    45   46   45 1
    46   47   38 ar
    47   48   47 1
    48   13   21 1
    49   15   16 1
    50   15   31 1
    51   45   47 ar
@<TRIPOS>SUBSTRUCTURE
     1 RES1 1

@<TRIPOS>CRYSIN
  12.6465   11.0625   14.0367  90.0000 113.1430  90.0000 231 1

