# MOL2 file generated by ConQuest
# Please check atom types

@<TRIPOS>MOLECULE
FAZFOE
    74    78     2
SMALL
NO_CHARGES
****
Generated from CSD

@<TRIPOS>ATOM
      1 C1         9.1005    2.2868    1.5305 C.ar      1 RES1    0.0000
      2 C2         8.2778    3.1519    2.1742 C.ar      1 RES1    0.0000
      3 H1         8.2053    3.1099    3.1203 H         1 RES1    0.0000
      4 C3         7.5310    4.1069    1.4655 C.ar      1 RES1    0.0000
      5 C4         7.5935    4.1165    0.0798 C.ar      1 RES1    0.0000
      6 C5         8.4634    3.2259   -0.6094 C.ar      1 RES1    0.0000
      7 C6         9.2775    2.2947    0.1067 C.ar      1 RES1    0.0000
      8 C7         8.5569    3.2628   -2.0276 C.ar      1 RES1    0.0000
      9 H2         8.0033    3.8606   -2.5164 H         1 RES1    0.0000
     10 C8         9.4261    2.4538   -2.7001 C.ar      1 RES1    0.0000
     11 H3         9.4922    2.5072   -3.6462 H         1 RES1    0.0000
     12 C9        10.2237    1.5436   -1.9887 C.ar      1 RES1    0.0000
     13 H4        10.8237    0.9815   -2.4636 H         1 RES1    0.0000
     14 C10       10.1540    1.4489   -0.6279 C.ar      1 RES1    0.0000
     15 H5        10.6932    0.8162   -0.1707 H         1 RES1    0.0000
     16 C11        6.7204    5.1359    2.1946 C.2       1 RES1    0.0000
     17 C12        6.8679    5.2254    3.6879 C.3       1 RES1    0.0000
     18 H6         6.4055    6.0268    4.0144 H         1 RES1    0.0000
     19 H7         7.8181    5.2795    3.9198 H         1 RES1    0.0000
     20 H8         6.4749    4.4289    4.1025 H         1 RES1    0.0000
     21 C13        6.7254    5.0360   -0.7791 C.2       1 RES1    0.0000
     22 C14        7.3167    6.3316   -1.2216 C.ar      1 RES1    0.0000
     23 C15        6.6975    7.0421   -2.2576 C.ar      1 RES1    0.0000
     24 H9         5.8993    6.7087   -2.6500 H         1 RES1    0.0000
     25 C16        7.2483    8.2241   -2.7066 C.ar      1 RES1    0.0000
     26 H10        6.8355    8.6993   -3.4171 H         1 RES1    0.0000
     27 C17        8.4063    8.7179   -2.1176 C.ar      1 RES1    0.0000
     28 H11        8.7771    9.5362   -2.4218 H         1 RES1    0.0000
     29 C18        9.0214    8.0281   -1.0964 C.ar      1 RES1    0.0000
     30 H12        9.8109    8.3721   -0.6957 H         1 RES1    0.0000
     31 C19        8.4810    6.8227   -0.6530 C.ar      1 RES1    0.0000
     32 H13        8.9112    6.3368    0.0408 H         1 RES1    0.0000
     33 N1         9.8515    1.3655    2.4042 N.pl3     1 RES1    0.0000
     34 O1        10.9535    0.9667    2.0443 O.2       1 RES1    0.0000
     35 O2         9.3361    1.0562    3.4774 O.2       1 RES1    0.0000
     36 O3         5.9910    5.8839    1.5778 O.2       1 RES1    0.0000
     37 O4         5.6548    4.6365   -1.1808 O.2       1 RES1    0.0000
     38 C20        4.6409    2.1600    1.7679 C.ar      2 RES2    0.0000
     39 C21        3.9036    3.0420    1.0537 C.ar      2 RES2    0.0000
     40 H14        3.9558    3.0410    0.1057 H         2 RES2    0.0000
     41 C22        3.0592    3.9612    1.7067 C.ar      2 RES2    0.0000
     42 C23        2.9819    3.9495    3.0943 C.ar      2 RES2    0.0000
     43 C24        3.8116    3.0730    3.8549 C.ar      2 RES2    0.0000
     44 C25        4.6840    2.1452    3.1945 C.ar      2 RES2    0.0000
     45 C26        3.8361    3.1205    5.2824 C.ar      2 RES2    0.0000
     46 H15        3.2543    3.7160    5.7406 H         2 RES2    0.0000
     47 C27        4.6790    2.3270    5.9947 C.ar      2 RES2    0.0000
     48 H16        4.6803    2.3729    6.9436 H         2 RES2    0.0000
     49 C28        5.5503    1.4361    5.3390 C.ar      2 RES2    0.0000
     50 H17        6.1410    0.8920    5.8472 H         2 RES2    0.0000
     51 C29        5.5528    1.3469    3.9708 C.ar      2 RES2    0.0000
     52 H18        6.1445    0.7404    3.5404 H         2 RES2    0.0000
     53 C30        2.2482    4.9503    0.9405 C.2       2 RES2    0.0000
     54 C31        2.4347    5.0360   -0.5556 C.3       2 RES2    0.0000
     55 H19        1.8921    5.7720   -0.9109 H         2 RES2    0.0000
     56 H20        2.1526    4.1947   -0.9693 H         2 RES2    0.0000
     57 H21        3.3793    5.2003   -0.7578 H         2 RES2    0.0000
     58 C32        2.0271    4.8280    3.8855 C.2       2 RES2    0.0000
     59 C33        2.4935    6.1684    4.3381 C.ar      2 RES2    0.0000
     60 C34        3.6157    6.7666    3.7640 C.ar      2 RES2    0.0000
     61 H22        4.0873    6.3230    3.0683 H         2 RES2    0.0000
     62 C35        4.0417    8.0019    4.2073 C.ar      2 RES2    0.0000
     63 H23        4.7942    8.4169    3.8020 H         2 RES2    0.0000
     64 C36        3.3745    8.6435    5.2416 C.ar      2 RES2    0.0000
     65 H24        3.6767    9.4880    5.5514 H         2 RES2    0.0000
     66 C37        2.2659    8.0446    5.8213 C.ar      2 RES2    0.0000
     67 H25        1.8113    8.4824    6.5309 H         2 RES2    0.0000
     68 C38        1.8207    6.8179    5.3733 C.ar      2 RES2    0.0000
     69 H26        1.0557    6.4160    5.7684 H         2 RES2    0.0000
     70 N2         5.4078    1.1696    1.0017 N.pl3     2 RES2    0.0000
     71 O5         5.4580    0.0162    1.4303 O.2       2 RES2    0.0000
     72 O6         5.9512    1.5350   -0.0362 O.2       2 RES2    0.0000
     73 O7         1.4669    5.6897    1.5249 O.2       2 RES2    0.0000
     74 O8         0.9597    4.3583    4.2380 O.2       2 RES2    0.0000
@<TRIPOS>BOND
     1    1    2 ar
     2    2    3 1
     3    4    2 ar
     4    5    4 ar
     5    6    5 ar
     6    7    1 ar
     7    8    6 ar
     8    9    8 1
     9   10    8 ar
    10   11   10 1
    11   12   10 ar
    12   13   12 1
    13   14    7 ar
    14   15   14 1
    15   16    4 1
    16   17   16 1
    17   18   17 1
    18   19   17 1
    19   20   17 1
    20   21    5 1
    21   22   21 1
    22   23   22 ar
    23   24   23 1
    24   25   23 ar
    25   26   25 1
    26   27   25 ar
    27   28   27 1
    28   29   27 ar
    29   30   29 1
    30   31   22 ar
    31   32   31 1
    32   33    1 1
    33   34   33 2
    34   35   33 2
    35   36   16 2
    36   37   21 2
    37   38   39 ar
    38   39   40 1
    39   41   39 ar
    40   42   41 ar
    41   43   42 ar
    42   44   38 ar
    43   45   43 ar
    44   46   45 1
    45   47   45 ar
    46   48   47 1
    47   49   47 ar
    48   50   49 1
    49   51   44 ar
    50   52   51 1
    51   53   41 1
    52   54   53 1
    53   55   54 1
    54   56   54 1
    55   57   54 1
    56   58   42 1
    57   59   58 1
    58   60   59 ar
    59   61   60 1
    60   62   60 ar
    61   63   62 1
    62   64   62 ar
    63   65   64 1
    64   66   64 ar
    65   67   66 1
    66   68   59 ar
    67   69   68 1
    68   70   38 1
    69   71   70 2
    70   72   70 2
    71   73   53 2
    72   74   58 2
    73    6    7 ar
    74   12   14 ar
    75   29   31 ar
    76   43   44 ar
    77   49   51 ar
    78   66   68 ar
@<TRIPOS>SUBSTRUCTURE
     1 RES1 1
     2 RES2 38

@<TRIPOS>CRYSIN
   9.2487   34.4391    9.2838  90.0000  92.4290  90.0000  14 1

