# MOL2 file generated by ConQuest
# Please check atom types

@<TRIPOS>MOLECULE
FAZGAR
    25    27     1
SMALL
NO_CHARGES
****
Generated from CSD

@<TRIPOS>ATOM
      1 C1         4.8225    1.2867   15.7736 C.ar      1 RES1    0.0000
      2 C2         5.8551    1.7245   14.8942 C.ar      1 RES1    0.0000
      3 C3         7.0770    2.2101   15.3993 C.ar      1 RES1    0.0000
      4 H1         7.7563    2.4968   14.8004 H         1 RES1    0.0000
      5 C4         7.2848    2.2699   16.7473 C.ar      1 RES1    0.0000
      6 H2         8.1082    2.5966   17.0903 H         1 RES1    0.0000
      7 C5         6.2751    1.8456   17.6236 C.ar      1 RES1    0.0000
      8 H3         6.4240    1.8934   18.5615 H         1 RES1    0.0000
      9 C6         5.0784    1.3645   17.1611 C.ar      1 RES1    0.0000
     10 H4         4.4156    1.0804   17.7783 H         1 RES1    0.0000
     11 C7         3.5773    0.8437   15.1714 C.ar      1 RES1    0.0000
     12 C8         3.3475    0.8004   13.8301 C.ar      1 RES1    0.0000
     13 H5         2.5093    0.5185   13.4839 H         1 RES1    0.0000
     14 C9         4.3939    1.1865   12.9774 C.ar      1 RES1    0.0000
     15 C10        5.5787    1.6478   13.5046 C.ar      1 RES1    0.0000
     16 C11        4.5943    1.2759   11.5526 C.2       1 RES1    0.0000
     17 C12        3.6479    0.8890   10.4647 C.3       1 RES1    0.0000
     18 H6         4.0385    1.1163    9.5959 H         1 RES1    0.0000
     19 H7         2.8030    1.3723   10.5786 H         1 RES1    0.0000
     20 H8         3.4804   -0.0759   10.5059 H         1 RES1    0.0000
     21 N1         5.7741    1.7518   11.2704 N.2       1 RES1    0.0000
     22 N2         2.4654    0.4333   16.0137 N.pl3     1 RES1    0.0000
     23 O1         2.6790   -0.2250   17.0257 O.2       1 RES1    0.0000
     24 O2         1.3213    0.7462   15.6518 O.2       1 RES1    0.0000
     25 O3         6.4311    1.9910   12.5295 O.3       1 RES1    0.0000
@<TRIPOS>BOND
     1    1    2 ar
     2    2    3 ar
     3    3    4 1
     4    5    3 ar
     5    6    5 1
     6    7    5 ar
     7    8    7 1
     8    9    1 ar
     9   10    9 1
    10   11    1 ar
    11   12   11 ar
    12   13   12 1
    13   14   12 ar
    14   15    2 ar
    15   16   14 1
    16   17   16 1
    17   18   17 1
    18   19   17 1
    19   20   17 1
    20   21   16 2
    21   22   11 1
    22   23   22 2
    23   24   22 2
    24   25   15 1
    25    7    9 ar
    26   14   15 ar
    27   21   25 1
@<TRIPOS>SUBSTRUCTURE
     1 RES1 1

@<TRIPOS>CRYSIN
  13.9799    3.7383   18.8940  90.0000  99.2690  90.0000 231 1

