# MOL2 file generated by ConQuest
# Please check atom types

@<TRIPOS>MOLECULE
FAZGOF
    44    34     2
SMALL
USER_CHARGES
****
Generated from CSD

@<TRIPOS>ATOM
      1 N1        -1.9444    1.3346    9.1621 N.pl3     1 RES1    1.0000
      2 O1        -1.7781    0.9853   10.5642 O.3       1 RES1    0.0000
      3 O2        -3.0950    1.3919    8.7443 O.2       1 RES1   -1.0000
      4 C1        -0.7376    1.5146    8.6369 C.2       1 RES1    0.0000
      5 C2        -0.5121    1.8376    7.2301 C.ar      1 RES1    0.0000
      6 N2         1.5388    1.4922    9.7194 N.pl3     1 RES1    0.0000
      7 C3         0.1490    1.3140    9.7266 C.2       1 RES1    0.0000
      8 N3        -0.4461    1.0123   10.8443 N.2       1 RES1    0.0000
      9 C4         0.7476    1.6478    6.6754 C.ar      1 RES1    0.0000
     10 N4         2.0266    2.7783    9.7320 N.2       1 RES1    0.0000
     11 C5         3.6678    1.3571    9.6881 C.2       1 RES1    0.0000
     12 C6         2.5339    0.5785    9.6933 C.2       1 RES1    0.0000
     13 C7        -1.5549    2.3020    6.4123 C.ar      1 RES1    0.0000
     14 N5         3.3138    2.6726    9.7190 N.2       1 RES1    0.0000
     15 C8        -1.3134    2.5627    5.0790 C.ar      1 RES1    0.0000
     16 C9         0.9615    1.9071    5.3316 C.ar      1 RES1    0.0000
     17 C10        2.2908   -0.8767    9.6952 C.3       1 RES1    0.0000
     18 H1         3.1304   -1.3419    9.6734 H         1 RES1    0.0000
     19 H2         1.8107   -1.1201   10.4907 H         1 RES1    0.0000
     20 H3         1.7734   -1.1159    8.9224 H         1 RES1    0.0000
     21 C11       -0.0596    2.3590    4.5339 C.ar      1 RES1    0.0000
     22 O3         5.2408   -0.3720    9.4346 O.2       1 RES1    0.0000
     23 C12        5.0447    0.7954    9.7239 C.2       1 RES1    0.0000
     24 C13        6.1559    1.8195    9.9453 C.3       1 RES1    0.0000
     25 H4         5.7681    2.6705   10.1618 H         1 RES1    0.0000
     26 H5         6.7185    1.5303   10.6677 H         1 RES1    0.0000
     27 H6         6.6801    1.9008    9.1453 H         1 RES1    0.0000
     28 H7        -2.4166    2.4612    6.8215 H         1 RES1    0.0000
     29 H8         1.4689    1.3001    7.1851 H         1 RES1    0.0000
     30 H9         0.0913    2.5168    3.6629 H         1 RES1    0.0000
     31 H10        1.8733    1.8563    5.0699 H         1 RES1    0.0000
     32 H11       -2.0338    2.8784    4.5640 H         1 RES1    0.0000
     33 C14        6.0380    2.2318    9.4615 Du        2 SUP2    0.0000
     34 H12        5.5246    3.0418    9.5010 Du        2 SUP2    0.0000
     35 H13        6.6532    2.2061   10.1982 Du        2 SUP2    0.0000
     36 H14        6.5275    2.2040    8.6363 Du        2 SUP2    0.0000
     37 C15        5.1063    1.0373    9.5374 Du        2 SUP2    0.0000
     38 O4         5.4703   -0.1349    9.5089 Du        2 SUP2    0.0000
     39 C16        6.0222    2.0719   10.2361 Du        2 SUP2    0.0000
     40 H15        5.5437    2.9048   10.1729 Du        2 SUP2    0.0000
     41 H16        6.3293    1.9502   11.1372 Du        2 SUP2    0.0000
     42 H17        6.7760    2.0934    9.6417 Du        2 SUP2    0.0000
     43 O5         5.4003   -0.2712    9.8267 Du        2 SUP2    0.0000
     44 C17        5.0916    0.9177    9.8488 Du        2 SUP2    0.0000
@<TRIPOS>BOND
     1    1    2 1
     2    2    8 1
     3    3    1 1
     4    4    1 2
     5    5    4 1
     6    6    7 1
     7    7    4 1
     8    8    7 2
     9    9    5 ar
    10   10    6 1
    11   11   12 2
    12   12    6 1
    13   13    5 ar
    14   14   10 2
    15   15   13 ar
    16   16    9 ar
    17   17   12 1
    18   18   17 1
    19   19   17 1
    20   20   17 1
    21   21   15 ar
    22   22   23 2
    23   23   11 1
    24   24   23 1
    25   25   24 1
    26   26   24 1
    27   27   24 1
    28   28   13 1
    29   29    9 1
    30   30   21 1
    31   31   16 1
    32   32   15 1
    33   11   14 1
    34   16   21 ar
@<TRIPOS>SUBSTRUCTURE
     1 RES1 1
     2 SUP2 33

