# MOL2 file generated by ConQuest
# Please check atom types

@<TRIPOS>MOLECULE
FEBBIZ
    32    33     1
SMALL
NO_CHARGES
****
Generated from CSD

@<TRIPOS>ATOM
      1 O1         2.6915   -0.9136    4.0521 O.2       1 RES1    0.0000
      2 O2         0.6370    0.6907    3.2939 O.3       1 RES1    0.0000
      3 O3         0.9576    2.9301    3.4787 O.3       1 RES1    0.0000
      4 O4         0.3838    3.0792    6.3269 O.3       1 RES1    0.0000
      5 H1        -0.1307    3.5948    5.9084 H         1 RES1    0.0000
      6 O5         2.9780    4.5841    7.9685 O.2       1 RES1    0.0000
      7 O6         1.8747    3.0259    8.9729 O.2       1 RES1    0.0000
      8 N1         2.4977    3.4575    8.0192 N.pl3     1 RES1    0.0000
      9 C1         2.3729   -0.0479    4.8318 C.2       1 RES1    0.0000
     10 C2         1.2473    0.9058    4.5578 C.3       1 RES1    0.0000
     11 H2         0.5613    0.8396    5.2822 H         1 RES1    0.0000
     12 C3         1.7894    2.3485    4.4796 C.3       1 RES1    0.0000
     13 H3         2.7397    2.3386    4.1688 H         1 RES1    0.0000
     14 C4         1.6765    3.1445    5.7630 C.3       1 RES1    0.0000
     15 H4         1.9022    4.1000    5.5752 H         1 RES1    0.0000
     16 C5         2.6692    2.5896    6.7897 C.3       1 RES1    0.0000
     17 H5         3.5950    2.7243    6.4357 H         1 RES1    0.0000
     18 C6         2.5110    1.1231    7.1686 C.3       1 RES1    0.0000
     19 H6         1.5473    0.9227    7.2729 H         1 RES1    0.0000
     20 H7         2.9469    0.9704    8.0447 H         1 RES1    0.0000
     21 C7         3.1095    0.1522    6.1416 C.3       1 RES1    0.0000
     22 H8         4.0249    0.4632    5.9284 H         1 RES1    0.0000
     23 H9         3.1963   -0.7332    6.5780 H         1 RES1    0.0000
     24 C8         0.7276    1.9018    2.5169 C.3       1 RES1    0.0000
     25 C9        -0.6051    2.1443    1.8622 C.3       1 RES1    0.0000
     26 H10       -1.3060    2.1668    2.5465 H         1 RES1    0.0000
     27 H11       -0.7930    1.4233    1.2255 H         1 RES1    0.0000
     28 H12       -0.5851    3.0017    1.3879 H         1 RES1    0.0000
     29 C10        1.8695    1.7997    1.5311 C.3       1 RES1    0.0000
     30 H13        1.9223    2.6253    1.0062 H         1 RES1    0.0000
     31 H14        1.7151    1.0404    0.9309 H         1 RES1    0.0000
     32 H15        2.7100    1.6662    2.0174 H         1 RES1    0.0000
@<TRIPOS>BOND
     1    1    9 2
     2    2   10 1
     3    3   12 1
     4    4    5 1
     5    6    8 2
     6    7    8 2
     7    8   16 1
     8    9   10 1
     9   10   11 1
    10   12   10 1
    11   13   12 1
    12   14    4 1
    13   15   14 1
    14   16   14 1
    15   17   16 1
    16   18   16 1
    17   19   18 1
    18   20   18 1
    19   21    9 1
    20   22   21 1
    21   23   21 1
    22   24    2 1
    23   25   24 1
    24   26   25 1
    25   27   25 1
    26   28   25 1
    27   29   24 1
    28   30   29 1
    29   31   29 1
    30   32   29 1
    31    3   24 1
    32   12   14 1
    33   18   21 1
@<TRIPOS>SUBSTRUCTURE
     1 RES1 1

@<TRIPOS>CRYSIN
   7.4247    9.3395   16.7423  90.0000  90.0000  90.0000  19 1

