# MOL2 file generated by ConQuest
# Please check atom types

@<TRIPOS>MOLECULE
FEBGIF
    96    94     2
SMALL
NO_CHARGES
****
Generated from CSD

@<TRIPOS>ATOM
      1 O1         4.6702   11.9157    5.6656 O.3       1 RES1    0.0000
      2 O2         6.6969   11.2199    4.9762 O.2       1 RES1    0.0000
      3 O3         6.4075   11.9962    8.4488 O.2       1 RES1    0.0000
      4 O4         4.4128   11.8451    9.5444 O.3       1 RES1    0.0000
      5 N1         4.8655   10.4416    7.9216 N.am      1 RES1    0.0000
      6 H1         4.1533   10.0317    8.1733 H         1 RES1    0.0000
      7 C1         5.3320   11.4870    8.6338 C.2       1 RES1    0.0000
      8 C2         5.7357   11.1206    5.7037 C.2       1 RES1    0.0000
      9 C3         5.5745   10.0110    6.7249 C.3       1 RES1    0.0000
     10 H2         6.4679    9.7088    6.9910 H         1 RES1    0.0000
     11 N2         4.7250    5.9702    5.1326 N.pl3     1 RES1    0.0000
     12 C4         4.8332    8.8248    6.1061 C.3       1 RES1    0.0000
     13 H3         4.8087    8.1044    6.7545 H         1 RES1    0.0000
     14 H4         3.9176    9.0919    5.9297 H         1 RES1    0.0000
     15 C5         4.6075   13.0644    4.7131 C.3       1 RES1    0.0000
     16 C6         5.4353    8.2970    4.8256 C.3       1 RES1    0.0000
     17 H5         5.4663    9.0132    4.1715 H         1 RES1    0.0000
     18 H6         6.3476    8.0154    4.9972 H         1 RES1    0.0000
     19 C7         4.6435   12.9940   10.4588 C.3       1 RES1    0.0000
     20 C8         5.8691   12.7290   11.3140 C.3       1 RES1    0.0000
     21 H7         5.7567   11.9010   11.7879 H         1 RES1    0.0000
     22 H8         5.9798   13.4453   11.9443 H         1 RES1    0.0000
     23 H9         6.6456   12.6732   10.7524 H         1 RES1    0.0000
     24 O5         5.7662    5.6224    5.5760 O.2       1 RES1    0.0000
     25 C9         3.3917   12.9754   11.3064 C.3       1 RES1    0.0000
     26 H10        2.6244   13.1037   10.7448 H         1 RES1    0.0000
     27 H11        3.4360   13.6792   11.9567 H         1 RES1    0.0000
     28 H12        3.3215   12.1287   11.7546 H         1 RES1    0.0000
     29 C10        5.7722   13.9856    4.9886 C.3       1 RES1    0.0000
     30 H13        5.8423   14.1388    5.9335 H         1 RES1    0.0000
     31 H14        5.6329   14.8198    4.5376 H         1 RES1    0.0000
     32 H15        6.5823   13.5799    4.6692 H         1 RES1    0.0000
     33 C11        4.7538   14.2588    9.6702 C.3       1 RES1    0.0000
     34 H16        5.5587   14.2402    9.1458 H         1 RES1    0.0000
     35 H17        4.7804   15.0082   10.2690 H         1 RES1    0.0000
     36 H18        3.9948   14.3417    9.0877 H         1 RES1    0.0000
     37 C12        4.6656    7.1460    4.2535 C.3       1 RES1    0.0000
     38 H19        3.7399    7.4089    4.1305 H         1 RES1    0.0000
     39 H20        5.0294    6.9162    3.3849 H         1 RES1    0.0000
     40 C13        3.2838   13.7082    5.0954 C.3       1 RES1    0.0000
     41 H21        2.5688   13.0851    4.9457 H         1 RES1    0.0000
     42 H22        3.1430   14.4928    4.5596 H         1 RES1    0.0000
     43 H23        3.3046   13.9545    6.0232 H         1 RES1    0.0000
     44 O6         3.7248    5.4319    5.4282 O.2       1 RES1    0.0000
     45 C14        4.5593   12.5117    3.2991 C.3       1 RES1    0.0000
     46 H24        5.4146   12.1411    3.0702 H         1 RES1    0.0000
     47 H25        4.3423   13.2197    2.6869 H         1 RES1    0.0000
     48 H26        3.8886   11.8265    3.2457 H         1 RES1    0.0000
     49 O7         2.0654    9.4777    7.9740 O.2       2 RES2    0.0000
     50 O8        -0.1275    9.1830    3.2790 O.3       2 RES2    0.0000
     51 O9         0.0819    8.7499    7.1797 O.3       2 RES2    0.0000
     52 O10        1.8456    8.9532    4.4099 O.2       2 RES2    0.0000
     53 N3         0.2597   10.4250    5.0544 N.am      2 RES2    0.0000
     54 H27       -0.4627   10.8390    4.8361 H         2 RES2    0.0000
     55 N4         0.0874   14.7412    8.0722 N.pl3     2 RES2    0.0000
     56 C15        0.7508    9.4583    4.2621 C.2       2 RES2    0.0000
     57 C16        1.1126    9.5949    7.2284 C.2       2 RES2    0.0000
     58 O11        1.1568   15.2028    7.7814 O.2       2 RES2    0.0000
     59 C17        0.9496   10.7645    6.2758 C.3       2 RES2    0.0000
     60 H28        1.8430   11.0916    6.0394 H         2 RES2    0.0000
     61 C18        0.1141    8.0858    2.3351 C.3       2 RES2    0.0000
     62 O12       -0.9681   15.2566    7.7461 O.2       2 RES2    0.0000
     63 C19        0.1955   11.9072    6.9652 C.3       2 RES2    0.0000
     64 H29        0.1387   12.6566    6.3521 H         2 RES2    0.0000
     65 H30       -0.7095   11.6112    7.1530 H         2 RES2    0.0000
     66 C20        0.0470    7.5517    8.0712 C.3       2 RES2    0.0000
     67 C21        0.0245   13.5178    8.8932 C.3       2 RES2    0.0000
     68 H31       -0.9001   13.2424    8.9895 H         2 RES2    0.0000
     69 H32        0.3755   13.7041    9.7780 H         2 RES2    0.0000
     70 C22        0.0102    8.0154    9.5148 C.3       2 RES2    0.0000
     71 H33        0.8460    8.4315    9.7389 H         2 RES2    0.0000
     72 H34       -0.1355    7.2619   10.0898 H         2 RES2    0.0000
     73 H35       -0.7026    8.6489    9.6302 H         2 RES2    0.0000
     74 C23        0.8284   12.3833    8.2581 C.3       2 RES2    0.0000
     75 H36        1.7302   12.6918    8.0789 H         2 RES2    0.0000
     76 H37        0.8833   11.6422    8.8808 H         2 RES2    0.0000
     77 C24        1.3404    8.3715    1.5075 C.3       2 RES2    0.0000
     78 H38        1.2187    9.1954    1.0279 H         2 RES2    0.0000
     79 H39        1.4796    7.6552    0.8829 H         2 RES2    0.0000
     80 H40        2.1054    8.4481    2.0834 H         2 RES2    0.0000
     81 C25        1.2213    6.6471    7.7537 C.3       2 RES2    0.0000
     82 H41        1.2478    6.4753    6.8088 H         2 RES2    0.0000
     83 H42        1.1228    5.8170    8.2257 H         2 RES2    0.0000
     84 H43        2.0376    7.0735    8.0236 H         2 RES2    0.0000
     85 C26       -1.2557    6.9079    7.6727 C.3       2 RES2    0.0000
     86 H44       -1.9792    7.5145    7.8481 H         2 RES2    0.0000
     87 H45       -1.3834    6.1027    8.1799 H         2 RES2    0.0000
     88 H46       -1.2352    6.6968    6.7364 H         2 RES2    0.0000
     89 C27       -1.1361    8.1355    1.4655 C.3       2 RES2    0.0000
     90 H47       -1.9131    8.0175    2.0147 H         2 RES2    0.0000
     91 H48       -1.0977    7.4317    0.8114 H         2 RES2    0.0000
     92 H49       -1.1825    8.9842    1.0202 H         2 RES2    0.0000
     93 C28        0.1947    6.7816    3.0845 C.3       2 RES2    0.0000
     94 H50        0.9973    6.7651    3.6099 H         2 RES2    0.0000
     95 H51        0.2053    6.0550    2.4590 H         2 RES2    0.0000
     96 H52       -0.5674    6.6968    3.6623 H         2 RES2    0.0000
@<TRIPOS>BOND
     1    1    8 1
     2    2    8 2
     3    3    7 2
     4    4    7 1
     5    5    6 1
     6    7    5 1
     7    8    9 1
     8    9    5 1
     9   10    9 1
    10   11   24 2
    11   12    9 1
    12   13   12 1
    13   14   12 1
    14   15    1 1
    15   16   12 1
    16   17   16 1
    17   18   16 1
    18   19    4 1
    19   20   19 1
    20   21   20 1
    21   22   20 1
    22   23   20 1
    23   25   19 1
    24   26   25 1
    25   27   25 1
    26   28   25 1
    27   29   15 1
    28   30   29 1
    29   31   29 1
    30   32   29 1
    31   33   19 1
    32   34   33 1
    33   35   33 1
    34   36   33 1
    35   37   11 1
    36   38   37 1
    37   39   37 1
    38   40   15 1
    39   41   40 1
    40   42   40 1
    41   43   40 1
    42   44   11 2
    43   45   15 1
    44   46   45 1
    45   47   45 1
    46   48   45 1
    47   49   57 2
    48   50   56 1
    49   51   57 1
    50   52   56 2
    51   53   54 1
    52   55   58 2
    53   56   53 1
    54   57   59 1
    55   59   53 1
    56   60   59 1
    57   61   50 1
    58   62   55 2
    59   63   59 1
    60   64   63 1
    61   65   63 1
    62   66   51 1
    63   67   55 1
    64   68   67 1
    65   69   67 1
    66   70   66 1
    67   71   70 1
    68   72   70 1
    69   73   70 1
    70   74   63 1
    71   75   74 1
    72   76   74 1
    73   77   61 1
    74   78   77 1
    75   79   77 1
    76   80   77 1
    77   81   66 1
    78   82   81 1
    79   83   81 1
    80   84   81 1
    81   85   66 1
    82   86   85 1
    83   87   85 1
    84   88   85 1
    85   89   61 1
    86   90   89 1
    87   91   89 1
    88   92   89 1
    89   93   61 1
    90   94   93 1
    91   95   93 1
    92   96   93 1
    93   16   37 1
    94   67   74 1
@<TRIPOS>SUBSTRUCTURE
     1 RES1 1
     2 RES2 49

@<TRIPOS>CRYSIN
   9.2890   20.7010   10.6020  90.0000 115.9280  90.0000   4 1

