# MOL2 file generated by ConQuest
# Please check atom types

@<TRIPOS>MOLECULE
FEBJOM
    35    36     1
SMALL
NO_CHARGES
****
Generated from CSD

@<TRIPOS>ATOM
      1 O1         3.0813    7.5292   20.3205 O.2       1 RES1    0.0000
      2 O2         1.0348   10.4728   17.9068 O.2       1 RES1    0.0000
      3 O3         2.5619   11.8904   17.3817 O.2       1 RES1    0.0000
      4 N1         2.2109   10.8165   17.8438 N.pl3     1 RES1    0.0000
      5 C1         4.0707    7.2298   19.6752 C.2       1 RES1    0.0000
      6 C2         4.2302    7.5897   18.2129 C.3       1 RES1    0.0000
      7 H1         5.1078    8.0563   18.1026 H         1 RES1    0.0000
      8 C3         4.3005    6.2463   17.4384 C.3       1 RES1    0.0000
      9 H2         3.4312    5.7789   17.5195 H         1 RES1    0.0000
     10 H3         4.4572    6.4322   16.4781 H         1 RES1    0.0000
     11 C4         5.4007    5.3404   17.9546 C.3       1 RES1    0.0000
     12 H4         5.3785    4.4858   17.4556 H         1 RES1    0.0000
     13 H5         6.2777    5.7678   17.7860 H         1 RES1    0.0000
     14 C5         5.2645    5.0530   19.4319 C.3       1 RES1    0.0000
     15 H6         6.0491    4.5344   19.7410 H         1 RES1    0.0000
     16 H7         4.4533    4.5071   19.5910 H         1 RES1    0.0000
     17 C6         5.1659    6.3666   20.2319 C.3       1 RES1    0.0000
     18 H8         4.9788    6.1644   21.1822 H         1 RES1    0.0000
     19 H9         6.0280    6.8511   20.1853 H         1 RES1    0.0000
     20 C7         3.1256    8.5203   17.6739 C.3       1 RES1    0.0000
     21 H10        2.2413    8.1314   17.9332 H         1 RES1    0.0000
     22 C8         3.2590    9.8910   18.3536 C.3       1 RES1    0.0000
     23 H11        3.1638    9.7870   19.3328 H         1 RES1    0.0000
     24 H12        4.1554   10.2681   18.1693 H         1 RES1    0.0000
     25 C9         3.1616    8.6338   16.1563 C.ar      1 RES1    0.0000
     26 C10        2.1710    8.0392   15.3979 C.ar      1 RES1    0.0000
     27 H13        1.4424    7.6128   15.8339 H         1 RES1    0.0000
     28 C11        2.2214    8.0537   14.0070 C.ar      1 RES1    0.0000
     29 H14        1.5409    7.6315   13.4957 H         1 RES1    0.0000
     30 C12        3.2867    8.6986   13.3727 C.ar      1 RES1    0.0000
     31 H15        3.3376    8.7105   12.4239 H         1 RES1    0.0000
     32 C13        4.2523    9.3110   14.1144 C.ar      1 RES1    0.0000
     33 H16        4.9644    9.7639   13.6790 H         1 RES1    0.0000
     34 C14        4.2025    9.2786   15.5001 C.ar      1 RES1    0.0000
     35 H17        4.8874    9.7008   16.0061 H         1 RES1    0.0000
@<TRIPOS>BOND
     1    1    5 2
     2    2    4 2
     3    3    4 2
     4    4   22 1
     5    5    6 1
     6    6    7 1
     7    8    6 1
     8    9    8 1
     9   10    8 1
    10   11    8 1
    11   12   11 1
    12   13   11 1
    13   14   11 1
    14   15   14 1
    15   16   14 1
    16   17    5 1
    17   18   17 1
    18   19   17 1
    19   20    6 1
    20   21   20 1
    21   22   20 1
    22   23   22 1
    23   24   22 1
    24   25   20 1
    25   26   25 ar
    26   27   26 1
    27   28   26 ar
    28   29   28 1
    29   30   28 ar
    30   31   30 1
    31   32   30 ar
    32   33   32 1
    33   34   25 ar
    34   35   34 1
    35   14   17 1
    36   32   34 ar
@<TRIPOS>SUBSTRUCTURE
     1 RES1 1

@<TRIPOS>CRYSIN
   5.5369    8.5297   27.7690  90.0000  90.0000  90.0000  19 1

