# MOL2 file generated by ConQuest
# Please check atom types

@<TRIPOS>MOLECULE
FEBKAZ
    17    13     2
SMALL
NO_CHARGES
****
Generated from CSD

@<TRIPOS>ATOM
      1 O1        -0.0629    1.0694    7.0485 O.3       1 RES1    0.0000
      2 O2         1.7892    1.6392    8.1625 O.2       1 RES1    0.0000
      3 O3        -1.9829    2.7856   11.2012 O.2       1 RES1    0.0000
      4 O4        -0.2921    3.7520   12.1286 O.2       1 RES1    0.0000
      5 N1        -0.7960    3.0618   11.2537 N.pl3     1 RES1    0.0000
      6 C1         0.5993    1.5516    8.0990 C.2       1 RES1    0.0000
      7 C2        -0.3427    1.9556    9.1602 C.2       1 RES1    0.0000
      8 C3         0.1035    2.5876   10.2123 C.2       1 RES1    0.0000
      9 C4         0.7452    0.6568    5.9134 C.3       1 RES1    0.0000
     10 H1         0.1729    0.3270    5.2169 H         1 RES1    0.0000
     11 H2         1.3496   -0.0375    6.1867 H         1 RES1    0.0000
     12 H3         1.2464    1.4078    5.5868 H         1 RES1    0.0000
     13 H4         1.6728    0.8046    6.1100 Du        2 SUP2    0.0000
     14 H5         0.4961    1.1691    5.1403 Du        2 SUP2    0.0000
     15 H6         0.5995   -0.2762    5.7385 Du        2 SUP2    0.0000
     16 H7        -1.2385    1.7723    9.0526 H         1 RES1    0.0000
     17 H8         1.0196    2.7421   10.3806 H         1 RES1    0.0000
@<TRIPOS>BOND
     1    1    6 1
     2    2    6 2
     3    3    5 2
     4    4    5 2
     5    5    8 1
     6    6    7 1
     7    7    8 2
     8    8   17 1
     9    9    1 1
    10   10    9 1
    11   11    9 1
    12   12    9 1
    13   16    7 1
@<TRIPOS>SUBSTRUCTURE
     1 RES1 1
     2 SUP2 13

@<TRIPOS>CRYSIN
   5.3560    6.6880   16.7870  90.0000  96.9900  90.0000 231 1

