# MOL2 file generated by ConQuest
# Please check atom types

@<TRIPOS>MOLECULE
FEBQOV
   300   298     2
SMALL
NO_CHARGES
****
Generated from CSD

@<TRIPOS>ATOM
      1 O1         8.3730   15.5874   -1.2492 O.2       1 RES1    0.0000
      2 O2         6.9871   19.5201    4.1744 O.3       1 RES1    0.0000
      3 O3         7.8670   10.4571   -1.2546 O.2       1 RES1    0.0000
      4 O4        11.2404   10.5185   -2.5939 O.2       1 RES1    0.0000
      5 O5         5.8414   15.7839    0.7488 O.2       1 RES1    0.0000
      6 O6        10.1976   13.7449    1.0872 O.2       1 RES1    0.0000
      7 O7         7.5531   17.5363    3.2257 O.2       1 RES1    0.0000
      8 O8        13.3446   14.6068   -4.7324 O.3       1 RES1    0.0000
      9 O9         7.8968   11.4848    2.0737 O.2       1 RES1    0.0000
     10 N1         6.9613   13.0591    0.8712 N.am      1 RES1    0.0000
     11 H1         6.7485   13.8882    0.7938 H         1 RES1    0.0000
     12 N2         5.5051   18.4903    2.9863 N.am      1 RES1    0.0000
     13 H2         5.0359   19.2048    3.0799 H         1 RES1    0.0000
     14 N3        11.0136   11.3927   -0.5526 N.am      1 RES1    0.0000
     15 H3        10.5018   11.8349   -0.0216 H         1 RES1    0.0000
     16 N4         6.3152   17.9069    0.3348 N.am      1 RES1    0.0000
     17 H4         6.2807   18.7298    0.5814 H         1 RES1    0.0000
     18 N5         8.9577   16.9385    0.3906 N.am      1 RES1    0.0000
     19 H5         8.8211   17.6612    0.8370 H         1 RES1    0.0000
     20 N6         8.6285   12.5759   -1.3735 N.am      1 RES1    0.0000
     21 H6         8.5484   13.3805   -1.0818 H         1 RES1    0.0000
     22 N7         8.6025   14.8442    2.2213 N.am      1 RES1    0.0000
     23 H7         8.2222   15.6058    2.3347 H         1 RES1    0.0000
     24 O10       10.9123   10.4080    1.9315 O.3       1 RES1    0.0000
     25 N8         9.7671   20.2304   -3.1483 N.pl3     1 RES1    0.0000
     26 O11       12.4155    8.8767    1.3987 O.2       1 RES1    0.0000
     27 C1         6.7453   18.4187    3.4363 C.2       1 RES1    0.0000
     28 C2         7.7565   11.6445   -0.9234 C.2       1 RES1    0.0000
     29 C3        10.3872   13.6036   -2.6533 C.3       1 RES1    0.0000
     30 H8         9.7264   14.2424   -2.9683 H         1 RES1    0.0000
     31 H9        10.7764   13.9660   -1.8415 H         1 RES1    0.0000
     32 C4         7.5271   18.7687   -1.6111 C.3       1 RES1    0.0000
     33 H10        6.8120   19.4136   -1.7371 H         1 RES1    0.0000
     34 H11        8.2178   19.1884   -1.0746 H         1 RES1    0.0000
     35 C5         6.9831   17.5343   -0.8784 C.3       1 RES1    0.0000
     36 H12        6.3468   17.0716   -1.4635 H         1 RES1    0.0000
     37 C6         9.6705   12.2996   -2.3041 C.3       1 RES1    0.0000
     38 H13        9.2709   11.9352   -3.1213 H         1 RES1    0.0000
     39 O12        9.9416   21.3994   -3.4003 O.2       1 RES1    0.0000
     40 C7         7.6237   12.6845    1.8793 C.2       1 RES1    0.0000
     41 C8         5.6159   12.8155   -1.0746 C.3       1 RES1    0.0000
     42 H14        5.5406   12.2771   -1.8757 H         1 RES1    0.0000
     43 H15        6.0139   13.6610   -1.3320 H         1 RES1    0.0000
     44 C9        11.8430    9.8552    1.1358 C.2       1 RES1    0.0000
     45 C10       10.7054   11.3087   -1.7875 C.2       1 RES1    0.0000
     46 C11        4.2145   13.0959   -0.5688 C.3       1 RES1    0.0000
     47 H16        4.2818   13.6057    0.2646 H         1 RES1    0.0000
     48 C12        3.5092   17.6428    1.9711 C.3       1 RES1    0.0000
     49 H17        3.4940   18.4043    1.3699 H         1 RES1    0.0000
     50 H18        3.0322   17.8925    2.7775 H         1 RES1    0.0000
     51 C13        6.5553   12.1338   -0.1530 C.3       1 RES1    0.0000
     52 H19        6.1037   11.3701    0.2628 H         1 RES1    0.0000
     53 C14        4.9728   17.3275    2.3365 C.3       1 RES1    0.0000
     54 H20        4.9936   16.5700    2.9593 H         1 RES1    0.0000
     55 C15       11.0657   16.7870    1.6129 C.3       1 RES1    0.0000
     56 H21       11.7651   16.1626    1.8577 H         1 RES1    0.0000
     57 H22       10.6021   17.0470    2.4247 H         1 RES1    0.0000
     58 C16        5.7534   16.9570    1.0674 C.2       1 RES1    0.0000
     59 C17       10.0980   16.1012    0.6966 C.3       1 RES1    0.0000
     60 H23       10.5577   15.8801   -0.1404 H         1 RES1    0.0000
     61 C18        8.1395   16.5926   -0.5598 C.2       1 RES1    0.0000
     62 C19        8.0455   13.7060    2.9305 C.3       1 RES1    0.0000
     63 C20       13.6601   12.7295   -0.7020 C.3       1 RES1    0.0000
     64 H24       12.8645   13.1123   -1.1286 H         1 RES1    0.0000
     65 C21       12.1751   10.7724   -0.0324 C.3       1 RES1    0.0000
     66 H25       12.5772   10.2299   -0.7434 H         1 RES1    0.0000
     67 C22        9.6797   14.7992    1.3915 C.2       1 RES1    0.0000
     68 C23        2.6935   15.2353    2.1241 C.3       1 RES1    0.0000
     69 H26        2.3819   15.4584    3.0043 H         1 RES1    0.0000
     70 H27        3.5646   14.8361    2.1853 H         1 RES1    0.0000
     71 H28        2.0851   14.6150    1.7173 H         1 RES1    0.0000
     72 O13       10.4970   19.6060   -2.4823 O.2       1 RES1    0.0000
     73 C24       11.4730   13.4910   -3.6937 C.3       1 RES1    0.0000
     74 H29       11.0743   13.3007   -4.5578 H         1 RES1    0.0000
     75 H30       12.0625   12.7561   -3.4651 H         1 RES1    0.0000
     76 C25       12.3067   14.8320   -3.7783 C.3       1 RES1    0.0000
     77 H31       11.7391   15.5649   -4.0628 H         1 RES1    0.0000
     78 H32       12.6845   15.0490   -2.9125 H         1 RES1    0.0000
     79 C26        9.3413   19.8497    3.5893 C.3       1 RES1    0.0000
     80 H33        9.6215   18.9694    3.3337 H         1 RES1    0.0000
     81 H34       10.1004   20.3492    3.8989 H         1 RES1    0.0000
     82 H35        8.9539   20.2939    2.8315 H         1 RES1    0.0000
     83 C27       11.7228   18.0727    0.9630 C.3       1 RES1    0.0000
     84 H36       11.0113   18.7278    0.8082 H         1 RES1    0.0000
     85 C28        2.7719   16.4636    1.3014 C.3       1 RES1    0.0000
     86 H37        3.2021   16.2548    0.4464 H         1 RES1    0.0000
     87 C29        8.1008   18.3695   -2.9611 C.3       1 RES1    0.0000
     88 H38        7.4216   17.9069   -3.4777 H         1 RES1    0.0000
     89 H39        8.8440   17.7615   -2.8297 H         1 RES1    0.0000
     90 C30        8.3273   19.7534    4.6856 C.3       1 RES1    0.0000
     91 C31        3.4732   13.9230   -1.5751 C.3       1 RES1    0.0000
     92 H40        3.6584   13.5955   -2.4571 H         1 RES1    0.0000
     93 H41        3.7577   14.8381   -1.5067 H         1 RES1    0.0000
     94 H42        2.5306   13.8677   -1.4023 H         1 RES1    0.0000
     95 C32       13.1935   11.7960    0.4176 C.3       1 RES1    0.0000
     96 H43       13.9635   11.3313    0.7812 H         1 RES1    0.0000
     97 H44       12.8076   12.3282    1.1304 H         1 RES1    0.0000
     98 C33        8.5878   19.6224   -3.7477 C.3       1 RES1    0.0000
     99 H45        8.7914   19.3645   -4.6604 H         1 RES1    0.0000
    100 H46        7.8724   20.2775   -3.7747 H         1 RES1    0.0000
    101 C34       14.9614   16.1688   -3.8161 C.1       1 RES1    0.0000
    102 C35        8.6447   18.7524    5.7548 C.3       1 RES1    0.0000
    103 H47        7.9575   18.7708    6.4244 H         1 RES1    0.0000
    104 H48        9.4883   18.9714    6.1580 H         1 RES1    0.0000
    105 H49        8.6938   17.8762    5.3678 H         1 RES1    0.0000
    106 C36        9.1120   13.1041    3.8251 C.3       1 RES1    0.0000
    107 H50        9.8353   12.7786    3.2851 H         1 RES1    0.0000
    108 H51        8.7361   12.3794    4.3292 H         1 RES1    0.0000
    109 H52        9.4397   13.7756    4.4282 H         1 RES1    0.0000
    110 C37       12.6796   18.6561    1.9837 C.3       1 RES1    0.0000
    111 H53       13.4337   18.0706    2.0881 H         1 RES1    0.0000
    112 H54       12.2287   18.7503    2.8261 H         1 RES1    0.0000
    113 H55       12.9816   19.5160    1.6831 H         1 RES1    0.0000
    114 C38       14.1171   15.7941   -4.9610 C.3       1 RES1    0.0000
    115 H56       13.5136   16.5270   -5.1608 H         1 RES1    0.0000
    116 H57       14.6828   15.6570   -5.7368 H         1 RES1    0.0000
    117 C39        6.8221   14.1257    3.7009 C.3       1 RES1    0.0000
    118 H58        7.0530   14.8361    4.3058 H         1 RES1    0.0000
    119 H59        6.4850   13.3785    4.1996 H         1 RES1    0.0000
    120 H60        6.1491   14.4328    3.0889 H         1 RES1    0.0000
    121 C40       14.4880   11.9966   -1.8001 C.3       1 RES1    0.0000
    122 H61       14.6214   12.5862   -2.5471 H         1 RES1    0.0000
    123 H62       14.0113   11.2146   -2.0917 H         1 RES1    0.0000
    124 H63       15.3384   11.7386   -1.4401 H         1 RES1    0.0000
    125 C41        8.1167   21.1721    5.3444 C.3       1 RES1    0.0000
    126 H64        7.8916   21.8109    4.6640 H         1 RES1    0.0000
    127 H65        8.9269   21.4444    5.7836 H         1 RES1    0.0000
    128 H66        7.4062   21.1251    5.9870 H         1 RES1    0.0000
    129 C42       10.5771    9.7529    3.1807 C.3       1 RES1    0.0000
    130 H67       10.3349    8.8398    3.0061 H         1 RES1    0.0000
    131 H68        9.8384   10.2073    3.5911 H         1 RES1    0.0000
    132 H69       11.3354    9.7774    3.7675 H         1 RES1    0.0000
    133 C43        1.3212   16.9774    1.0386 C.3       1 RES1    0.0000
    134 H70        0.8115   16.2875    0.6066 H         1 RES1    0.0000
    135 H71        1.3544   17.7513    0.4734 H         1 RES1    0.0000
    136 H72        0.9062   17.2067    1.8721 H         1 RES1    0.0000
    137 C44       12.3701   17.7881   -0.3438 C.3       1 RES1    0.0000
    138 H73       12.8315   18.5722   -0.6498 H         1 RES1    0.0000
    139 H74       11.6992   17.5404   -0.9864 H         1 RES1    0.0000
    140 H75       12.9948   17.0675   -0.2412 H         1 RES1    0.0000
    141 C45       14.4716   13.8780   -0.1008 C.3       1 RES1    0.0000
    142 H76       13.9799   14.2731    0.6228 H         1 RES1    0.0000
    143 H77       14.6379   14.5413   -0.7740 H         1 RES1    0.0000
    144 H78       15.3078   13.5402    0.2286 H         1 RES1    0.0000
    145 C46       15.6812   16.5148   -2.9323 C.1       1 RES1    0.0000
    146 H79       16.2425   16.7850   -2.2429 H         1 RES1    0.0000
    147 C47        3.4901   11.8328   -0.2880 C.3       1 RES1    0.0000
    148 H80        2.6701   12.0293    0.1692 H         1 RES1    0.0000
    149 H81        4.0362   11.2678    0.2628 H         1 RES1    0.0000
    150 H82        3.2976   11.3845   -1.1142 H         1 RES1    0.0000
    151 O14       14.4711    2.9234   12.2315 O.2       2 RES2    0.0000
    152 O15       13.8310    4.8641    7.7439 O.2       2 RES2    0.0000
    153 O16       15.0062    0.9438   13.1981 O.3       2 RES2    0.0000
    154 O17       16.2662    4.6779    9.7582 O.2       2 RES2    0.0000
    155 O18       10.9986    9.9514    6.4172 O.2       2 RES2    0.0000
    156 O19       14.3341   10.0047    7.7457 O.2       2 RES2    0.0000
    157 N9        15.1329    7.3802    9.8626 N.am      2 RES2    0.0000
    158 H83       15.3133    6.5449    9.7726 H         2 RES2    0.0000
    159 O20       14.1581    8.9913   11.0920 O.2       2 RES2    0.0000
    160 O21       11.8737    6.6984   10.0606 O.2       2 RES2    0.0000
    161 N10       13.1754    3.5294    9.4072 N.am      2 RES2    0.0000
    162 H84       13.3202    2.8067    9.8482 H         2 RES2    0.0000
    163 N11       13.5859    7.8817    7.6431 N.am      2 RES2    0.0000
    164 H85       13.6560    7.0792    7.9437 H         2 RES2    0.0000
    165 N12       15.8187    2.5549    9.3405 N.am      2 RES2    0.0000
    166 H86       15.8603    1.7299    9.5800 H         2 RES2    0.0000
    167 N13       13.4366    5.6011   11.2252 N.am      2 RES2    0.0000
    168 H87       13.7986    4.8334   11.3620 H         2 RES2    0.0000
    169 N14       11.1618    9.0691    8.4603 N.am      2 RES2    0.0000
    170 H88       11.6469    8.6167    9.0075 H         2 RES2    0.0000
    171 N15       16.5207    1.9981   12.0010 N.am      2 RES2    0.0000
    172 H89       16.9960    1.2938   12.1325 H         2 RES2    0.0000
    173 O22       11.1607   10.0436   10.9138 O.3       2 RES2    0.0000
    174 O23        8.9916    5.8489    4.2770 O.3       2 RES2    0.0000
    175 C48       15.1540    2.9254    8.1489 C.3       2 RES2    0.0000
    176 H90       15.7958    3.4147    7.5909 H         2 RES2    0.0000
    177 C49       14.4507    7.7691   10.8940 C.2       2 RES2    0.0000
    178 C50       15.2451    2.0206   12.4637 C.2       2 RES2    0.0000
    179 N16       12.5189    0.2416    5.8466 N.pl3     2 RES2    0.0000
    180 C51       11.5358    9.1305    7.2021 C.2       2 RES2    0.0000
    181 C52       15.5955    8.3034    8.8725 C.3       2 RES2    0.0000
    182 H91       16.0335    9.0589    9.3189 H         2 RES2    0.0000
    183 C53       16.3616    3.4802   10.0606 C.2       2 RES2    0.0000
    184 C54       12.5623    8.1704    6.6872 C.3       2 RES2    0.0000
    185 H92       12.9738    8.5450    5.8790 H         2 RES2    0.0000
    186 C55       14.6985    1.7360    7.3731 C.3       2 RES2    0.0000
    187 H93       15.4446    1.1239    7.2759 H         2 RES2    0.0000
    188 H94       14.0085    1.2795    7.8807 H         2 RES2    0.0000
    189 C56       16.5886    7.6361    7.9311 C.3       2 RES2    0.0000
    190 H95       16.1970    6.8008    7.6305 H         2 RES2    0.0000
    191 H96       16.6840    8.2031    7.1499 H         2 RES2    0.0000
    192 O24        9.6765   11.5892   10.3810 O.2       2 RES2    0.0000
    193 C57       14.1747    2.0390    6.0518 C.3       2 RES2    0.0000
    194 H97       14.8616    2.5058    5.5478 H         2 RES2    0.0000
    195 H98       13.4241    2.6470    6.1508 H         2 RES2    0.0000
    196 C58       14.4347    8.8071    8.0859 C.2       2 RES2    0.0000
    197 C59       13.7284    0.8639    5.2634 C.3       2 RES2    0.0000
    198 H99       13.5390    1.1423    4.3526 H         2 RES2    0.0000
    199 H100      14.4435    0.2088    5.2328 H         2 RES2    0.0000
    200 C60       13.9888    3.8651    8.4387 C.2       2 RES2    0.0000
    201 C61        9.9699    9.7242    8.9787 C.3       2 RES2    0.0000
    202 H101       9.5772   10.2749    8.2695 H         2 RES2    0.0000
    203 C62       10.2753   10.5799   10.1254 C.2       2 RES2    0.0000
    204 C63       17.1012    3.1056   11.3044 C.3       2 RES2    0.0000
    205 H102      17.0703    3.8794   11.9056 H         2 RES2    0.0000
    206 C64       13.6630    0.7186   13.6949 C.3       2 RES2    0.0000
    207 O25       11.7503    0.8557    6.4982 O.2       2 RES2    0.0000
    208 C65       12.0480    4.3442    9.7456 C.3       2 RES2    0.0000
    209 H103      11.6043    4.5673    8.8995 H         2 RES2    0.0000
    210 C66       19.3263    5.2470   11.1604 C.3       2 RES2    0.0000
    211 H104      19.6638    5.0361   12.0352 H         2 RES2    0.0000
    212 H105      18.4274    5.5766   11.2342 H         2 RES2    0.0000
    213 H106      19.8819    5.9185   10.7572 H         2 RES2    0.0000
    214 O26       12.3420   -0.9704    5.6054 O.2       2 RES2    0.0000
    215 C67        9.9938    5.6626    5.2598 C.3       2 RES2    0.0000
    216 H107      10.5563    4.9051    5.0348 H         2 RES2    0.0000
    217 H108       9.5945    5.5070    6.1310 H         2 RES2    0.0000
    218 C68        8.2174    4.7167    4.0574 C.3       2 RES2    0.0000
    219 H109       8.8105    3.9736    3.8665 H         2 RES2    0.0000
    220 H110       7.6744    4.8662    3.2671 H         2 RES2    0.0000
    221 C69       10.8184    6.9707    5.2634 C.3       2 RES2    0.0000
    222 H111      11.2355    7.1058    4.3976 H         2 RES2    0.0000
    223 H112      10.2403    7.7282    5.4452 H         2 RES2    0.0000
    224 C70       18.5770    2.8517   10.9624 C.3       2 RES2    0.0000
    225 H113      19.0419    2.6347   11.7850 H         2 RES2    0.0000
    226 H114      18.6207    2.0656   10.3936 H         2 RES2    0.0000
    227 C71        8.5094    7.7138    8.2983 C.3       2 RES2    0.0000
    228 H115       9.3163    7.3249    7.9023 H         2 RES2    0.0000
    229 C72       11.8637    6.8479    6.3290 C.3       2 RES2    0.0000
    230 H116      12.5347    6.2133    6.0338 H         2 RES2    0.0000
    231 H117      11.4509    6.4896    7.1283 H         2 RES2    0.0000
    232 C73       12.4434    5.6830   10.3918 C.2       2 RES2    0.0000
    233 C74       19.3374    3.9634   10.2766 C.3       2 RES2    0.0000
    234 H118      18.9194    4.1579    9.4108 H         2 RES2    0.0000
    235 C75       10.3902    2.4116    9.9580 C.3       2 RES2    0.0000
    236 H119      11.0970    1.7483    9.8140 H         2 RES2    0.0000
    237 C76       13.9602    6.7599   11.9398 C.3       2 RES2    0.0000
    238 C77       11.0377    3.6420   10.5772 C.3       2 RES2    0.0000
    239 H120      10.3368    4.2746   10.8004 H         2 RES2    0.0000
    240 H121      11.4623    3.3758   11.4070 H         2 RES2    0.0000
    241 C78       17.9614    7.3372    8.4513 C.3       2 RES2    0.0000
    242 H122      17.8740    6.8254    9.2811 H         2 RES2    0.0000
    243 C79        7.3101    4.3155    5.1788 C.1       2 RES2    0.0000
    244 C80       12.6374    0.6264   12.6113 C.3       2 RES2    0.0000
    245 H123      11.7951    0.3685   12.9893 H         2 RES2    0.0000
    246 H124      12.9133   -0.0266   11.9650 H         2 RES2    0.0000
    247 H125      12.5474    1.4822   12.1829 H         2 RES2    0.0000
    248 C81       12.8785    7.3331   12.8453 C.3       2 RES2    0.0000
    249 H126      12.1788    7.7118   12.3089 H         2 RES2    0.0000
    250 H127      13.2578    8.0168   13.4033 H         2 RES2    0.0000
    251 H128      12.5181    6.6350   13.3961 H         2 RES2    0.0000
    252 C82        8.9404    8.6781    9.4180 C.3       2 RES2    0.0000
    253 H129       8.1539    9.1367    9.7546 H         2 RES2    0.0000
    254 H130       9.3133    8.1601   10.1488 H         2 RES2    0.0000
    255 C83        7.7273    8.4652    7.1715 C.3       2 RES2    0.0000
    256 H131       6.8592    8.7149    7.4973 H         2 RES2    0.0000
    257 H132       7.6318    7.8899    6.4100 H         2 RES2    0.0000
    258 H133       8.2115    9.2533    6.9177 H         2 RES2    0.0000
    259 C84       20.7498    3.4864   10.0534 C.3       2 RES2    0.0000
    260 H134      21.1920    3.3902   10.9012 H         2 RES2    0.0000
    261 H135      21.2231    4.1272    9.5170 H         2 RES2    0.0000
    262 H136      20.7347    2.6409    9.6016 H         2 RES2    0.0000
    263 C85       13.2810    1.6767   14.7461 C.3       2 RES2    0.0000
    264 H137      13.2006    2.5549   14.3645 H         2 RES2    0.0000
    265 H138      13.9526    1.6848   15.4302 H         2 RES2    0.0000
    266 H139      12.4387    1.4146   15.1260 H         2 RES2    0.0000
    267 C86       18.6879    8.6249    8.7537 C.3       2 RES2    0.0000
    268 H140      19.5563    8.4242    9.1101 H         2 RES2    0.0000
    269 H141      18.1873    9.1305    9.3981 H         2 RES2    0.0000
    270 H142      18.7823    9.1367    7.9473 H         2 RES2    0.0000
    271 C87       15.1914    6.3279   12.7031 C.3       2 RES2    0.0000
    272 H143      14.9465    5.6707   13.3601 H         2 RES2    0.0000
    273 H144      15.5774    7.0895   13.1423 H         2 RES2    0.0000
    274 H145      15.8312    5.9512   12.0947 H         2 RES2    0.0000
    275 C88        9.3662    1.7954   10.9606 C.3       2 RES2    0.0000
    276 H146       8.6749    2.4362   11.1460 H         2 RES2    0.0000
    277 H147       9.8164    1.5661   11.7778 H         2 RES2    0.0000
    278 H148       8.9776    1.0072   10.5772 H         2 RES2    0.0000
    279 C89        7.7015    6.6063    8.8977 C.3       2 RES2    0.0000
    280 H149       8.2432    6.1191    9.5260 H         2 RES2    0.0000
    281 H150       7.4068    6.0126    8.2029 H         2 RES2    0.0000
    282 H151       6.9396    6.9728    9.3495 H         2 RES2    0.0000
    283 C90       18.7424    6.5203    7.4685 C.3       2 RES2    0.0000
    284 H152      18.2581    5.7158    7.2651 H         2 RES2    0.0000
    285 H153      19.5940    6.2931    7.8465 H         2 RES2    0.0000
    286 H154      18.8740    7.0260    6.6638 H         2 RES2    0.0000
    287 C91       13.8360   -0.6633   14.3699 C.3       2 RES2    0.0000
    288 H155      14.5928   -0.6387   14.9604 H         2 RES2    0.0000
    289 H156      13.9755   -1.3327   13.6967 H         2 RES2    0.0000
    290 H157      13.0464   -0.8742   14.8722 H         2 RES2    0.0000
    291 C92        6.5887    3.9388    6.0032 C.1       2 RES2    0.0000
    292 H158       6.0104    3.6358    6.6638 H         2 RES2    0.0000
    293 C93       11.4412   10.7580   12.1937 C.3       2 RES2    0.0000
    294 H159      11.6606   11.6731   12.0082 H         2 RES2    0.0000
    295 H160      12.1799   10.3363   12.6401 H         2 RES2    0.0000
    296 H161      10.6653   10.7232   12.7571 H         2 RES2    0.0000
    297 C94        9.7762    2.6736    8.6817 C.3       2 RES2    0.0000
    298 H162       9.0760    3.3206    8.7915 H         2 RES2    0.0000
    299 H163       9.4093    1.8589    8.3307 H         2 RES2    0.0000
    300 H164      10.4354    3.0155    8.0733 H         2 RES2    0.0000
@<TRIPOS>BOND
     1    1   61 2
     2    2   27 1
     3    3   28 2
     4    4   45 2
     5    5   58 2
     6    6   67 2
     7    7   27 2
     8    8   76 1
     9    9   40 2
    10   10   11 1
    11   12   13 1
    12   14   15 1
    13   16   17 1
    14   18   19 1
    15   20   21 1
    16   22   23 1
    17   24   44 1
    18   25   39 2
    19   26   44 2
    20   27   12 1
    21   28   20 1
    22   29   30 1
    23   31   29 1
    24   32   33 1
    25   34   32 1
    26   35   16 1
    27   36   35 1
    28   37   20 1
    29   38   37 1
    30   40   10 1
    31   41   42 1
    32   43   41 1
    33   44   65 1
    34   45   14 1
    35   46   41 1
    36   47   46 1
    37   48   49 1
    38   50   48 1
    39   51   10 1
    40   52   51 1
    41   53   12 1
    42   54   53 1
    43   55   56 1
    44   57   55 1
    45   58   16 1
    46   59   18 1
    47   60   59 1
    48   61   18 1
    49   62   22 1
    50   63   64 1
    51   65   14 1
    52   66   65 1
    53   67   22 1
    54   68   69 1
    55   70   68 1
    56   71   68 1
    57   72   25 2
    58   73   29 1
    59   74   73 1
    60   75   73 1
    61   76   73 1
    62   77   76 1
    63   78   76 1
    64   79   80 1
    65   81   79 1
    66   82   79 1
    67   83   55 1
    68   84   83 1
    69   85   48 1
    70   86   85 1
    71   87   32 1
    72   88   87 1
    73   89   87 1
    74   90    2 1
    75   91   46 1
    76   92   91 1
    77   93   91 1
    78   94   91 1
    79   95   63 1
    80   96   95 1
    81   97   95 1
    82   98   25 1
    83   99   98 1
    84  100   98 1
    85  101  114 1
    86  102   90 1
    87  103  102 1
    88  104  102 1
    89  105  102 1
    90  106   62 1
    91  107  106 1
    92  108  106 1
    93  109  106 1
    94  110   83 1
    95  111  110 1
    96  112  110 1
    97  113  110 1
    98  114    8 1
    99  115  114 1
   100  116  114 1
   101  117   62 1
   102  118  117 1
   103  119  117 1
   104  120  117 1
   105  121   63 1
   106  122  121 1
   107  123  121 1
   108  124  121 1
   109  125   90 1
   110  126  125 1
   111  127  125 1
   112  128  125 1
   113  129   24 1
   114  130  129 1
   115  131  129 1
   116  132  129 1
   117  133   85 1
   118  134  133 1
   119  135  133 1
   120  136  133 1
   121  137   83 1
   122  138  137 1
   123  139  137 1
   124  140  137 1
   125  141   63 1
   126  142  141 1
   127  143  141 1
   128  144  141 1
   129  145  101 3
   130  146  145 1
   131  147   46 1
   132  148  147 1
   133  149  147 1
   134  150  147 1
   135  151  178 2
   136  152  200 2
   137  153  178 1
   138  154  183 2
   139  155  180 2
   140  156  196 2
   141  157  158 1
   142  159  177 2
   143  160  232 2
   144  161  162 1
   145  163  164 1
   146  165  166 1
   147  167  168 1
   148  169  170 1
   149  171  172 1
   150  173  203 1
   151  174  215 1
   152  175  165 1
   153  176  175 1
   154  177  157 1
   155  178  171 1
   156  179  197 1
   157  180  169 1
   158  181  157 1
   159  182  181 1
   160  183  165 1
   161  184  163 1
   162  185  184 1
   163  186  175 1
   164  187  186 1
   165  188  186 1
   166  189  181 1
   167  190  189 1
   168  191  189 1
   169  192  203 2
   170  193  186 1
   171  194  193 1
   172  195  193 1
   173  196  163 1
   174  197  193 1
   175  198  197 1
   176  199  197 1
   177  200  161 1
   178  201  169 1
   179  202  201 1
   180  203  201 1
   181  204  171 1
   182  205  204 1
   183  206  153 1
   184  207  179 2
   185  208  161 1
   186  209  208 1
   187  210  211 1
   188  212  210 1
   189  213  210 1
   190  214  179 2
   191  215  216 1
   192  217  215 1
   193  218  174 1
   194  219  218 1
   195  220  218 1
   196  221  215 1
   197  222  221 1
   198  223  221 1
   199  224  204 1
   200  225  224 1
   201  226  224 1
   202  227  228 1
   203  229  184 1
   204  230  229 1
   205  231  229 1
   206  232  167 1
   207  233  210 1
   208  234  233 1
   209  235  236 1
   210  237  167 1
   211  238  208 1
   212  239  238 1
   213  240  238 1
   214  241  189 1
   215  242  241 1
   216  243  218 1
   217  244  206 1
   218  245  244 1
   219  246  244 1
   220  247  244 1
   221  248  237 1
   222  249  248 1
   223  250  248 1
   224  251  248 1
   225  252  201 1
   226  253  252 1
   227  254  252 1
   228  255  227 1
   229  256  255 1
   230  257  255 1
   231  258  255 1
   232  259  233 1
   233  260  259 1
   234  261  259 1
   235  262  259 1
   236  263  206 1
   237  264  263 1
   238  265  263 1
   239  266  263 1
   240  267  241 1
   241  268  267 1
   242  269  267 1
   243  270  267 1
   244  271  237 1
   245  272  271 1
   246  273  271 1
   247  274  271 1
   248  275  235 1
   249  276  275 1
   250  277  275 1
   251  278  275 1
   252  279  227 1
   253  280  279 1
   254  281  279 1
   255  282  279 1
   256  283  241 1
   257  284  283 1
   258  285  283 1
   259  286  283 1
   260  287  206 1
   261  288  287 1
   262  289  287 1
   263  290  287 1
   264  291  243 3
   265  292  291 1
   266  293  173 1
   267  294  293 1
   268  295  293 1
   269  296  293 1
   270  297  235 1
   271  298  297 1
   272  299  297 1
   273  300  297 1
   274   28   51 1
   275   29   37 1
   276   32   35 1
   277   35   61 1
   278   37   45 1
   279   40   62 1
   280   41   51 1
   281   48   53 1
   282   53   58 1
   283   55   59 1
   284   59   67 1
   285   65   95 1
   286   68   85 1
   287   79   90 1
   288   87   98 1
   289  175  200 1
   290  177  237 1
   291  180  184 1
   292  181  196 1
   293  183  204 1
   294  208  232 1
   295  221  229 1
   296  224  233 1
   297  227  252 1
   298  235  238 1
@<TRIPOS>SUBSTRUCTURE
     1 RES1 1
     2 RES2 151

@<TRIPOS>CRYSIN
  14.8850   20.4720   18.0040  90.0000  91.1020  90.0000   4 1

