# MOL2 file generated by ConQuest
# Please check atom types

@<TRIPOS>MOLECULE
FEBRUB
    20    20     1
SMALL
USER_CHARGES
****
Generated from CSD

@<TRIPOS>ATOM
      1 H1        -0.3252    2.4776    2.8954 H         1 RES1    0.0000
      2 H2         0.1144    3.4411    1.6386 H         1 RES1    0.0000
      3 H3        -0.7592    0.6469   -0.5535 H         1 RES1    0.0000
      4 H4        -4.7534    3.2071    1.9782 H         1 RES1    0.0000
      5 O1         0.5577    0.6585    1.4288 O.2       1 RES1    0.0000
      6 N1        -1.8312    3.2235    1.7860 N.pl3     1 RES1    0.0000
      7 O2        -0.9167    1.5154   -0.0323 O.3       1 RES1    0.0000
      8 N2        -2.8101    1.4480    2.9006 N.2       1 RES1    0.0000
      9 N3        -2.1212    4.3715    1.0693 N.2       1 RES1    0.0000
     10 C1        -0.2400    1.5299    1.0702 C.2       1 RES1    0.0000
     11 O3        -5.0758    1.3124    2.9426 O.2       1 RES1    0.0000
     12 N4        -3.9611    3.3543    1.7738 N.pl3     1 RES1    0.0000
     13 C2        -0.4764    2.7308    1.9423 C.3       1 RES1    0.0000
     14 C3        -2.9342    2.5939    2.2101 C.2       1 RES1    0.0000
     15 N5        -3.6823    6.1416   -0.2441 N.1       1 RES1    1.0000
     16 N6        -4.2716    5.3267    0.5048 N.2       1 RES1    0.0000
     17 N7        -3.9633    0.8603    3.2764 N.pl3     1 RES1    0.0000
     18 O4        -3.8613   -0.1555    3.9723 O.2       1 RES1    0.0000
     19 C4        -3.4215    4.4018    1.0964 C.2       1 RES1    0.0000
     20 N8        -3.3247    6.9323   -0.9491 N.2       1 RES1   -1.0000
@<TRIPOS>BOND
     1    1   13 1
     2    2   13 1
     3    3    7 1
     4    4   12 1
     5    5   10 2
     6    6    9 1
     7    7   10 1
     8    8   14 2
     9    9   19 2
    10   10   13 1
    11   11   17 2
    12   12   14 1
    13   13    6 1
    14   14    6 1
    15   15   16 2
    16   16   19 1
    17   17    8 1
    18   18   17 2
    19   19   12 1
    20   20   15 2
@<TRIPOS>SUBSTRUCTURE
     1 RES1 1

@<TRIPOS>CRYSIN
  10.3123    6.8821   12.2305  90.0000  98.8730  90.0000  14 1

