# MOL2 file generated by ConQuest
# Please check atom types

@<TRIPOS>MOLECULE
FECJEE
    40    43     1
SMALL
NO_CHARGES
****
Generated from CSD

@<TRIPOS>ATOM
      1 N1         5.8050    7.5467    4.5694 N.pl3     1 RES1    0.0000
      2 O1         4.7419    7.3903    3.9782 O.2       1 RES1    0.0000
      3 O2         5.9037    8.0684    5.6732 O.2       1 RES1    0.0000
      4 N2        10.5246    5.7764    2.1043 N.pl3     1 RES1    0.0000
      5 N3        12.2533    5.5634    0.6839 N.2       1 RES1    0.0000
      6 C1         7.0312    7.0627    3.9198 C.ar      1 RES1    0.0000
      7 C2         9.3191    6.2185    2.7161 C.ar      1 RES1    0.0000
      8 C3         9.3575    6.7075    4.0057 C.ar      1 RES1    0.0000
      9 H1        10.1663    6.7458    4.4632 H         1 RES1    0.0000
     10 C4        11.2508    4.6592    2.5240 C.ar      1 RES1    0.0000
     11 C5        12.3074    4.5480    1.6324 C.ar      1 RES1    0.0000
     12 C6         6.9616    6.5643    2.6429 C.ar      1 RES1    0.0000
     13 H2         6.1481    6.5188    2.1939 H         1 RES1    0.0000
     14 C7         8.1194    6.1336    2.0421 C.ar      1 RES1    0.0000
     15 H3         8.0944    5.7843    1.1803 H         1 RES1    0.0000
     16 C8         8.2073    7.1378    4.6150 C.ar      1 RES1    0.0000
     17 H4         8.2262    7.4726    5.4822 H         1 RES1    0.0000
     18 C9        11.1861    6.2663    0.9850 C.2       1 RES1    0.0000
     19 C10       11.0184    3.7532    3.5313 C.ar      1 RES1    0.0000
     20 H5        10.2989    3.8543    4.1119 H         1 RES1    0.0000
     21 C11       12.9767    2.5906    2.7650 C.ar      1 RES1    0.0000
     22 H6        13.5672    1.8790    2.8647 H         1 RES1    0.0000
     23 C12       10.7384    7.4275    0.2006 C.ar      1 RES1    0.0000
     24 C13       11.8887    2.6852    3.6502 C.ar      1 RES1    0.0000
     25 C14       13.2085    3.4968    1.7588 C.ar      1 RES1    0.0000
     26 H7        13.9373    3.4110    1.1877 H         1 RES1    0.0000
     27 C15       11.0524    7.4451   -1.1633 C.ar      1 RES1    0.0000
     28 H8        11.5029    6.7285   -1.5465 H         1 RES1    0.0000
     29 C16       10.0662    8.5108    0.7409 C.ar      1 RES1    0.0000
     30 H9         9.8591    8.5238    1.6473 H         1 RES1    0.0000
     31 C17       11.6601    1.6410    4.7254 C.3       1 RES1    0.0000
     32 H10       12.1202    1.9000    5.5267 H         1 RES1    0.0000
     33 H11       11.9941    0.7925    4.4239 H         1 RES1    0.0000
     34 H12       10.7199    1.5676    4.9058 H         1 RES1    0.0000
     35 C18       10.6928    8.5258   -1.9371 C.ar      1 RES1    0.0000
     36 H13       10.9045    8.5343   -2.8424 H         1 RES1    0.0000
     37 C19        9.7011    9.5736   -0.0626 C.ar      1 RES1    0.0000
     38 H14        9.2290   10.2878    0.3014 H         1 RES1    0.0000
     39 C20       10.0280    9.5854   -1.3883 C.ar      1 RES1    0.0000
     40 H15        9.7984   10.3141   -1.9180 H         1 RES1    0.0000
@<TRIPOS>BOND
     1    1    2 2
     2    3    1 2
     3    4    7 1
     4    5   11 1
     5    6    1 1
     6    7    8 ar
     7    8    9 1
     8   10    4 1
     9   11   10 ar
    10   12    6 ar
    11   13   12 1
    12   14    7 ar
    13   15   14 1
    14   16    6 ar
    15   17   16 1
    16   18    4 1
    17   19   10 ar
    18   20   19 1
    19   21   22 1
    20   23   18 1
    21   24   19 ar
    22   25   11 ar
    23   26   25 1
    24   27   23 ar
    25   28   27 1
    26   29   23 ar
    27   30   29 1
    28   31   24 1
    29   32   31 1
    30   33   31 1
    31   34   31 1
    32   35   27 ar
    33   36   35 1
    34   37   29 ar
    35   38   37 1
    36   39   35 ar
    37   40   39 1
    38    5   18 2
    39    8   16 ar
    40   12   14 ar
    41   21   24 ar
    42   21   25 ar
    43   37   39 ar
@<TRIPOS>SUBSTRUCTURE
     1 RES1 1

@<TRIPOS>CRYSIN
   8.2036   10.3079   10.9919  76.7960  78.8130  70.2290   2 1

