# MOL2 file generated by ConQuest
# Please check atom types

@<TRIPOS>MOLECULE
FECLUV
    50    45     2
SMALL
NO_CHARGES
****
Generated from CSD

@<TRIPOS>ATOM
      1 C1        -1.3692    1.1409   -2.6904 C.3       1 RES1    0.0000
      2 C2        -2.3769   -0.0659   -2.6558 C.3       1 RES1    0.0000
      3 C3        -2.5598   -0.6628   -1.2510 C.ar      1 RES1    0.0000
      4 C4        -3.2822   -0.0429   -0.2556 C.ar      1 RES1    0.0000
      5 C5        -3.3415   -0.5979    1.0070 C.ar      1 RES1    0.0000
      6 C6        -2.6629   -1.7828    1.2933 C.ar      1 RES1    0.0000
      7 C7        -1.9809   -2.4027    0.3075 C.ar      1 RES1    0.0000
      8 C8        -1.8769   -1.8537   -0.9532 C.ar      1 RES1    0.0000
      9 C9        -3.7555    0.2835   -3.2592 C.3       1 RES1    0.0000
     10 C10       -1.1021    1.5183   -4.1509 C.2       1 RES1    0.0000
     11 C11       -0.0696    2.6592   -4.2950 C.3       1 RES1    0.0000
     12 C12        1.2456    2.2040   -3.6974 C.3       1 RES1    0.0000
     13 C13        1.0841    1.7848   -2.2561 C.3       1 RES1    0.0000
     14 C14       -0.0069    0.7247   -2.1196 C.3       1 RES1    0.0000
     15 C15       -1.8786    2.3318   -1.8948 C.2       1 RES1    0.0000
     16 C16       -3.6765    4.0257   -1.8391 C.3       1 RES1    0.0000
     17 C17       -3.2127    5.1307   -2.4117 C.3       1 RES1    0.0000
     18 C18       -4.3208    4.7514   -2.3829 Du        2 SUP2    0.0000
     19 N1        -4.5742   -0.9822   -3.5590 N.pl3     1 RES1    0.0000
     20 O1        -3.9497   -1.9505   -3.9299 O.2       1 RES1    0.0000
     21 O2        -5.7192   -0.8834   -3.4821 O.2       1 RES1    0.0000
     22 O3        -1.4311    0.8545   -5.0771 O.2       1 RES1    0.0000
     23 O4        -1.5737    2.6552   -0.8186 O.2       1 RES1    0.0000
     24 O5        -2.8819    2.9367   -2.5732 O.3       1 RES1    0.0000
     25 H1        -2.0040   -0.7506   -3.1977 H         1 RES1    0.0000
     26 H2        -3.7409    0.7686   -0.4381 H         1 RES1    0.0000
     27 H3        -3.8492   -0.1687    1.6853 H         1 RES1    0.0000
     28 H4        -2.6809   -2.1481    2.1715 H         1 RES1    0.0000
     29 H5        -1.5625   -3.2362    0.4862 H         1 RES1    0.0000
     30 H6        -1.3461   -2.2789   -1.6181 H         1 RES1    0.0000
     31 H7        -3.6258    0.7666   -4.0663 H         1 RES1    0.0000
     32 H8        -4.2357    0.8215   -2.6404 H         1 RES1    0.0000
     33 H9         0.0515    2.8648   -5.2155 H         1 RES1    0.0000
     34 H10       -0.3797    3.4308   -3.8357 H         1 RES1    0.0000
     35 H11        1.8683    2.9197   -3.7435 H         1 RES1    0.0000
     36 H12        1.5737    1.4674   -4.1989 H         1 RES1    0.0000
     37 H13        0.8478    2.5434   -1.7353 H         1 RES1    0.0000
     38 H14        1.9061    1.4284   -1.9409 H         1 RES1    0.0000
     39 H15        0.2800   -0.0579   -2.5751 H         1 RES1    0.0000
     40 H16       -0.1185    0.5300   -1.1953 H         1 RES1    0.0000
     41 H17       -4.2409    3.5756   -1.2241 H         1 RES1    0.0000
     42 H18       -3.0366    4.5438   -1.3606 Du        2 SUP2    0.0000
     43 H19       -4.6085    3.9289   -1.9813 H         1 RES1    0.0000
     44 H20       -3.4927    4.0178   -0.9070 Du        2 SUP2    0.0000
     45 H21       -3.6370    5.8844   -2.0312 H         1 RES1    0.0000
     46 H22       -3.3896    5.0968   -3.3438 H         1 RES1    0.0000
     47 H23       -2.2729    5.1856   -2.2695 H         1 RES1    0.0000
     48 H24       -4.7279    5.3464   -1.7680 Du        2 SUP2    0.0000
     49 H25       -4.9951    4.2813   -2.8653 Du        2 SUP2    0.0000
     50 H26       -3.7908    5.2495   -2.9998 Du        2 SUP2    0.0000
@<TRIPOS>BOND
     1    1    2 1
     2    2    3 1
     3    3    4 ar
     4    4    5 ar
     5    5    6 ar
     6    6    7 ar
     7    7    8 ar
     8    8    3 ar
     9    9    2 1
    10   10    1 1
    11   11   10 1
    12   12   11 1
    13   13   12 1
    14   14    1 1
    15   15    1 1
    16   16   17 1
    17   17   45 1
    18   19    9 1
    19   20   19 2
    20   21   19 2
    21   22   10 2
    22   23   15 2
    23   24   15 1
    24   25    2 1
    25   26    4 1
    26   27    5 1
    27   28    6 1
    28   29    7 1
    29   30    8 1
    30   31    9 1
    31   32    9 1
    32   33   11 1
    33   34   11 1
    34   35   12 1
    35   36   12 1
    36   37   13 1
    37   38   13 1
    38   39   14 1
    39   40   14 1
    40   41   16 1
    41   43   16 1
    42   46   17 1
    43   47   17 1
    44   13   14 1
    45   16   24 1
@<TRIPOS>SUBSTRUCTURE
     1 RES1 1
     2 SUP2 18

@<TRIPOS>CRYSIN
   8.5900    9.9820   19.2170  90.0000  90.0000  90.0000  19 1

