# MOL2 file generated by ConQuest
# Please check atom types

@<TRIPOS>MOLECULE
FECMEG
    37    37     1
SMALL
NO_CHARGES
****
Generated from CSD

@<TRIPOS>ATOM
      1 C1         4.2592    1.3945    5.4200 C.3       1 RES1    0.0000
      2 C2         4.5804    0.0931    6.1956 C.3       1 RES1    0.0000
      3 C3         5.7982   -0.6314    5.6196 C.3       1 RES1    0.0000
      4 C4         5.9052   -2.1103    5.9969 C.3       1 RES1    0.0000
      5 C5         7.3072   -2.6188    5.6849 C.3       1 RES1    0.0000
      6 C6         4.8677   -2.9461    5.2913 C.3       1 RES1    0.0000
      7 C7         4.8272    0.3547    7.6935 C.3       1 RES1    0.0000
      8 C8         3.8847    1.0351    3.9485 C.2       1 RES1    0.0000
      9 C9         2.7687    0.0818    3.7051 C.3       1 RES1    0.0000
     10 C10        3.0407    2.1067    5.9936 C.2       1 RES1    0.0000
     11 C11        4.4920    3.7514    5.3527 C.3       1 RES1    0.0000
     12 C12        5.3206    2.4835    5.4345 C.3       1 RES1    0.0000
     13 N1         3.6094    0.2078    8.5427 N.pl3     1 RES1    0.0000
     14 O1         2.8818   -0.7394    8.3583 O.2       1 RES1    0.0000
     15 O2         3.4664    1.0201    9.4302 O.2       1 RES1    0.0000
     16 O3         2.0451    1.6043    6.4430 O.2       1 RES1    0.0000
     17 O4         3.2077    3.4267    5.9446 O.3       1 RES1    0.0000
     18 O5         4.4793    1.5330    3.0431 O.2       1 RES1    0.0000
     19 H1         3.8315   -0.4854    6.1195 H         1 RES1    0.0000
     20 H2         6.5790   -0.1891    5.9336 H         1 RES1    0.0000
     21 H3         5.7563   -0.5700    4.6737 H         1 RES1    0.0000
     22 H4         5.7629   -2.1884    6.9331 H         1 RES1    0.0000
     23 H5         7.3744   -3.5359    5.9190 H         1 RES1    0.0000
     24 H6         7.9457   -2.1179    6.1839 H         1 RES1    0.0000
     25 H7         7.4841   -2.5144    4.7557 H         1 RES1    0.0000
     26 H8         4.9615   -3.8548    5.5488 H         1 RES1    0.0000
     27 H9         3.9978   -2.6399    5.5298 H         1 RES1    0.0000
     28 H10        4.9808   -2.8685    4.3518 H         1 RES1    0.0000
     29 H11        5.4796   -0.2596    8.0013 H         1 RES1    0.0000
     30 H12        5.1517    1.2417    7.7906 H         1 RES1    0.0000
     31 H13        2.1582    0.1016    4.4074 H         1 RES1    0.0000
     32 H14        2.3763    0.2399    2.8783 H         1 RES1    0.0000
     33 H15        3.1658   -0.8282    3.6802 H         1 RES1    0.0000
     34 H16        4.9123    4.4516    5.8415 H         1 RES1    0.0000
     35 H17        4.3842    4.0171    4.4499 H         1 RES1    0.0000
     36 H18        5.8321    2.4551    6.2380 H         1 RES1    0.0000
     37 H19        5.9072    2.4057    4.6898 H         1 RES1    0.0000
@<TRIPOS>BOND
     1    1    2 1
     2    2    3 1
     3    3    4 1
     4    4    5 1
     5    5   23 1
     6    6    4 1
     7    7    2 1
     8    8    1 1
     9    9    8 1
    10   10    1 1
    11   11   12 1
    12   12    1 1
    13   13    7 1
    14   14   13 2
    15   15   13 2
    16   16   10 2
    17   17   10 1
    18   18    8 2
    19   19    2 1
    20   20    3 1
    21   21    3 1
    22   22    4 1
    23   24    5 1
    24   25    5 1
    25   26    6 1
    26   27    6 1
    27   28    6 1
    28   29    7 1
    29   30    7 1
    30   31    9 1
    31   32    9 1
    32   33    9 1
    33   34   11 1
    34   35   11 1
    35   36   12 1
    36   37   12 1
    37   11   17 1
@<TRIPOS>SUBSTRUCTURE
     1 RES1 1

@<TRIPOS>CRYSIN
   6.6508   14.1098   14.6329  90.0000  90.0000  90.0000  19 1

