# MOL2 file generated by ConQuest
# Please check atom types

@<TRIPOS>MOLECULE
FECRUB
    80    86     2
SMALL
NO_CHARGES
****
Generated from CSD

@<TRIPOS>ATOM
      1 O1         8.7990   -1.0326    1.5143 O.3       1 RES1    0.0000
      2 N1         8.4590    0.0809    2.4917 N.3       1 RES1    0.0000
      3 N2         5.2995   -0.0362    1.5199 N.ar      1 RES1    0.0000
      4 N3         7.3224    0.4987   -0.9444 N.ar      1 RES1    0.0000
      5 C1         6.3359   -0.8625    1.4023 C.ar      1 RES1    0.0000
      6 C2         6.2019   -2.2399    1.3440 C.ar      1 RES1    0.0000
      7 H1         6.9664   -2.7601    1.2694 H         1 RES1    0.0000
      8 C3         4.9257   -2.7783    1.4231 C.ar      1 RES1    0.0000
      9 H2         4.7949   -3.7302    1.3735 H         1 RES1    0.0000
     10 C4         3.8578   -1.9402    1.5656 C.ar      1 RES1    0.0000
     11 H3         2.9545   -2.2769    1.6128 H         1 RES1    0.0000
     12 C5         4.0814   -0.5910    1.6097 C.ar      1 RES1    0.0000
     13 H4         3.3177    0.0242    1.7550 H         1 RES1    0.0000
     14 C6         7.8293    0.8406    0.2293 C.ar      1 RES1    0.0000
     15 C7         8.4832    2.0322    0.4485 C.ar      1 RES1    0.0000
     16 H5         8.9118    2.1679    1.3319 H         1 RES1    0.0000
     17 C8         8.6067    2.9212   -0.5962 C.ar      1 RES1    0.0000
     18 H6         9.0733    3.7544   -0.4544 H         1 RES1    0.0000
     19 C9         8.1054    2.6014   -1.7963 C.ar      1 RES1    0.0000
     20 H7         8.1611    3.1610   -2.5042 H         1 RES1    0.0000
     21 C10        7.4693    1.4012   -1.9416 C.ar      1 RES1    0.0000
     22 H8         7.1036    1.1384   -2.7539 H         1 RES1    0.0000
     23 C11        7.6695   -0.1871    1.3194 C.3       1 RES1    0.0000
     24 C12        7.9924   -0.4871    3.7826 C.3       1 RES1    0.0000
     25 H9         7.4346   -1.2377    3.6453 H         1 RES1    0.0000
     26 C13        7.1513    0.5976    4.4291 C.ar      1 RES1    0.0000
     27 C14        5.9202    0.3161    4.9491 C.ar      1 RES1    0.0000
     28 H10        5.6102   -0.5450    4.8349 H         1 RES1    0.0000
     29 C15        5.1776    1.3274    5.5338 C.ar      1 RES1    0.0000
     30 H11        4.4721    1.0900    5.8477 H         1 RES1    0.0000
     31 C16        5.6369    2.6111    5.5987 C.ar      1 RES1    0.0000
     32 H12        5.1178    3.3305    6.0315 H         1 RES1    0.0000
     33 C17        6.8663    2.8957    5.0874 C.ar      1 RES1    0.0000
     34 H13        7.2409    3.8150    5.0639 H         1 RES1    0.0000
     35 C18        7.6154    1.9034    4.5072 C.ar      1 RES1    0.0000
     36 H14        8.5486    2.1364    4.0892 H         1 RES1    0.0000
     37 C19        9.2178   -0.8562    4.5991 C.3       1 RES1    0.0000
     38 H15        9.7433   -1.5381    4.0962 H         1 RES1    0.0000
     39 H16        9.7433   -0.0242    4.7309 H         1 RES1    0.0000
     40 H17        8.9522   -1.2595    5.4003 H         1 RES1    0.0000
     41 O2         5.8573    9.0595    5.6074 O.3       2 RES2    0.0000
     42 N4         4.8515    7.9230    5.4530 N.3       2 RES2    0.0000
     43 N5         8.1450    7.8114    4.0709 N.ar      2 RES2    0.0000
     44 N6         6.8711    5.8369    6.8858 N.ar      2 RES2    0.0000
     45 C20        6.9438    7.2883    4.2769 C.ar      2 RES2    0.0000
     46 C21        6.3610    6.4128    3.4188 C.ar      2 RES2    0.0000
     47 H18        5.5699    6.0313    3.6384 H         2 RES2    0.0000
     48 C22        7.0382    6.0349    2.2718 C.ar      2 RES2    0.0000
     49 H19        6.6193    5.3894    1.6856 H         2 RES2    0.0000
     50 C23        8.2555    6.5630    2.0321 C.ar      2 RES2    0.0000
     51 H20        8.7746    6.3341    1.2209 H         2 RES2    0.0000
     52 C24        8.7649    7.4374    2.9405 C.ar      2 RES2    0.0000
     53 H21        9.5818    7.8358    2.7782 H         2 RES2    0.0000
     54 C25        6.9059    7.1611    6.7936 C.ar      2 RES2    0.0000
     55 C26        7.4943    7.9509    7.7460 C.ar      2 RES2    0.0000
     56 H22        7.4346    8.9137    7.5889 H         2 RES2    0.0000
     57 C27        8.0537    7.3405    8.8604 C.ar      2 RES2    0.0000
     58 H23        8.4275    7.8843    9.5346 H         2 RES2    0.0000
     59 C28        8.0061    5.9986    8.9710 C.ar      2 RES2    0.0000
     60 H24        8.3871    5.5711    9.7323 H         2 RES2    0.0000
     61 C29        7.4055    5.2852    7.9822 C.ar      2 RES2    0.0000
     62 H25        7.3377    4.2752    7.9981 H         2 RES2    0.0000
     63 C30        6.2802    7.7123    5.5539 C.3       2 RES2    0.0000
     64 C31        4.0709    7.8043    6.7044 C.3       2 RES2    0.0000
     65 H26        4.6577    7.8952    7.4432 H         2 RES2    0.0000
     66 C32        3.4541    6.4261    6.7169 C.ar      2 RES2    0.0000
     67 C33        3.5494    5.5953    7.8157 C.ar      2 RES2    0.0000
     68 H27        4.0362    5.9828    8.5219 H         2 RES2    0.0000
     69 C34        2.9432    4.3382    7.8094 C.ar      2 RES2    0.0000
     70 H28        3.0917    3.8271    8.6571 H         2 RES2    0.0000
     71 C35        2.2667    3.9034    6.7089 C.ar      2 RES2    0.0000
     72 H29        1.7678    3.0156    6.7322 H         2 RES2    0.0000
     73 C36        2.1601    4.7003    5.6146 C.ar      2 RES2    0.0000
     74 H30        1.6629    4.3115    4.6893 H         2 RES2    0.0000
     75 C37        2.7438    5.9453    5.6320 C.ar      2 RES2    0.0000
     76 H31        2.6961    6.5763    4.9008 H         2 RES2    0.0000
     77 C38        3.0118    8.9185    6.7117 C.3       2 RES2    0.0000
     78 H32        2.6316    8.8168    7.5611 H         2 RES2    0.0000
     79 H33        3.5841    9.8462    6.6420 H         2 RES2    0.0000
     80 H34        2.4782    8.8895    5.9136 H         2 RES2    0.0000
@<TRIPOS>BOND
     1    1    2 1
     2    2   23 1
     3    3    5 ar
     4    4   14 ar
     5    5    6 ar
     6    6    7 1
     7    8    6 ar
     8    9    8 1
     9   10    8 ar
    10   11   10 1
    11   12    3 ar
    12   13   12 1
    13   14   15 ar
    14   15   16 1
    15   17   15 ar
    16   18   17 1
    17   19   17 ar
    18   20   19 1
    19   21    4 ar
    20   22   21 1
    21   23    1 1
    22   24    2 1
    23   25   24 1
    24   26   24 1
    25   27   26 ar
    26   28   27 1
    27   29   27 ar
    28   30   29 1
    29   31   29 ar
    30   32   31 1
    31   33   31 ar
    32   34   33 1
    33   35   26 ar
    34   36   35 1
    35   37   24 1
    36   38   37 1
    37   39   37 1
    38   40   37 1
    39   41   42 1
    40   42   63 1
    41   43   45 ar
    42   44   54 ar
    43   45   46 ar
    44   46   47 1
    45   48   46 ar
    46   49   48 1
    47   50   48 ar
    48   51   50 1
    49   52   43 ar
    50   53   52 1
    51   54   55 ar
    52   55   56 1
    53   57   55 ar
    54   58   57 1
    55   59   57 ar
    56   60   59 1
    57   61   44 ar
    58   62   61 1
    59   63   41 1
    60   64   42 1
    61   65   64 1
    62   66   64 1
    63   67   66 ar
    64   68   67 1
    65   69   67 ar
    66   70   69 1
    67   71   69 ar
    68   72   71 1
    69   73   71 ar
    70   74   73 1
    71   75   66 ar
    72   76   75 1
    73   77   64 1
    74   78   77 1
    75   79   77 1
    76   80   77 1
    77    5   23 1
    78   10   12 ar
    79   14   23 1
    80   19   21 ar
    81   33   35 ar
    82   45   63 1
    83   50   52 ar
    84   54   63 1
    85   59   61 ar
    86   73   75 ar
@<TRIPOS>SUBSTRUCTURE
     1 RES1 1
     2 RES2 41

@<TRIPOS>CRYSIN
   8.0723   12.1110   34.6840  90.0000  90.0000  90.0000  19 1

