# MOL2 file generated by ConQuest
# Please check atom types

@<TRIPOS>MOLECULE
FECWUG
    45    47     1
SMALL
NO_CHARGES
****
Generated from CSD

@<TRIPOS>ATOM
      1 C1         2.4006    6.0429   -0.0644 C.2       1 RES1    0.0000
      2 C2         2.0554    5.3006   -2.2757 C.3       1 RES1    0.0000
      3 C3         3.3457    5.6906   -3.0218 C.3       1 RES1    0.0000
      4 H1         4.0928    5.7234   -2.3880 H         1 RES1    0.0000
      5 H2         3.2299    6.5714   -3.4365 H         1 RES1    0.0000
      6 H3         3.5351    5.0248   -3.7149 H         1 RES1    0.0000
      7 C4         0.8870    5.2289   -3.2338 C.3       1 RES1    0.0000
      8 H4         0.0793    4.9641   -2.7454 H         1 RES1    0.0000
      9 H5         1.0773    4.5692   -3.9332 H         1 RES1    0.0000
     10 H6         0.7467    6.1073   -3.6443 H         1 RES1    0.0000
     11 C5         2.2284    4.0760   -1.3447 C.3       1 RES1    0.0000
     12 C6         3.2014    3.0275   -1.8320 C.3       1 RES1    0.0000
     13 H7         3.2405    2.2925   -1.1857 H         1 RES1    0.0000
     14 H8         4.0920    3.4260   -1.9276 H         1 RES1    0.0000
     15 H9         2.9035    2.6825   -2.6997 H         1 RES1    0.0000
     16 C7         0.8949    3.4479   -0.9363 C.3       1 RES1    0.0000
     17 H10        1.0604    2.6837   -0.3460 H         1 RES1    0.0000
     18 H11        0.4175    3.1454   -1.7364 H         1 RES1    0.0000
     19 H12        0.3510    4.1124   -0.4645 H         1 RES1    0.0000
     20 C8         2.6314    6.9480    1.0714 C.ar      1 RES1    0.0000
     21 C9         2.8724    8.3063    0.8615 C.ar      1 RES1    0.0000
     22 H13        2.8174    8.6695   -0.0135 H         1 RES1    0.0000
     23 C10        3.1925    9.1227    1.9349 C.ar      1 RES1    0.0000
     24 H14        3.3554   10.0472    1.7894 H         1 RES1    0.0000
     25 C11        3.2803    8.6003    3.2214 C.ar      1 RES1    0.0000
     26 H15        3.5180    9.1640    3.9477 H         1 RES1    0.0000
     27 C12        3.0195    7.2590    3.4417 C.ar      1 RES1    0.0000
     28 C13        2.7000    6.4256    2.3599 C.ar      1 RES1    0.0000
     29 H16        2.5290    5.5023    2.5075 H         1 RES1    0.0000
     30 C14        3.1301    6.6795    4.7572 C.1       1 RES1    0.0000
     31 C15        3.2399    6.1680    5.8348 C.1       1 RES1    0.0000
     32 C16        3.4206    5.5776    7.1431 C.ar      1 RES1    0.0000
     33 C17        4.0544    6.2592    8.1635 C.ar      1 RES1    0.0000
     34 H17        4.3689    7.1448    8.0284 H         1 RES1    0.0000
     35 C18        4.2226    5.6347    9.3762 C.ar      1 RES1    0.0000
     36 H18        4.6798    6.1146   10.0569 H         1 RES1    0.0000
     37 C19        3.1621    3.7747    8.6821 C.ar      1 RES1    0.0000
     38 H19        2.8326    2.9012    8.8587 H         1 RES1    0.0000
     39 C20        2.9544    4.2959    7.4133 C.ar      1 RES1    0.0000
     40 H20        2.5044    3.7905    6.7472 H         1 RES1    0.0000
     41 N1         1.8499    6.3757   -1.2441 N.pl3     1 RES1    0.0000
     42 N2         2.7528    4.7486   -0.1173 N.3       1 RES1    0.0000
     43 N3         3.7922    4.4101    9.6682 N.ar      1 RES1    0.0000
     44 O1         1.3325    7.5120   -1.5495 O.2       1 RES1    0.0000
     45 O2         3.3450    4.0877    0.7967 O.2       1 RES1    0.0000
@<TRIPOS>BOND
     1    1   20 1
     2    2    3 1
     3    3    4 1
     4    5    3 1
     5    6    3 1
     6    7    2 1
     7    8    7 1
     8    9    7 1
     9   10    7 1
    10   11    2 1
    11   12   11 1
    12   13   12 1
    13   14   12 1
    14   15   12 1
    15   16   11 1
    16   17   16 1
    17   18   16 1
    18   19   16 1
    19   20   21 ar
    20   21   22 1
    21   23   21 ar
    22   24   23 1
    23   25   23 ar
    24   26   25 1
    25   27   25 ar
    26   28   20 ar
    27   29   28 1
    28   30   27 1
    29   31   30 3
    30   32   31 1
    31   33   32 ar
    32   34   33 1
    33   35   33 ar
    34   36   35 1
    35   37   38 1
    36   39   32 ar
    37   40   39 1
    38   41    1 2
    39   42    1 1
    40   43   35 ar
    41   44   41 1
    42   45   42 1
    43    2   41 1
    44   11   42 1
    45   27   28 ar
    46   37   39 ar
    47   37   43 ar
@<TRIPOS>SUBSTRUCTURE
     1 RES1 1

@<TRIPOS>CRYSIN
  14.2890   12.1490   11.1640  90.0000 111.4400  90.0000  14 1

