# MOL2 file generated by ConQuest
# Please check atom types

@<TRIPOS>MOLECULE
FEDREM
    41    44     1
SMALL
NO_CHARGES
****
Generated from CSD

@<TRIPOS>ATOM
      1 N1        -0.9820    5.0800    9.5984 N.pl3     1 RES1    0.0000
      2 H1        -0.3313    5.1787   10.1231 H         1 RES1    0.0000
      3 N2         4.0188    7.1182    6.1646 N.pl3     1 RES1    0.0000
      4 O1        -2.8301    2.5248    7.6764 O.3       1 RES1    0.0000
      5 O2         4.9446    6.4255    5.7981 O.2       1 RES1    0.0000
      6 O3         4.0409    8.3341    6.1162 O.2       1 RES1    0.0000
      7 C1        -2.7633    2.2690    6.2718 C.3       1 RES1    0.0000
      8 H2        -3.5746    2.5898    5.8474 H         1 RES1    0.0000
      9 H3        -2.7034    1.3129    6.1206 H         1 RES1    0.0000
     10 C2        -1.5715    2.9507    5.6563 C.3       1 RES1    0.0000
     11 H4        -1.5549    2.7835    4.7011 H         1 RES1    0.0000
     12 H5        -0.7546    2.5943    6.0410 H         1 RES1    0.0000
     13 C3        -1.6517    4.4370    5.9131 C.3       1 RES1    0.0000
     14 H6        -2.3812    4.8107    5.3953 H         1 RES1    0.0000
     15 H7        -0.8297    4.8566    5.6148 H         1 RES1    0.0000
     16 C4        -1.8703    4.7577    7.3896 C.3       1 RES1    0.0000
     17 H8        -2.1335    5.6994    7.4545 H         1 RES1    0.0000
     18 C5        -0.6374    4.5540    8.2852 C.3       1 RES1    0.0000
     19 H9        -0.4557    3.5939    8.3639 H         1 RES1    0.0000
     20 C6        -2.1363    4.6109   10.2044 C.ar      1 RES1    0.0000
     21 C7        -2.3106    4.7355   11.5798 C.ar      1 RES1    0.0000
     22 H10       -1.6419    5.1262   12.0959 H         1 RES1    0.0000
     23 C8        -3.4555    4.2899   12.1806 C.ar      1 RES1    0.0000
     24 H11       -3.5528    4.3691   13.1021 H         1 RES1    0.0000
     25 C9        -4.4660    3.7273   11.4363 C.ar      1 RES1    0.0000
     26 H12       -5.2410    3.4215   11.8486 H         1 RES1    0.0000
     27 C10       -4.3135    3.6224   10.0825 C.ar      1 RES1    0.0000
     28 H13       -5.0030    3.2552    9.5776 H         1 RES1    0.0000
     29 C11       -3.1582    4.0478    9.4385 C.ar      1 RES1    0.0000
     30 C12       -3.0113    3.9163    7.9507 C.3       1 RES1    0.0000
     31 H14       -3.8466    4.2074    7.5297 H         1 RES1    0.0000
     32 C13        0.5946    5.2420    7.7544 C.ar      1 RES1    0.0000
     33 C14        1.6374    4.4938    7.2280 C.ar      1 RES1    0.0000
     34 H15        1.5787    3.5655    7.2331 H         1 RES1    0.0000
     35 C15        2.7541    5.0960    6.6989 C.ar      1 RES1    0.0000
     36 H16        3.4462    4.5865    6.3453 H         1 RES1    0.0000
     37 C16        2.8224    6.4639    6.7049 C.ar      1 RES1    0.0000
     38 C17        1.8127    7.2378    7.2219 C.ar      1 RES1    0.0000
     39 H17        1.8789    8.1661    7.2202 H         1 RES1    0.0000
     40 C18        0.7056    6.6188    7.7397 C.ar      1 RES1    0.0000
     41 H18        0.0157    7.1367    8.0873 H         1 RES1    0.0000
@<TRIPOS>BOND
     1    1    2 1
     2    3    5 2
     3    4    7 1
     4    6    3 2
     5    7    8 1
     6    9    7 1
     7   10    7 1
     8   11   10 1
     9   12   10 1
    10   13   10 1
    11   14   13 1
    12   15   13 1
    13   16   13 1
    14   17   16 1
    15   18    1 1
    16   19   18 1
    17   20    1 1
    18   21   20 ar
    19   22   21 1
    20   23   21 ar
    21   24   23 1
    22   25   23 ar
    23   26   25 1
    24   27   25 ar
    25   28   27 1
    26   29   20 ar
    27   30    4 1
    28   31   30 1
    29   32   18 1
    30   33   32 ar
    31   34   33 1
    32   35   33 ar
    33   36   35 1
    34   37    3 1
    35   38   37 ar
    36   39   38 1
    37   40   32 ar
    38   41   40 1
    39   16   18 1
    40   16   30 1
    41   27   29 ar
    42   29   30 1
    43   35   37 ar
    44   38   40 ar
@<TRIPOS>SUBSTRUCTURE
     1 RES1 1

@<TRIPOS>CRYSIN
   9.5001    9.8823    9.9403  98.0390 115.1570 104.0920   2 1

