# MOL2 file generated by ConQuest
# Please check atom types

@<TRIPOS>MOLECULE
FEDVES
    72    80     1
SMALL
NO_CHARGES
****
Generated from CSD

@<TRIPOS>ATOM
      1 C1        -6.3817    1.6760   15.6391 C.ar      1 RES1    0.0000
      2 H1        -5.6020    2.1689   15.7640 H         1 RES1    0.0000
      3 C2        -6.6238    1.0900   14.3897 C.ar      1 RES1    0.0000
      4 H2        -6.0213    1.1894   13.6857 H         1 RES1    0.0000
      5 C3        -7.7770    0.3649   14.2410 C.ar      1 RES1    0.0000
      6 H3        -7.9459   -0.0700   13.4358 H         1 RES1    0.0000
      7 C4        -8.6789    0.2719   15.2544 C.ar      1 RES1    0.0000
      8 H4        -9.4854   -0.1701   15.1215 H         1 RES1    0.0000
      9 C5        -8.3961    0.8253   16.4581 C.ar      1 RES1    0.0000
     10 H5        -8.9995    0.7116   17.1562 H         1 RES1    0.0000
     11 C6        -7.2608    1.5416   16.6822 C.ar      1 RES1    0.0000
     12 C7        -7.0139    2.1419   18.0466 C.3       1 RES1    0.0000
     13 H6        -7.6824    2.8256   18.2053 H         1 RES1    0.0000
     14 H7        -7.1399    1.4494   18.7130 H         1 RES1    0.0000
     15 C8        -5.3155    3.9936   17.7779 C.ar      1 RES1    0.0000
     16 C9        -6.0431    4.9031   17.0630 C.ar      1 RES1    0.0000
     17 H8        -6.9111    4.7076   16.7913 H         1 RES1    0.0000
     18 C10       -5.4653    6.1124   16.7516 C.ar      1 RES1    0.0000
     19 H9        -5.9346    6.7397   16.2499 H         1 RES1    0.0000
     20 C11       -4.1726    6.3923   17.1919 C.ar      1 RES1    0.0000
     21 H10       -3.8000    7.2239   17.0055 H         1 RES1    0.0000
     22 C12       -3.4359    5.4708   17.8953 C.ar      1 RES1    0.0000
     23 H11       -2.5624    5.6616   18.1577 H         1 RES1    0.0000
     24 C13       -4.0104    4.2655   18.2033 C.ar      1 RES1    0.0000
     25 C14       -3.4897    3.0761   18.9714 C.3       1 RES1    0.0000
     26 C15       -4.7319    2.1705   19.0271 C.2       1 RES1    0.0000
     27 C16       -2.8654    3.2908   20.3209 C.2       1 RES1    0.0000
     28 C17       -1.6659    2.6825   20.3634 C.2       1 RES1    0.0000
     29 C18       -1.2960    2.0489   19.1245 C.ar      1 RES1    0.0000
     30 C19       -2.3860    2.2930   18.2592 C.ar      1 RES1    0.0000
     31 C20       -2.3519    1.8167   16.9583 C.ar      1 RES1    0.0000
     32 H12       -3.0532    2.0036   16.3768 H         1 RES1    0.0000
     33 C21       -1.2641    1.0542   16.5176 C.ar      1 RES1    0.0000
     34 C22       -1.2379    0.5208   15.1056 C.3       1 RES1    0.0000
     35 H13       -0.4278    0.8022   14.6733 H         1 RES1    0.0000
     36 H14       -1.9929    0.8595   14.6217 H         1 RES1    0.0000
     37 H15       -1.2723   -0.4381   15.1255 H         1 RES1    0.0000
     38 C23       -0.2327    0.8253   17.3882 C.ar      1 RES1    0.0000
     39 H16        0.4946    0.3244   17.0947 H         1 RES1    0.0000
     40 C24       -0.2196    1.3079   18.6852 C.ar      1 RES1    0.0000
     41 H17        0.4981    1.1346   19.2504 H         1 RES1    0.0000
     42 C25       -6.4062    4.0047   21.5370 C.ar      1 RES1    0.0000
     43 H18       -6.3255    3.2073   22.0070 H         1 RES1    0.0000
     44 C26       -7.5723    4.2893   20.8587 C.ar      1 RES1    0.0000
     45 H19       -8.2849    3.6931   20.8746 H         1 RES1    0.0000
     46 C27       -7.6642    5.4652   20.1623 C.ar      1 RES1    0.0000
     47 C28       -6.6511    6.3581   20.1230 C.ar      1 RES1    0.0000
     48 H20       -6.7426    7.1532   19.6490 H         1 RES1    0.0000
     49 C29       -5.4710    6.0766   20.7973 C.ar      1 RES1    0.0000
     50 H21       -4.7624    6.6769   20.7655 H         1 RES1    0.0000
     51 C30       -5.3527    4.9071   21.5166 C.ar      1 RES1    0.0000
     52 C31       -4.1032    4.5883   22.2727 C.ar      1 RES1    0.0000
     53 C32       -3.9097    4.9485   23.5602 C.ar      1 RES1    0.0000
     54 H22       -4.5699    5.4549   23.9763 H         1 RES1    0.0000
     55 C33       -2.7751    4.6074   24.3092 C.ar      1 RES1    0.0000
     56 C34       -2.6054    4.9461   25.6897 C.ar      1 RES1    0.0000
     57 H23       -3.2642    5.4485   26.1141 H         1 RES1    0.0000
     58 C35       -1.5319    4.5636   26.3878 C.ar      1 RES1    0.0000
     59 H24       -1.4695    4.7680   27.2921 H         1 RES1    0.0000
     60 C36       -0.4976    3.8537   25.7571 C.ar      1 RES1    0.0000
     61 H25        0.2584    3.6151   26.2430 H         1 RES1    0.0000
     62 C37       -0.5896    3.5134   24.4522 C.ar      1 RES1    0.0000
     63 H26        0.1059    3.0427   24.0536 H         1 RES1    0.0000
     64 C38       -1.7037    3.8537   23.6964 C.ar      1 RES1    0.0000
     65 C39       -1.9355    3.5205   22.3505 C.ar      1 RES1    0.0000
     66 C40       -3.0747    3.8298   21.6125 C.ar      1 RES1    0.0000
     67 N1        -5.6961    2.7326   18.2384 N.am      1 RES1    0.0000
     68 N2        -8.8574    5.7308   19.3932 N.pl3     1 RES1    0.0000
     69 O1        -4.8584    1.1266   19.6459 O.2       1 RES1    0.0000
     70 O2        -9.6470    4.7704   19.1790 O.2       1 RES1    0.0000
     71 O3        -9.0468    6.8502   18.9966 O.2       1 RES1    0.0000
     72 O4        -1.0441    2.7978   21.5772 O.3       1 RES1    0.0000
@<TRIPOS>BOND
     1    1    2 1
     2    3    1 ar
     3    4    3 1
     4    5    3 ar
     5    6    5 1
     6    7    5 ar
     7    8    7 1
     8    9    7 ar
     9   10    9 1
    10   11    1 ar
    11   12   11 1
    12   13   12 1
    13   14   12 1
    14   15   16 ar
    15   16   17 1
    16   18   16 ar
    17   19   18 1
    18   20   18 ar
    19   21   20 1
    20   22   20 ar
    21   23   22 1
    22   24   15 ar
    23   25   24 1
    24   26   25 1
    25   27   25 1
    26   28   27 2
    27   29   28 1
    28   30   25 1
    29   31   30 ar
    30   32   31 1
    31   33   31 ar
    32   34   33 1
    33   35   34 1
    34   36   34 1
    35   37   34 1
    36   38   33 ar
    37   39   38 1
    38   40   29 ar
    39   41   40 1
    40   42   43 1
    41   44   42 ar
    42   45   44 1
    43   46   44 ar
    44   47   46 ar
    45   48   47 1
    46   49   47 ar
    47   50   49 1
    48   51   42 ar
    49   52   51 1
    50   53   52 ar
    51   54   53 1
    52   55   53 ar
    53   56   55 ar
    54   57   56 1
    55   58   56 ar
    56   59   58 1
    57   60   58 ar
    58   61   60 1
    59   62   60 ar
    60   63   62 1
    61   64   55 ar
    62   65   64 ar
    63   66   27 1
    64   67   12 1
    65   68   46 1
    66   69   26 2
    67   70   68 2
    68   71   68 2
    69   72   28 1
    70    9   11 ar
    71   15   67 1
    72   22   24 ar
    73   26   67 1
    74   29   30 ar
    75   38   40 ar
    76   49   51 ar
    77   52   66 ar
    78   62   64 ar
    79   65   66 ar
    80   65   72 1
@<TRIPOS>SUBSTRUCTURE
     1 RES1 1

@<TRIPOS>CRYSIN
  22.5392    7.9506   23.0909  90.0000 120.8130  90.0000  14 1

