# MOL2 file generated by ConQuest
# Please check atom types

@<TRIPOS>MOLECULE
FEDXUJ
   112   116     2
SMALL
NO_CHARGES
****
Generated from CSD

@<TRIPOS>ATOM
      1 C1        -1.0141    3.3978    8.2135 C.3       1 RES1    0.0000
      2 H1        -0.2888    3.1748    7.6093 H         1 RES1    0.0000
      3 H2        -0.8417    4.2822    8.5732 H         1 RES1    0.0000
      4 O1         2.3318   -1.7199   10.4824 O.3       2 RES2    0.0000
      5 H3         2.3950   -0.9079   10.3874 H         2 RES2    0.0000
      6 C2         2.9543   -2.3410    9.4603 C.ar      2 RES2    0.0000
      7 C3         3.5907   -1.6359    8.4210 C.ar      2 RES2    0.0000
      8 O2         1.6285   -6.0721   11.8330 O.3       2 RES2    0.0000
      9 C4         2.9543   -3.7347    9.4558 C.ar      2 RES2    0.0000
     10 O3         3.2598    1.8623    9.1892 O.3       2 RES2    0.0000
     11 N1         2.4919   -5.6403   10.8019 N.2       2 RES2    0.0000
     12 C5         4.2195   -2.3596    7.4086 C.ar      2 RES2    0.0000
     13 H4         4.6468   -1.8952    6.7259 H         2 RES2    0.0000
     14 C6         3.5891   -4.4120    8.4146 C.ar      2 RES2    0.0000
     15 H5         3.5815   -5.3416    8.4112 H         2 RES2    0.0000
     16 C7         4.2319   -3.7395    7.3820 C.ar      2 RES2    0.0000
     17 N2         3.1291    0.4848    9.3624 N.2       2 RES2    0.0000
     18 C8         2.2708   -4.4255   10.5434 C.2       2 RES2    0.0000
     19 H6         1.6555   -3.9577   11.0603 H         2 RES2    0.0000
     20 C9         3.6464   -0.1855    8.4165 C.2       2 RES2    0.0000
     21 H7         4.0649    0.2574    7.7134 H         2 RES2    0.0000
     22 C10        2.0921   -7.3121   12.3497 C.3       2 RES2    0.0000
     23 H8         2.3198   -7.8969   11.6103 H         2 RES2    0.0000
     24 H9         1.3761   -7.7329   12.8509 H         2 RES2    0.0000
     25 C11        4.9171   -4.4977    6.2756 C.3       2 RES2    0.0000
     26 H10        4.8223   -5.4412    6.4278 H         2 RES2    0.0000
     27 H11        5.8490   -4.2686    6.2599 H         2 RES2    0.0000
     28 H12        4.5159   -4.2678    5.4344 H         2 RES2    0.0000
     29 C12        2.9482    2.5334   10.4159 C.3       2 RES2    0.0000
     30 H13        2.2626    2.0333   10.8865 H         2 RES2    0.0000
     31 H14        2.5901    3.4121   10.2147 H         2 RES2    0.0000
     32 O4         0.3878   -0.6208    7.2540 O.3       1 RES1    0.0000
     33 H15        0.2299    0.1368    7.5253 H         1 RES1    0.0000
     34 C13       -0.1671   -1.5205    8.0882 C.ar      1 RES1    0.0000
     35 C14       -1.4432   -2.1366   10.0431 C.ar      1 RES1    0.0000
     36 H16       -1.9409   -1.8842   10.7871 H         1 RES1    0.0000
     37 C15        0.0118   -2.8752    7.8029 C.ar      1 RES1    0.0000
     38 O5         1.6414   -4.5160    5.0672 O.3       1 RES1    0.0000
     39 C16       -0.9184   -1.1443    9.2175 C.ar      1 RES1    0.0000
     40 C17       -0.5233   -3.8258    8.6645 C.ar      1 RES1    0.0000
     41 H17       -0.3889   -4.7269    8.4762 H         1 RES1    0.0000
     42 O6        -1.0413    2.4504    9.2872 O.3       1 RES1    0.0000
     43 N3        -0.7064    1.1790    8.7987 N.2       1 RES1    0.0000
     44 C18        0.7768   -3.2412    6.6191 C.2       1 RES1    0.0000
     45 H18        1.2813   -2.5919    6.1842 H         1 RES1    0.0000
     46 N4         0.7708   -4.4213    6.1693 N.2       1 RES1    0.0000
     47 C19        1.3929   -5.7329    4.3728 C.3       1 RES1    0.0000
     48 H19        1.3707   -6.4622    5.0110 H         1 RES1    0.0000
     49 H20        2.1224   -5.9006    3.7562 H         1 RES1    0.0000
     50 C20       -1.1745    0.2518    9.5313 C.2       1 RES1    0.0000
     51 H21       -1.6867    0.4687   10.2762 H         1 RES1    0.0000
     52 C21       -1.2505   -3.4814    9.7950 C.ar      1 RES1    0.0000
     53 C22       -1.8026   -4.5420   10.7060 C.3       1 RES1    0.0000
     54 H22       -2.2730   -4.1271   11.4329 H         1 RES1    0.0000
     55 H23       -1.0821   -5.0727   11.0532 H         1 RES1    0.0000
     56 H24       -2.4067   -5.1037   10.2147 H         1 RES1    0.0000
     57 C1A        0.1088   -5.7127    3.6132 C.3       1 RES1    0.0000
     58 H1A       -0.6164   -5.4898    4.2174 H         1 RES1    0.0000
     59 H2A       -0.0635   -6.5971    3.2535 H         1 RES1    0.0000
     60 O1A        3.9013   -2.9100   13.1711 O.3       2 RES2    0.0000
     61 H3A        3.8382   -3.7220   13.2660 H         2 RES2    0.0000
     62 C2A        3.2788   -2.2889   14.1931 C.ar      2 RES2    0.0000
     63 C3A        2.6424   -2.9940   15.2325 C.ar      2 RES2    0.0000
     64 O2A        4.6046    1.4422   11.8204 O.3       2 RES2    0.0000
     65 C4A        3.2789   -0.8951   14.1976 C.ar      2 RES2    0.0000
     66 O3A        2.9733   -6.4922   14.4642 O.3       2 RES2    0.0000
     67 N1A        3.7413    1.0104   12.8515 N.2       2 RES2    0.0000
     68 C5A        2.0137   -2.2703   16.2448 C.ar      2 RES2    0.0000
     69 H4A        1.5864   -2.7346   16.9276 H         2 RES2    0.0000
     70 C6A        2.6441   -0.2179   15.2388 C.ar      2 RES2    0.0000
     71 H5A        2.6516    0.7117   15.2423 H         2 RES2    0.0000
     72 C7A        2.0012   -0.8904   16.2714 C.ar      2 RES2    0.0000
     73 N2A        3.1040   -5.1147   14.2910 N.2       2 RES2    0.0000
     74 C8A        3.9623   -0.2044   13.1100 C.2       2 RES2    0.0000
     75 H6A        4.5777   -0.6722   12.5931 H         2 RES2    0.0000
     76 C9A        2.5867   -4.4444   15.2369 C.2       2 RES2    0.0000
     77 H7A        2.1682   -4.8873   15.9400 H         2 RES2    0.0000
     78 C10A       4.1411    2.6822   11.3037 C.3       2 RES2    0.0000
     79 H8A        3.9134    3.2671   12.0431 H         2 RES2    0.0000
     80 H9A        4.8570    3.1030   10.8025 H         2 RES2    0.0000
     81 C11A       1.3160   -0.1322   17.3778 C.3       2 RES2    0.0000
     82 H10A       1.4109    0.8114   17.2256 H         2 RES2    0.0000
     83 H11A       0.3842   -0.3612   17.3935 H         2 RES2    0.0000
     84 H12A       1.7172   -0.3621   18.2191 H         2 RES2    0.0000
     85 C12A       3.2849   -7.1633   13.2375 C.3       2 RES2    0.0000
     86 H13A       3.9706   -6.6632   12.7669 H         2 RES2    0.0000
     87 H14A       3.6431   -8.0420   13.4387 H         2 RES2    0.0000
     88 O4A       -1.2930   -1.6942    4.5727 O.3       1 RES1    0.0000
     89 H15A      -1.1352   -2.4518    4.3014 H         1 RES1    0.0000
     90 C13A      -0.7382   -0.7944    3.7385 C.ar      1 RES1    0.0000
     91 C14A       0.5380   -0.1784    1.7836 C.ar      1 RES1    0.0000
     92 H16A       1.0356   -0.4308    1.0396 H         1 RES1    0.0000
     93 C15A      -0.9171    0.5602    4.0238 C.ar      1 RES1    0.0000
     94 O5A       -2.5467    2.2011    6.7596 O.3       1 RES1    0.0000
     95 C16A       0.0131   -1.1706    2.6092 C.ar      1 RES1    0.0000
     96 C17A      -0.3820    1.5108    3.1622 C.ar      1 RES1    0.0000
     97 H17A      -0.5164    2.4119    3.3505 H         1 RES1    0.0000
     98 O6A        0.1361   -4.7653    2.5395 O.3       1 RES1    0.0000
     99 N3A       -0.1989   -3.4939    3.0280 N.2       1 RES1    0.0000
    100 C18A      -1.6821    0.9263    5.2077 C.2       1 RES1    0.0000
    101 H18A      -2.1866    0.2770    5.6425 H         1 RES1    0.0000
    102 N4A       -1.6760    2.1064    5.6574 N.2       1 RES1    0.0000
    103 C19A      -2.2982    3.4180    7.4539 C.3       1 RES1    0.0000
    104 H19A      -2.2760    4.1472    6.8157 H         1 RES1    0.0000
    105 H20A      -3.0277    3.5856    8.0705 H         1 RES1    0.0000
    106 C20A       0.2692   -2.5668    2.2954 C.2       1 RES1    0.0000
    107 H21A       0.7814   -2.7836    1.5505 H         1 RES1    0.0000
    108 C21A       0.3452    1.1664    2.0317 C.ar      1 RES1    0.0000
    109 C22A       0.8973    2.2271    1.1207 C.3       1 RES1    0.0000
    110 H22A       1.3678    1.8121    0.3938 H         1 RES1    0.0000
    111 H23A       0.1769    2.7578    0.7735 H         1 RES1    0.0000
    112 H24A       1.5014    2.7888    1.6120 H         1 RES1    0.0000
@<TRIPOS>BOND
     1    1    2 1
     2    3    1 1
     3    4    5 1
     4    6    4 1
     5    7    6 ar
     6    8   11 1
     7    9    6 ar
     8   10   17 1
     9   11   18 2
    10   12    7 ar
    11   13   12 1
    12   14    9 ar
    13   15   14 1
    14   16   12 ar
    15   17   20 2
    16   18    9 1
    17   19   18 1
    18   20    7 1
    19   21   20 1
    20   22    8 1
    21   23   22 1
    22   24   22 1
    23   25   16 1
    24   26   25 1
    25   27   25 1
    26   28   25 1
    27   29   10 1
    28   30   29 1
    29   31   29 1
    30   32   33 1
    31   34   32 1
    32   35   36 1
    33   37   34 ar
    34   38   46 1
    35   39   34 ar
    36   40   37 ar
    37   41   40 1
    38   42    1 1
    39   43   42 1
    40   44   37 1
    41   45   44 1
    42   46   44 2
    43   47   38 1
    44   48   47 1
    45   49   47 1
    46   50   39 1
    47   51   50 1
    48   52   35 ar
    49   53   52 1
    50   54   53 1
    51   55   53 1
    52   56   53 1
    53   57   47 1
    54   58   57 1
    55   59   57 1
    56   60   61 1
    57   62   60 1
    58   63   62 ar
    59   64   67 1
    60   65   62 ar
    61   66   73 1
    62   67   74 2
    63   68   63 ar
    64   69   68 1
    65   70   65 ar
    66   71   70 1
    67   72   68 ar
    68   73   76 2
    69   74   65 1
    70   75   74 1
    71   76   63 1
    72   77   76 1
    73   78   29 1
    74   79   78 1
    75   80   78 1
    76   81   72 1
    77   82   81 1
    78   83   81 1
    79   84   81 1
    80   85   22 1
    81   86   85 1
    82   87   85 1
    83   88   89 1
    84   90   88 1
    85   91   92 1
    86   93   90 ar
    87   94  102 1
    88   95   90 ar
    89   96   93 ar
    90   97   96 1
    91   98   57 1
    92   99   98 1
    93  100   93 1
    94  101  100 1
    95  102  100 2
    96  103    1 1
    97  104  103 1
    98  105  103 1
    99  106   95 1
   100  107  106 1
   101  108   91 ar
   102  109  108 1
   103  110  109 1
   104  111  109 1
   105  112  109 1
   106   14   16 ar
   107   35   39 ar
   108   40   52 ar
   109   43   50 2
   110   64   78 1
   111   66   85 1
   112   70   72 ar
   113   91   95 ar
   114   94  103 1
   115   96  108 ar
   116   99  106 2
@<TRIPOS>SUBSTRUCTURE
     1 RES1 1
     2 RES2 4

@<TRIPOS>CRYSIN
   8.0437   11.2976   12.0851  99.9960  94.2960 101.0840   2 1

