# MOL2 file generated by ConQuest
# Please check atom types

@<TRIPOS>MOLECULE
FEDXIW
    34    34     1
SMALL
NO_CHARGES
****
Generated from CSD

@<TRIPOS>ATOM
      1 O1         5.2961    0.5916    9.1626 O.3       1 RES1    0.0000
      2 O2         3.7486   -1.4653   10.1052 O.2       1 RES1    0.0000
      3 N1         4.1598   -0.9973   11.2143 N.pl3     1 RES1    0.0000
      4 O3         6.0143    1.0102   13.2923 O.2       1 RES1    0.0000
      5 C1         5.0352    0.0098   11.4108 C.2       1 RES1    0.0000
      6 N2         5.2092    0.1768   12.7275 N.pl3     1 RES1    0.0000
      7 C2         3.8216   -1.6977   12.5100 C.3       1 RES1    0.0000
      8 C3         5.7603    0.8040   10.3984 C.2       1 RES1    0.0000
      9 C4         4.2495   -0.6399   13.5458 C.3       1 RES1    0.0000
     10 N3         6.7250    1.5699   10.6457 N.2       1 RES1    0.0000
     11 H1         6.7541    1.6582   11.6389 H         1 RES1    0.0000
     12 C5         6.0150    1.2480    8.0783 C.3       1 RES1    0.0000
     13 H2         6.7585    0.6568    7.8541 H         1 RES1    0.0000
     14 H3         6.2806    2.0566    8.3901 H         1 RES1    0.0000
     15 C6         5.1304    1.2824    6.8980 C.3       1 RES1    0.0000
     16 H4         5.6648    1.7121    6.1586 H         1 RES1    0.0000
     17 H5         4.3995    1.8413    7.1103 H         1 RES1    0.0000
     18 H6         4.7306    0.3661    6.6946 H         1 RES1    0.0000
     19 C7         2.3537   -2.0523   12.5261 C.3       1 RES1    0.0000
     20 H7         2.2069   -2.7135   11.8468 H         1 RES1    0.0000
     21 H8         1.7927   -1.2491   12.4156 H         1 RES1    0.0000
     22 H9         2.1513   -2.4874   13.3454 H         1 RES1    0.0000
     23 C8         4.6873   -2.9536   12.5294 C.3       1 RES1    0.0000
     24 H10        4.3849   -3.5534   11.7702 H         1 RES1    0.0000
     25 H11        4.4966   -3.3919   13.3016 H         1 RES1    0.0000
     26 H12        5.6357   -2.7135   12.4703 H         1 RES1    0.0000
     27 C9         3.1468    0.3241   13.9700 C.3       1 RES1    0.0000
     28 H13        3.4947    0.9691   14.5049 H         1 RES1    0.0000
     29 H14        2.5170   -0.2154   14.4393 H         1 RES1    0.0000
     30 H15        2.7027    0.6891   13.1485 H         1 RES1    0.0000
     31 C10        4.9683   -1.2049   14.7642 C.3       1 RES1    0.0000
     32 H16        5.1662   -0.3984   15.2597 H         1 RES1    0.0000
     33 H17        5.8060   -1.6475   14.4721 H         1 RES1    0.0000
     34 H18        4.4300   -1.7875   15.1831 H         1 RES1    0.0000
@<TRIPOS>BOND
     1    1    8 1
     2    2    3 1
     3    3    5 2
     4    4    6 2
     5    5    6 1
     6    6    9 1
     7    7    3 1
     8    8    5 1
     9    9    7 1
    10   10    8 2
    11   11   10 1
    12   12    1 1
    13   13   12 1
    14   14   12 1
    15   15   12 1
    16   16   15 1
    17   17   15 1
    18   18   15 1
    19   19    7 1
    20   20   19 1
    21   21   19 1
    22   22   19 1
    23   23    7 1
    24   24   23 1
    25   25   23 1
    26   26   23 1
    27   27    9 1
    28   28   27 1
    29   29   27 1
    30   30   27 1
    31   31    9 1
    32   32   31 1
    33   33   31 1
    34   34   31 1
@<TRIPOS>SUBSTRUCTURE
     1 RES1 1

@<TRIPOS>CRYSIN
  10.3708   10.7678   11.3375  90.0000 105.2390  90.0000  14 1

