# MOL2 file generated by ConQuest
# Please check atom types

@<TRIPOS>MOLECULE
FEDZAQ
    58    56     2
SMALL
NO_CHARGES
****
Generated from CSD

@<TRIPOS>ATOM
      1 O1        15.0908    5.7291    2.1367 O.2       1 RES1    0.0000
      2 O2        13.9006    5.6871    0.2997 O.2       1 RES1    0.0000
      3 N1        13.5798    4.9760    5.9067 N.2       1 RES1    0.0000
      4 N2        14.1359    5.9376    6.5941 N.3       1 RES1    0.0000
      5 N3        14.3402    7.0440    5.9078 N.2       1 RES1    0.0000
      6 N4        13.8578    6.8022    4.6857 N.2       1 RES1    0.0000
      7 N5        11.2792    3.7045    2.5044 N.3       1 RES1    0.0000
      8 N6        12.0686    4.2085    1.5296 N.2       1 RES1    0.0000
      9 N7        14.0724    5.5147    1.4962 N.pl3     1 RES1    0.0000
     10 C1        13.4176    5.5350    4.7069 C.2       1 RES1    0.0000
     11 C2        12.7408    4.8602    3.6218 C.2       1 RES1    0.0000
     12 C3        12.9862    4.9065    2.2203 C.2       1 RES1    0.0000
     13 C4        11.6482    4.0593    3.7298 C.2       1 RES1    0.0000
     14 H1        10.8366    3.8826    4.6523 H         1 RES1    0.0000
     15 C5        14.5702    5.7971    8.0044 C.3       1 RES1    0.0000
     16 C6        13.4025    5.2714    8.8088 C.3       1 RES1    0.0000
     17 H2        13.0811    4.4576    8.4166 H         1 RES1    0.0000
     18 H3        12.6800    5.9202    8.7954 H         1 RES1    0.0000
     19 C7        13.8504    5.0368   10.2816 C.3       1 RES1    0.0000
     20 H4        13.1182    4.7153   10.8029 H         1 RES1    0.0000
     21 C8        14.9878    4.0535   10.2771 C.3       1 RES1    0.0000
     22 H5        14.6689    3.2251    9.9184 H         1 RES1    0.0000
     23 H6        15.2588    3.9058   11.1884 H         1 RES1    0.0000
     24 C9        16.1218    4.5184    9.4761 C.3       1 RES1    0.0000
     25 H7        16.8272    3.8638    9.4850 H         1 RES1    0.0000
     26 C10       15.6802    4.7631    8.0200 C.3       1 RES1    0.0000
     27 H8        16.4189    5.0933    7.5053 H         1 RES1    0.0000
     28 H9        15.3750    3.9492    7.6167 H         1 RES1    0.0000
     29 C11       15.5472    6.8645   10.0398 C.3       1 RES1    0.0000
     30 H10       15.8520    7.7160   10.4721 H         1 RES1    0.0000
     31 C12       15.0560    7.0759    8.5693 C.3       1 RES1    0.0000
     32 H11       14.3253    7.6957    8.5782 H         1 RES1    0.0000
     33 H12       15.7515    7.4351    8.0100 H         1 RES1    0.0000
     34 C13       14.3377    6.3518   10.7951 C.3       1 RES1    0.0000
     35 H13       14.5592    6.2620   11.7287 H         1 RES1    0.0000
     36 H14       13.6310    7.0006   10.7261 H         1 RES1    0.0000
     37 C14       16.6495    5.8044   10.0019 C.3       1 RES1    0.0000
     38 H15       17.3368    6.1100    9.4093 H         1 RES1    0.0000
     39 H16       17.0345    5.6900   10.8753 H         1 RES1    0.0000
     40 C15       10.4813    1.5525    2.9066 C.3       1 RES1    0.0000
     41 C16        9.3686    2.2418    3.4123 Du        2 SUP2    0.0000
     42 C17        9.0297    0.6227    2.6292 C.3       1 RES1    0.0000
     43 C18        7.9143    1.3323    3.0191 Du        2 SUP2    0.0000
     44 C19        9.1776    0.1665    1.0918 C.3       1 RES1    0.0000
     45 C20        7.4517    2.6459    1.9496 Du        2 SUP2    0.0000
     46 C21        8.7561    1.5467    0.0368 C.3       1 RES1    0.0000
     47 C22        7.7813    2.6792    0.6350 Du        2 SUP2    0.0000
     48 C23       10.0257    2.6039    0.5035 C.3       1 RES1    0.0000
     49 C24        9.1851    3.7306    1.2800 Du        2 SUP2    0.0000
     50 C25        7.4747    2.5228    2.3551 C.3       1 RES1    0.0000
     51 C26        9.2546    0.7922    0.7498 Du        2 SUP2    0.0000
     52 C27        8.8239    3.5582    2.6002 C.3       1 RES1    0.0000
     53 C28       10.5656    1.7219    1.2065 Du        2 SUP2    0.0000
     54 C29       10.1116    2.8530    2.1312 C.3       1 RES1    0.0000
     55 C30        7.8436    1.2252    2.7963 C.3       1 RES1    0.0000
     56 C31        8.8162    0.3693    2.0944 Du        2 SUP2    0.0000
     57 C32        7.6451    2.4952    0.7587 C.3       1 RES1    0.0000
     58 C33        8.5358    1.7697   -0.0512 Du        2 SUP2    0.0000
@<TRIPOS>BOND
     1    1    9 2
     2    2    9 2
     3    3    4 1
     4    4    5 1
     5    5    6 2
     6    6   10 1
     7    7    8 1
     8    8   12 2
     9    9   12 1
    10   10    3 2
    11   11   10 1
    12   12   11 1
    13   13    7 1
    14   14   13 1
    15   15    4 1
    16   16   15 1
    17   17   16 1
    18   18   16 1
    19   19   16 1
    20   20   19 1
    21   21   19 1
    22   22   21 1
    23   23   21 1
    24   24   21 1
    25   25   24 1
    26   26   15 1
    27   27   26 1
    28   28   26 1
    29   29   30 1
    30   31   15 1
    31   32   31 1
    32   33   31 1
    33   34   19 1
    34   35   34 1
    35   36   34 1
    36   37   24 1
    37   38   37 1
    38   39   37 1
    39   40   42 1
    40   42   44 1
    41   44   46 1
    42   46   48 1
    43   48   54 1
    44   50   52 1
    45   52   54 1
    46   54    7 1
    47   55   42 1
    48   57   46 1
    49   11   13 2
    50   24   26 1
    51   29   31 1
    52   29   34 1
    53   29   37 1
    54   40   54 1
    55   50   55 1
    56   50   57 1
@<TRIPOS>SUBSTRUCTURE
     1 RES1 1
     2 SUP2 41

@<TRIPOS>CRYSIN
  14.2190   14.4820   11.6570  90.0000 107.1200  90.0000  14 1

