# MOL2 file generated by ConQuest
# Please check atom types

@<TRIPOS>MOLECULE
FEFHOQ
    43    46     1
SMALL
NO_CHARGES
****
Generated from CSD

@<TRIPOS>ATOM
      1 O1         6.6189    7.6320    3.1951 O.3       1 RES1    0.0000
      2 O2         3.4429    7.2780    0.4376 O.3       1 RES1    0.0000
      3 O3         2.9531    8.8973    4.6406 O.3       1 RES1    0.0000
      4 C1         5.3239    7.8916    3.4763 C.2       1 RES1    0.0000
      5 C2         1.2003    5.7977    3.7010 C.ar      1 RES1    0.0000
      6 H1         0.6786    6.0863    2.9877 H         1 RES1    0.0000
      7 C3         2.5823    5.9933    3.6766 C.ar      1 RES1    0.0000
      8 C4         3.3545    5.5540    4.7559 C.ar      1 RES1    0.0000
      9 H2         4.2782    5.6658    4.7425 H         1 RES1    0.0000
     10 N1         2.6527    6.5287    1.3305 N.2       1 RES1    0.0000
     11 N2         7.4105    7.9842    4.3127 N.2       1 RES1    0.0000
     12 O4         3.9611    8.9798    6.6533 O.2       1 RES1    0.0000
     13 C5         4.3727    7.4992    2.4411 C.2       1 RES1    0.0000
     14 C6         1.3690    4.7603    5.8690 C.ar      1 RES1    0.0000
     15 H3         0.9627    4.3579    6.6028 H         1 RES1    0.0000
     16 C7         6.8056   10.0326    7.1372 C.ar      1 RES1    0.0000
     17 H4         6.2089   10.6124    6.7209 H         1 RES1    0.0000
     18 C8         2.7413    4.9498    5.8500 C.ar      1 RES1    0.0000
     19 H5         3.2562    4.6717    6.5733 H         1 RES1    0.0000
     20 C9         0.6035    5.1739    4.7864 C.ar      1 RES1    0.0000
     21 H6        -0.3157    5.0319    4.7891 H         1 RES1    0.0000
     22 C10        7.1267    8.8102    6.5448 C.ar      1 RES1    0.0000
     23 C11        3.2068    6.6683    2.5147 C.2       1 RES1    0.0000
     24 C12        4.4611    7.8234    1.1249 C.2       1 RES1    0.0000
     25 C13        1.2417   10.5580    5.0966 C.3       1 RES1    0.0000
     26 H7         1.2074   10.7781    4.1633 H         1 RES1    0.0000
     27 H8         1.8802   11.1245    5.5360 H         1 RES1    0.0000
     28 H9         0.3755   10.6889    5.4879 H         1 RES1    0.0000
     29 C14        8.2610    9.5174    8.9862 C.ar      1 RES1    0.0000
     30 H10        8.6444    9.7564    9.7987 H         1 RES1    0.0000
     31 C15        4.0012    8.7989    5.4596 C.2       1 RES1    0.0000
     32 C16        8.5676    8.3036    8.4087 C.ar      1 RES1    0.0000
     33 H11        9.1501    7.7217    8.8405 H         1 RES1    0.0000
     34 C17        8.0125    7.9433    7.1846 C.ar      1 RES1    0.0000
     35 H12        8.2314    7.1281    6.7939 H         1 RES1    0.0000
     36 C18        7.3808   10.3794    8.3526 C.ar      1 RES1    0.0000
     37 H13        7.1738   11.1973    8.7443 H         1 RES1    0.0000
     38 C19        6.5745    8.4245    5.2217 C.2       1 RES1    0.0000
     39 C20        1.6503    9.1273    5.2570 C.3       1 RES1    0.0000
     40 H14        1.6931    8.9054    6.2007 H         1 RES1    0.0000
     41 H15        0.9883    8.5527    4.8419 H         1 RES1    0.0000
     42 C21        5.2242    8.4161    4.7335 C.2       1 RES1    0.0000
     43 H16        5.0755    8.3719    0.6569 H         1 RES1    0.0000
@<TRIPOS>BOND
     1    1    4 1
     2    2   10 1
     3    3   31 1
     4    4   13 1
     5    5    6 1
     6    7    5 ar
     7    8    7 ar
     8    9    8 1
     9   10   23 2
    10   11    1 1
    11   12   31 2
    12   13   23 1
    13   14   15 1
    14   16   17 1
    15   18    8 ar
    16   19   18 1
    17   20    5 ar
    18   21   20 1
    19   22   16 ar
    20   23    7 1
    21   24    2 1
    22   25   26 1
    23   27   25 1
    24   28   25 1
    25   29   30 1
    26   31   42 1
    27   32   29 ar
    28   33   32 1
    29   34   22 ar
    30   35   34 1
    31   36   16 ar
    32   37   36 1
    33   38   11 2
    34   39    3 1
    35   40   39 1
    36   41   39 1
    37   42    4 2
    38   43   24 1
    39   13   24 2
    40   14   18 ar
    41   14   20 ar
    42   22   38 1
    43   25   39 1
    44   29   36 ar
    45   32   34 ar
    46   38   42 1
@<TRIPOS>SUBSTRUCTURE
     1 RES1 1

@<TRIPOS>CRYSIN
   8.9596   12.5516   15.7754  90.0000 100.1440  90.0000  14 1

