# MOL2 file generated by ConQuest
# Please check atom types

@<TRIPOS>MOLECULE
FEFLEK
    38    41     1
SMALL
USER_CHARGES
****
Generated from CSD

@<TRIPOS>ATOM
      1 O1        -1.6704    3.8094    1.0300 O.3       1 RES1    0.0000
      2 N1        -1.3147    4.5672    2.1297 N.2       1 RES1   -1.0000
      3 N2        -0.2116    3.9824    2.5635 N.pl3     1 RES1    1.0000
      4 C1         0.2025    2.9126    1.8541 C.2       1 RES1    0.0000
      5 C2        -0.7682    2.7532    0.8381 C.2       1 RES1    0.0000
      6 O2        -0.9261    1.9598   -0.0778 O.2       1 RES1    0.0000
      7 C3         0.3986    4.5599    3.7448 C.ar      1 RES1    0.0000
      8 C4         0.9847    5.7969    3.6409 C.ar      1 RES1    0.0000
      9 H1         0.9810    6.2690    2.8167 H         1 RES1    0.0000
     10 C5         1.5799    6.3391    4.7646 C.ar      1 RES1    0.0000
     11 H2         1.9987    7.1902    4.7152 H         1 RES1    0.0000
     12 C6         1.5677    5.6473    5.9554 C.ar      1 RES1    0.0000
     13 H3         1.9842    6.0223    6.7226 H         1 RES1    0.0000
     14 C7         0.9540    4.4107    6.0427 C.ar      1 RES1    0.0000
     15 H4         0.9380    3.9474    6.8713 H         1 RES1    0.0000
     16 C8         0.3641    3.8471    4.9277 C.ar      1 RES1    0.0000
     17 H5        -0.0525    2.9945    4.9728 H         1 RES1    0.0000
     18 C9         1.4260    2.1622    2.0367 C.2       1 RES1    0.0000
     19 C10        1.6423    0.9275    1.4372 C.2       1 RES1    0.0000
     20 H6         1.0302    0.4617    0.8801 H         1 RES1    0.0000
     21 N3         2.8939    0.5012    1.7918 N.pl3     1 RES1    0.0000
     22 C11        3.5229   -0.6969    1.4934 C.2       1 RES1    0.0000
     23 H7         3.0809   -1.3354    0.9475 H         1 RES1    0.0000
     24 C12        4.7582   -0.9679    1.9710 C.2       1 RES1    0.0000
     25 C13        5.4126    0.0174    2.7755 C.2       1 RES1    0.0000
     26 H8         6.2900   -0.1524    3.0985 H         1 RES1    0.0000
     27 C14        4.8036    1.1924    3.0867 C.2       1 RES1    0.0000
     28 H9         5.2558    1.8304    3.6259 H         1 RES1    0.0000
     29 C15        3.4986    1.4704    2.6119 C.2       1 RES1    0.0000
     30 C16        2.5968    2.5021    2.7606 C.2       1 RES1    0.0000
     31 H10        2.7355    3.2986    3.2593 H         1 RES1    0.0000
     32 C17        5.4478   -2.2763    1.6599 C.3       1 RES1    0.0000
     33 H11        4.8000   -2.8866    1.2259 H         1 RES1    0.0000
     34 H12        5.7385   -2.6965    2.5071 H         1 RES1    0.0000
     35 C18        6.6514   -2.1088    0.7535 C.3       1 RES1    0.0000
     36 H13        6.3652   -1.7255   -0.1020 H         1 RES1    0.0000
     37 H14        7.0661   -2.9825    0.5983 H         1 RES1    0.0000
     38 H15        7.3001   -1.5097    1.1792 H         1 RES1    0.0000
@<TRIPOS>BOND
     1    1    2 1
     2    2    3 1
     3    3    4 2
     4    4    5 1
     5    5    1 1
     6    6    5 2
     7    7    3 1
     8    8    7 ar
     9    9    8 1
    10   10    8 ar
    11   11   10 1
    12   12   10 ar
    13   13   12 1
    14   14   12 ar
    15   15   14 1
    16   16    7 ar
    17   17   16 1
    18   18    4 1
    19   19   18 2
    20   20   19 1
    21   21   19 1
    22   22   21 1
    23   23   22 1
    24   24   22 2
    25   25   24 1
    26   26   25 1
    27   27   25 2
    28   28   27 1
    29   29   21 1
    30   30   18 1
    31   31   30 1
    32   32   24 1
    33   33   32 1
    34   34   32 1
    35   35   32 1
    36   36   35 1
    37   37   35 1
    38   38   35 1
    39   14   16 ar
    40   27   29 1
    41   29   30 2
@<TRIPOS>SUBSTRUCTURE
     1 RES1 1

@<TRIPOS>CRYSIN
  11.7917    7.5448   17.6610  90.0000 101.7540  90.0000  14 1

