# MOL2 file generated by ConQuest
# Please check atom types

@<TRIPOS>MOLECULE
FEFLIO
    52    55     1
SMALL
USER_CHARGES
****
Generated from CSD

@<TRIPOS>ATOM
      1 O1         3.7814   -1.3475    3.3983 O.3       1 RES1    0.0000
      2 N1         2.9888   -1.1676    2.2955 N.2       1 RES1   -1.0000
      3 N2         3.1084    0.0988    1.9960 N.pl3     1 RES1    1.0000
      4 C1         3.9028    0.8156    2.8368 C.2       1 RES1    0.0000
      5 C2         4.3948   -0.1239    3.7918 C.2       1 RES1    0.0000
      6 O2         5.1621   -0.0998    4.7163 O.2       1 RES1    0.0000
      7 C3         2.3649    0.5395    0.8282 C.ar      1 RES1    0.0000
      8 C4         2.5760   -0.1427   -0.3580 C.ar      1 RES1    0.0000
      9 H1         3.2034   -0.8541   -0.4079 H         1 RES1    0.0000
     10 C5         1.8445    0.2432   -1.4719 C.ar      1 RES1    0.0000
     11 H2         1.9732   -0.2032   -2.3002 H         1 RES1    0.0000
     12 C6         0.9300    1.2729   -1.3827 C.ar      1 RES1    0.0000
     13 H3         0.4301    1.5302   -2.1489 H         1 RES1    0.0000
     14 C7         0.7373    1.9340   -0.1784 C.ar      1 RES1    0.0000
     15 H4         0.1040    2.6407   -0.1250 H         1 RES1    0.0000
     16 C8         1.4592    1.5735    0.9474 C.ar      1 RES1    0.0000
     17 H5         1.3349    2.0231    1.7751 H         1 RES1    0.0000
     18 C9         4.3199    2.2039    2.5613 C.2       1 RES1    0.0000
     19 O3         4.2778    2.6349    1.4072 O.2       1 RES1    0.0000
     20 C10        4.6889    2.9828    3.7255 C.2       1 RES1    0.0000
     21 N3         5.3299    4.2382    3.7065 N.pl3     1 RES1    0.0000
     22 C11        6.2620    4.7103    2.7937 C.2       1 RES1    0.0000
     23 C12        6.7568    5.9674    2.9993 C.2       1 RES1    0.0000
     24 H6         7.3696    6.3333    2.3726 H         1 RES1    0.0000
     25 C13        6.3804    6.7278    4.1126 C.2       1 RES1    0.0000
     26 H7         6.7275    7.6068    4.2069 H         1 RES1    0.0000
     27 C14        5.5267    6.2449    5.0714 C.2       1 RES1    0.0000
     28 C15        4.9955    4.9416    4.8893 C.2       1 RES1    0.0000
     29 C16        4.1505    4.0727    5.6478 C.2       1 RES1    0.0000
     30 C17        4.0128    2.8888    4.9312 C.2       1 RES1    0.0000
     31 H8         3.5267    2.1279    5.2254 H         1 RES1    0.0000
     32 C18        6.7748    3.8406    1.6915 C.3       1 RES1    0.0000
     33 H9         6.1179    3.8117    0.9648 H         1 RES1    0.0000
     34 H10        6.9241    2.9347    2.0327 H         1 RES1    0.0000
     35 H11        7.6190    4.2054    1.3541 H         1 RES1    0.0000
     36 C19        5.1838    7.1428    6.2374 C.3       1 RES1    0.0000
     37 H12        5.9239    7.7842    6.3843 H         1 RES1    0.0000
     38 H13        5.0889    6.5937    7.0553 H         1 RES1    0.0000
     39 C20        3.8913    7.9133    5.9972 C.3       1 RES1    0.0000
     40 H14        3.9859    8.4684    5.1958 H         1 RES1    0.0000
     41 H15        3.7034    8.4858    6.7703 H         1 RES1    0.0000
     42 H16        3.1526    7.2814    5.8712 H         1 RES1    0.0000
     43 C21        3.4308    4.2833    6.9163 C.2       1 RES1    0.0000
     44 O4         3.4572    5.2537    7.6264 O.2       1 RES1    0.0000
     45 O5         2.6781    3.2115    7.2018 O.3       1 RES1    0.0000
     46 C22        1.8762    3.2696    8.4127 C.3       1 RES1    0.0000
     47 H17        1.1023    2.6587    8.3195 H         1 RES1    0.0000
     48 H18        1.5260    4.1884    8.5267 H         1 RES1    0.0000
     49 C23        2.6555    2.8895    9.6224 C.3       1 RES1    0.0000
     50 H19        3.0702    2.0124    9.4817 H         1 RES1    0.0000
     51 H20        2.0567    2.8473   10.3972 H         1 RES1    0.0000
     52 H21        3.3527    3.5584    9.7854 H         1 RES1    0.0000
@<TRIPOS>BOND
     1    1    2 1
     2    2    3 1
     3    3    4 2
     4    4    5 1
     5    5    1 1
     6    6    5 2
     7    7    3 1
     8    8    7 ar
     9    9    8 1
    10   10    8 ar
    11   11   10 1
    12   12   10 ar
    13   13   12 1
    14   14   12 ar
    15   15   14 1
    16   16    7 ar
    17   17   16 1
    18   18    4 1
    19   19   18 2
    20   20   18 1
    21   21   20 1
    22   22   21 1
    23   23   22 2
    24   24   23 1
    25   25   23 1
    26   26   25 1
    27   27   25 2
    28   28   21 1
    29   29   28 2
    30   30   20 2
    31   31   30 1
    32   32   22 1
    33   33   32 1
    34   34   32 1
    35   35   32 1
    36   36   27 1
    37   37   36 1
    38   38   36 1
    39   39   36 1
    40   40   39 1
    41   41   39 1
    42   42   39 1
    43   43   29 1
    44   44   43 2
    45   45   43 1
    46   46   45 1
    47   47   46 1
    48   48   46 1
    49   49   46 1
    50   50   49 1
    51   51   49 1
    52   52   49 1
    53   14   16 ar
    54   27   28 1
    55   29   30 1
@<TRIPOS>SUBSTRUCTURE
     1 RES1 1

@<TRIPOS>CRYSIN
   8.9685   10.6487   11.0785  93.4800  95.8860 109.3060   2 1

