# MOL2 file generated by ConQuest
# Please check atom types

@<TRIPOS>MOLECULE
FEFNIQ
    90    96     2
SMALL
NO_CHARGES
****
Generated from CSD

@<TRIPOS>ATOM
      1 O1         7.2807    5.3949   18.3867 O.3       1 RES1    0.0000
      2 O2         9.9456    4.0384   16.6959 O.2       1 RES1    0.0000
      3 O3        10.5728    5.0307   18.5666 O.3       1 RES1    0.0000
      4 O4        10.3352    8.1855   17.9916 O.2       1 RES1    0.0000
      5 O5        10.7771    7.4479   15.9286 O.3       1 RES1    0.0000
      6 N1         6.3079    5.6317   17.3028 N.3       1 RES1    0.0000
      7 C1         4.9373    4.5004   14.9869 C.ar      1 RES1    0.0000
      8 H1         4.7657    4.0431   15.7773 H         1 RES1    0.0000
      9 C2         4.0581    4.3909   13.9360 C.ar      1 RES1    0.0000
     10 H2         3.3020    3.8560   14.0177 H         1 RES1    0.0000
     11 C3         4.2905    5.0610   12.7785 C.ar      1 RES1    0.0000
     12 H3         3.6894    4.9896   12.0733 H         1 RES1    0.0000
     13 C4         5.4151    5.8476   12.6478 C.ar      1 RES1    0.0000
     14 H4         5.5746    6.3042   11.8537 H         1 RES1    0.0000
     15 C5         6.3073    5.9571   13.7068 C.ar      1 RES1    0.0000
     16 H5         7.0649    6.4890   13.6160 H         1 RES1    0.0000
     17 C6         6.0844    5.2878   14.8838 C.ar      1 RES1    0.0000
     18 C7         7.0548    5.2815   16.0494 C.3       1 RES1    0.0000
     19 H6         7.3564    4.3552   16.1549 H         1 RES1    0.0000
     20 C8         8.3212    6.1326   15.8582 C.3       1 RES1    0.0000
     21 H7         8.8779    5.7249   15.1774 H         1 RES1    0.0000
     22 H8         8.0659    7.0146   15.5443 H         1 RES1    0.0000
     23 C9         9.1348    6.2762   17.1515 C.3       1 RES1    0.0000
     24 C10        8.1636    6.5255   18.3283 C.3       1 RES1    0.0000
     25 H9         8.6395    6.6621   19.1732 H         1 RES1    0.0000
     26 C11        7.1996    7.6583   18.0326 C.ar      1 RES1    0.0000
     27 C12        7.2090    9.0094   18.2811 C.ar      1 RES1    0.0000
     28 H10        7.9408    9.4170   18.6858 H         1 RES1    0.0000
     29 C13        6.0926    9.7455   17.9102 C.ar      1 RES1    0.0000
     30 H11        6.0727   10.6609   18.0725 H         1 RES1    0.0000
     31 C14        5.0112    9.1359   17.3020 C.ar      1 RES1    0.0000
     32 H12        4.2695    9.6476   17.0709 H         1 RES1    0.0000
     33 C15        5.0098    7.7779   17.0288 C.ar      1 RES1    0.0000
     34 H13        4.2916    7.3718   16.5995 H         1 RES1    0.0000
     35 C16        6.1082    7.0581   17.4166 C.ar      1 RES1    0.0000
     36 C17        9.9126    4.9811   17.4187 C.2       1 RES1    0.0000
     37 C18       11.3410    3.8544   18.9196 C.3       1 RES1    0.0000
     38 H14       12.1213    3.8032   18.3644 H         1 RES1    0.0000
     39 H15       10.8028    3.0702   18.7903 H         1 RES1    0.0000
     40 H16       11.6071    3.9103   19.8401 H         1 RES1    0.0000
     41 C19       10.1351    7.4137   17.0966 C.2       1 RES1    0.0000
     42 C20       11.7494    8.5101   15.7781 C.3       1 RES1    0.0000
     43 H17       12.1409    8.4635   14.9015 H         1 RES1    0.0000
     44 H18       12.4363    8.4115   16.4415 H         1 RES1    0.0000
     45 H19       11.3158    9.3588   15.8898 H         1 RES1    0.0000
     46 O6         1.3044    2.9273   17.2123 O.3       2 RES2    0.0000
     47 O7        -1.8743    4.0648   18.2669 O.2       2 RES2    0.0000
     48 O8        -0.5980    3.3031   19.9006 O.3       2 RES2    0.0000
     49 O9        -0.7255    0.1336   19.5519 O.2       2 RES2    0.0000
     50 O10       -2.6113    0.5886   18.4619 O.3       2 RES2    0.0000
     51 N2         1.0685    2.6128   15.7950 N.3       2 RES2    0.0000
     52 C21        0.0810    3.3295   13.1786 C.ar      2 RES2    0.0000
     53 H20        0.7731    3.8792   13.4687 H         2 RES2    0.0000
     54 C22       -0.1513    3.1866   11.8419 C.ar      2 RES2    0.0000
     55 H21        0.3912    3.6331   11.2324 H         2 RES2    0.0000
     56 C23       -1.1712    2.3962   11.3810 C.ar      2 RES2    0.0000
     57 H22       -1.3134    2.2984   10.4664 H         2 RES2    0.0000
     58 C24       -1.9780    1.7517   12.2838 C.ar      2 RES2    0.0000
     59 H23       -2.6840    1.2268   11.9849 H         2 RES2    0.0000
     60 C25       -1.7390    1.8822   13.6425 C.ar      2 RES2    0.0000
     61 H24       -2.2859    1.4365   14.2480 H         2 RES2    0.0000
     62 C26       -0.7029    2.6656   14.1098 C.ar      2 RES2    0.0000
     63 C27       -0.4089    2.8465   15.5887 C.3       2 RES2    0.0000
     64 H25       -0.5893    3.7845   15.8094 H         2 RES2    0.0000
     65 C28       -1.2725    1.9885   16.5138 C.3       2 RES2    0.0000
     66 H26       -1.3005    1.0824   16.1683 H         2 RES2    0.0000
     67 H27       -2.1779    2.3348   16.5111 H         2 RES2    0.0000
     68 C29       -0.7522    1.9536   17.9689 C.3       2 RES2    0.0000
     69 C30        0.7843    1.7905   17.9340 C.3       2 RES2    0.0000
     70 H28        1.1686    1.7137   18.8331 H         2 RES2    0.0000
     71 C31        1.1915    0.6530   17.0417 C.ar      2 RES2    0.0000
     72 C32        1.3423   -0.7074   17.2348 C.ar      2 RES2    0.0000
     73 H29        1.2344   -1.0855   18.0779 H         2 RES2    0.0000
     74 C33        1.6600   -1.4939   16.1378 C.ar      2 RES2    0.0000
     75 H30        1.7664   -2.4109   16.2460 H         2 RES2    0.0000
     76 C34        1.8208   -0.9349   14.8868 C.ar      2 RES2    0.0000
     77 H31        2.0446   -1.4792   14.1677 H         2 RES2    0.0000
     78 C35        1.6492    0.4340   14.6848 C.ar      2 RES2    0.0000
     79 H32        1.7439    0.8168   13.8436 H         2 RES2    0.0000
     80 C36        1.3357    1.1888   15.7816 C.ar      2 RES2    0.0000
     81 C37       -1.1444    3.2379   18.6995 C.2       2 RES2    0.0000
     82 C38       -0.9407    4.4624   20.7028 C.3       2 RES2    0.0000
     83 H33       -0.6162    5.2567   20.2713 H         2 RES2    0.0000
     84 H34       -0.5365    4.3824   21.5702 H         2 RES2    0.0000
     85 H35       -1.8947    4.5159   20.7989 H         2 RES2    0.0000
     86 C39       -1.3344    0.7951   18.7549 C.2       2 RES2    0.0000
     87 C40       -3.2571   -0.5164   19.1478 C.3       2 RES2    0.0000
     88 H36       -2.8844   -1.3456   18.8411 H         2 RES2    0.0000
     89 H37       -4.1996   -0.5016   18.9617 H         2 RES2    0.0000
     90 H38       -3.1164   -0.4317   20.0945 H         2 RES2    0.0000
@<TRIPOS>BOND
     1    1    6 1
     2    2   36 2
     3    3   36 1
     4    4   41 2
     5    5   41 1
     6    6   18 1
     7    7    8 1
     8    9    7 ar
     9   10    9 1
    10   11    9 ar
    11   12   11 1
    12   13   11 ar
    13   14   13 1
    14   15   13 ar
    15   16   15 1
    16   17    7 ar
    17   18   17 1
    18   19   18 1
    19   20   18 1
    20   21   20 1
    21   22   20 1
    22   23   20 1
    23   24    1 1
    24   25   24 1
    25   26   24 1
    26   27   26 ar
    27   28   27 1
    28   29   27 ar
    29   30   29 1
    30   31   29 ar
    31   32   31 1
    32   33   31 ar
    33   34   33 1
    34   35    6 1
    35   36   23 1
    36   37    3 1
    37   38   37 1
    38   39   37 1
    39   40   37 1
    40   41   23 1
    41   42    5 1
    42   43   42 1
    43   44   42 1
    44   45   42 1
    45   46   51 1
    46   47   81 2
    47   48   81 1
    48   49   86 2
    49   50   86 1
    50   51   63 1
    51   52   53 1
    52   54   52 ar
    53   55   54 1
    54   56   54 ar
    55   57   56 1
    56   58   56 ar
    57   59   58 1
    58   60   58 ar
    59   61   60 1
    60   62   52 ar
    61   63   62 1
    62   64   63 1
    63   65   63 1
    64   66   65 1
    65   67   65 1
    66   68   65 1
    67   69   46 1
    68   70   69 1
    69   71   69 1
    70   72   71 ar
    71   73   72 1
    72   74   72 ar
    73   75   74 1
    74   76   74 ar
    75   77   76 1
    76   78   76 ar
    77   79   78 1
    78   80   51 1
    79   81   68 1
    80   82   48 1
    81   83   82 1
    82   84   82 1
    83   85   82 1
    84   86   68 1
    85   87   50 1
    86   88   87 1
    87   89   87 1
    88   90   87 1
    89   15   17 ar
    90   23   24 1
    91   26   35 ar
    92   33   35 ar
    93   60   62 ar
    94   68   69 1
    95   71   80 ar
    96   78   80 ar
@<TRIPOS>SUBSTRUCTURE
     1 RES1 1
     2 RES2 46

