# MOL2 file generated by ConQuest
# Please check atom types

@<TRIPOS>MOLECULE
FEFNAH
    24    26     1
SMALL
NO_CHARGES
****
Generated from CSD

@<TRIPOS>ATOM
      1 O1        -2.2512    3.6900    4.6907 O.3       1 RES1    0.0000
      2 O2         1.5270    1.9108    6.3487 O.3       1 RES1    0.0000
      3 O3        -0.3697    3.7488    8.8143 O.3       1 RES1    0.0000
      4 H1        -0.8673    3.3521    9.3988 H         1 RES1    0.0000
      5 N1         1.3719    1.9049    4.9462 N.2       1 RES1    0.0000
      6 C1         0.3223    2.6681    4.7204 C.2       1 RES1    0.0000
      7 C2        -0.2968    2.9579    3.4366 C.ar      1 RES1    0.0000
      8 C3         0.2871    2.6962    2.1897 C.ar      1 RES1    0.0000
      9 H2         1.1736    2.3579    2.1428 H         1 RES1    0.0000
     10 C4        -0.4255    2.9295    1.0253 C.ar      1 RES1    0.0000
     11 H3        -0.0319    2.7466    0.1799 H         1 RES1    0.0000
     12 C5        -1.7261    3.4346    1.0987 C.ar      1 RES1    0.0000
     13 H4        -2.2129    3.5948    0.2991 H         1 RES1    0.0000
     14 C6        -2.3160    3.7056    2.3265 C.ar      1 RES1    0.0000
     15 H5        -3.2017    4.0469    2.3666 H         1 RES1    0.0000
     16 C7        -1.6008    3.4747    3.4987 C.ar      1 RES1    0.0000
     17 C8        -1.4289    4.0837    5.8151 C.3       1 RES1    0.0000
     18 H6        -1.9593    4.0394    6.6489 H         1 RES1    0.0000
     19 H7        -1.1208    5.0169    5.6932 H         1 RES1    0.0000
     20 C9        -0.2489    3.1723    5.9192 C.2       1 RES1    0.0000
     21 C10        0.5406    2.6717    6.9012 C.2       1 RES1    0.0000
     22 C11        0.5646    2.7657    8.3893 C.3       1 RES1    0.0000
     23 H8         0.3311    1.8883    8.7849 H         1 RES1    0.0000
     24 H9         1.4732    3.0118    8.6950 H         1 RES1    0.0000
@<TRIPOS>BOND
     1    1   16 1
     2    2    5 1
     3    3    4 1
     4    5    6 2
     5    6    7 1
     6    7    8 ar
     7    8    9 1
     8   10    8 ar
     9   11   10 1
    10   12   10 ar
    11   13   12 1
    12   14   12 ar
    13   15   14 1
    14   16    7 ar
    15   17    1 1
    16   18   17 1
    17   19   17 1
    18   20    6 1
    19   21    2 1
    20   22    3 1
    21   23   22 1
    22   24   22 1
    23   14   16 ar
    24   17   20 1
    25   20   21 2
    26   21   22 1
@<TRIPOS>SUBSTRUCTURE
     1 RES1 1

@<TRIPOS>CRYSIN
   9.6423    8.3406   13.1461  90.0000 121.2180  90.0000  14 1

