# MOL2 file generated by ConQuest
# Please check atom types

@<TRIPOS>MOLECULE
FEFPEM
    25    26     1
SMALL
NO_CHARGES
****
Generated from CSD

@<TRIPOS>ATOM
      1 O1         3.4551    3.8166    2.5563 O.3       1 RES1    0.0000
      2 O2         1.8346    9.5934    4.3279 O.2       1 RES1    0.0000
      3 O3         3.6658   10.0108    3.2576 O.2       1 RES1    0.0000
      4 N1         2.8221    9.2278    3.6899 N.pl3     1 RES1    0.0000
      5 C1         3.2342    5.1449    2.8503 C.ar      1 RES1    0.0000
      6 C2         2.2075    5.5659    3.6839 C.ar      1 RES1    0.0000
      7 C3         2.0841    6.9169    3.9697 C.ar      1 RES1    0.0000
      8 C4         2.9891    7.8025    3.4251 C.ar      1 RES1    0.0000
      9 C5         4.0334    7.3885    2.6169 C.ar      1 RES1    0.0000
     10 C6         4.1557    6.0474    2.3269 C.ar      1 RES1    0.0000
     11 C7         2.3923    2.9133    2.6031 C.ar      1 RES1    0.0000
     12 C8         2.6360    1.6960    3.2034 C.ar      1 RES1    0.0000
     13 C9         1.6417    0.7282    3.1992 C.ar      1 RES1    0.0000
     14 C10        0.4182    0.9903    2.6136 C.ar      1 RES1    0.0000
     15 C11        0.1859    2.2240    2.0138 C.ar      1 RES1    0.0000
     16 C12        1.1765    3.1889    1.9974 C.ar      1 RES1    0.0000
     17 H1         1.5977    4.9379    4.0532 H         1 RES1    0.0000
     18 H2         1.3854    7.2282    4.5332 H         1 RES1    0.0000
     19 H3         4.6546    8.0177    2.2682 H         1 RES1    0.0000
     20 H4         4.8645    5.7409    1.7731 H         1 RES1    0.0000
     21 H5         3.4750    1.5215    3.6145 H         1 RES1    0.0000
     22 H6         1.8031   -0.1175    3.6002 H         1 RES1    0.0000
     23 H7        -0.2637    0.3293    2.6204 H         1 RES1    0.0000
     24 H8        -0.6571    2.4041    1.6137 H         1 RES1    0.0000
     25 H9         1.0255    4.0272    1.5772 H         1 RES1    0.0000
@<TRIPOS>BOND
     1    1    5 1
     2    2    4 2
     3    3    4 2
     4    4    8 1
     5    5    6 ar
     6    6    7 ar
     7    7    8 ar
     8    8    9 ar
     9    9   10 ar
    10   10    5 ar
    11   11    1 1
    12   12   11 ar
    13   13   12 ar
    14   14   13 ar
    15   15   14 ar
    16   16   11 ar
    17   17    6 1
    18   18    7 1
    19   19    9 1
    20   20   10 1
    21   21   12 1
    22   22   13 1
    23   23   14 1
    24   24   15 1
    25   25   16 1
    26   15   16 ar
@<TRIPOS>SUBSTRUCTURE
     1 RES1 1

@<TRIPOS>CRYSIN
  10.3300   12.2408    7.9804  90.0000  96.2150  90.0000  14 1

