# MOL2 file generated by ConQuest
# Please check atom types

@<TRIPOS>MOLECULE
FEFPUB
    38    40     1
SMALL
NO_CHARGES
****
Generated from CSD

@<TRIPOS>ATOM
      1 O1         5.4709   -1.3817    0.0892 O.3       1 RES1    0.0000
      2 N1         4.5172   -0.6267   -0.6568 N.2       1 RES1    0.0000
      3 C1         4.5485    0.5390   -0.0876 C.2       1 RES1    0.0000
      4 N2         5.4347    0.6333    0.9649 N.2       1 RES1    0.0000
      5 C2         5.9468   -0.5579    1.0298 C.2       1 RES1    0.0000
      6 C3         3.6877    1.6822   -0.4849 C.3       1 RES1    0.0000
      7 C4         2.6785    1.4115   -1.5812 C.3       1 RES1    0.0000
      8 C5         1.8214    2.6338   -1.8763 C.3       1 RES1    0.0000
      9 N3         2.5119    3.7167   -2.5444 N.3       1 RES1    0.0000
     10 C6         2.8130    3.6893   -3.8953 C.ar      1 RES1    0.0000
     11 C7         3.6072    4.7108   -4.4272 C.ar      1 RES1    0.0000
     12 C8         3.8959    4.7461   -5.7700 C.ar      1 RES1    0.0000
     13 C9         3.4181    3.7788   -6.6279 C.ar      1 RES1    0.0000
     14 C10        2.6415    2.7670   -6.1138 C.ar      1 RES1    0.0000
     15 C11        2.3348    2.7104   -4.7645 C.ar      1 RES1    0.0000
     16 C12        6.9320   -1.0507    1.9850 C.ar      1 RES1    0.0000
     17 C13        7.4895   -2.3265    1.8844 C.ar      1 RES1    0.0000
     18 C14        8.4261   -2.7378    2.8136 C.ar      1 RES1    0.0000
     19 C15        8.7864   -1.9171    3.8532 C.ar      1 RES1    0.0000
     20 C16        8.2148   -0.6698    3.9748 C.ar      1 RES1    0.0000
     21 C17        7.2988   -0.2342    3.0407 C.ar      1 RES1    0.0000
     22 H1         4.2611    2.4032   -0.7135 H         1 RES1    0.0000
     23 H2         3.2234    1.9590    0.3406 H         1 RES1    0.0000
     24 H3         2.0967    0.6327   -1.3298 H         1 RES1    0.0000
     25 H4         3.1679    1.1377   -2.4001 H         1 RES1    0.0000
     26 H5         1.4668    2.9629   -0.9892 H         1 RES1    0.0000
     27 H6         1.0416    2.3788   -2.4325 H         1 RES1    0.0000
     28 H7         3.9728    5.3965   -3.8434 H         1 RES1    0.0000
     29 H8         4.4382    5.4999   -6.0976 H         1 RES1    0.0000
     30 H9         3.6058    3.8147   -7.5733 H         1 RES1    0.0000
     31 H10        2.2699    2.0868   -6.6976 H         1 RES1    0.0000
     32 H11        1.8077    1.9712   -4.3948 H         1 RES1    0.0000
     33 H12        7.2156   -2.8838    1.1838 H         1 RES1    0.0000
     34 H13        8.8101   -3.6261    2.7569 H         1 RES1    0.0000
     35 H14        9.4393   -2.2207    4.5245 H         1 RES1    0.0000
     36 H15        8.4404   -0.1156    4.7354 H         1 RES1    0.0000
     37 H16        6.9206    0.6145    3.0974 H         1 RES1    0.0000
     38 H17        3.0194    4.2588   -2.0271 H         1 RES1    0.0000
@<TRIPOS>BOND
     1    1    2 1
     2    2    3 2
     3    3    4 1
     4    4    5 2
     5    5    1 1
     6    6    3 1
     7    7    6 1
     8    8    7 1
     9    9    8 1
    10   10    9 1
    11   11   10 ar
    12   12   11 ar
    13   13   12 ar
    14   14   13 ar
    15   15   10 ar
    16   16    5 1
    17   17   16 ar
    18   18   17 ar
    19   19   18 ar
    20   20   19 ar
    21   21   16 ar
    22   22    6 1
    23   23    6 1
    24   24    7 1
    25   25    7 1
    26   26    8 1
    27   27    8 1
    28   28   11 1
    29   29   12 1
    30   30   13 1
    31   31   14 1
    32   32   15 1
    33   33   17 1
    34   34   18 1
    35   35   19 1
    36   36   20 1
    37   37   21 1
    38   38    9 1
    39   14   15 ar
    40   20   21 ar
@<TRIPOS>SUBSTRUCTURE
     1 RES1 1

@<TRIPOS>CRYSIN
  14.8200    6.0840   16.6750  90.0000 103.4600  90.0000  14 1

