# MOL2 file generated by ConQuest
# Please check atom types

@<TRIPOS>MOLECULE
FEFPEM01
    50    52     2
SMALL
NO_CHARGES
****
Generated from CSD

@<TRIPOS>ATOM
      1 O1         0.4820    3.3517    3.7284 O.3       1 RES1    0.0000
      2 C1         0.0820    4.2254    2.7533 C.ar      1 RES1    0.0000
      3 C2        -0.8963    5.8680    0.8074 C.ar      1 RES1    0.0000
      4 C3         0.3355    6.1284    1.3427 C.ar      1 RES1    0.0000
      5 H1         0.8342    6.8569    1.0492 H         1 RES1    0.0000
      6 C4         1.5861    3.6815    4.5287 C.ar      1 RES1    0.0000
      7 C5        -1.1452    3.9695    2.1917 C.ar      1 RES1    0.0000
      8 H2        -1.6363    3.2305    2.4700 H         1 RES1    0.0000
      9 C6         0.8246    5.2961    2.3210 C.ar      1 RES1    0.0000
     10 H3         1.6617    5.4594    2.6913 H         1 RES1    0.0000
     11 O2        -2.5605    6.5194   -0.6492 O.2       1 RES1    0.0000
     12 O3        -0.7575    7.6745   -0.6131 O.2       1 RES1    0.0000
     13 N1        -1.4426    6.7447   -0.2308 N.pl3     1 RES1    0.0000
     14 C7        -1.6481    4.8031    1.2255 C.ar      1 RES1    0.0000
     15 H4        -2.4877    4.6462    0.8573 H         1 RES1    0.0000
     16 C8         1.4391    4.5946    5.5295 C.ar      1 RES1    0.0000
     17 H5         0.6298    5.0373    5.6470 H         1 RES1    0.0000
     18 C9         2.7547    3.0260    4.3403 C.ar      1 RES1    0.0000
     19 H6         2.8442    2.3991    3.6575 H         1 RES1    0.0000
     20 C10        2.5022    4.8557    6.3644 C.ar      1 RES1    0.0000
     21 H7         2.4107    5.4775    7.0506 H         1 RES1    0.0000
     22 C11        3.6723    4.2144    6.1932 C.ar      1 RES1    0.0000
     23 H8         4.3853    4.3882    6.7654 H         1 RES1    0.0000
     24 C12        3.8132    3.3109    5.1855 C.ar      1 RES1    0.0000
     25 H9         4.6293    2.8815    5.0628 H         1 RES1    0.0000
     26 O4         7.2446    7.9923    4.8823 O.3       2 RES2    0.0000
     27 C13        8.2934   10.6460    7.8101 C.ar      2 RES2    0.0000
     28 C14        7.5322    8.9113    5.8515 C.ar      2 RES2    0.0000
     29 C15        6.0750    8.1363    4.1467 C.ar      2 RES2    0.0000
     30 C16        6.6219    9.8131    6.3509 C.ar      2 RES2    0.0000
     31 H10        5.7516    9.8301    6.0221 H         2 RES2    0.0000
     32 O5         7.9023   12.3736    9.2812 O.2       2 RES2    0.0000
     33 C17        7.0092   10.6936    7.3444 C.ar      2 RES2    0.0000
     34 H11        6.4041   11.3085    7.6901 H         2 RES2    0.0000
     35 O6         9.8502   11.4823    9.2881 O.2       2 RES2    0.0000
     36 C18        5.0415    7.3058    4.4042 C.ar      2 RES2    0.0000
     37 H12        5.0982    6.6869    5.0956 H         2 RES2    0.0000
     38 N2         8.7048   11.5705    8.8743 N.pl3     2 RES2    0.0000
     39 C19        9.1974    9.7465    7.3237 C.ar      2 RES2    0.0000
     40 H13       10.0670    9.7304    7.6521 H         2 RES2    0.0000
     41 C20        8.8140    8.8685    6.3471 C.ar      2 RES2    0.0000
     42 H14        9.4194    8.2435    6.0187 H         2 RES2    0.0000
     43 C21        6.0106    9.0422    3.1217 C.ar      2 RES2    0.0000
     44 H15        6.7330    9.5982    2.9402 H         2 RES2    0.0000
     45 C22        3.8164    8.2912    2.6204 C.ar      2 RES2    0.0000
     46 H16        3.0431    8.3441    2.1071 H         2 RES2    0.0000
     47 C23        3.9132    7.3823    3.6402 C.ar      2 RES2    0.0000
     48 H17        3.2016    6.8090    3.8131 H         2 RES2    0.0000
     49 C24        4.8725    9.1192    2.3698 C.ar      2 RES2    0.0000
     50 H18        4.8172    9.7400    1.6801 H         2 RES2    0.0000
@<TRIPOS>BOND
     1    1    2 1
     2    2    7 ar
     3    3    4 ar
     4    4    5 1
     5    6    1 1
     6    7    8 1
     7    9    2 ar
     8   10    9 1
     9   11   13 2
    10   12   13 2
    11   13    3 1
    12   14    3 ar
    13   15   14 1
    14   16    6 ar
    15   17   16 1
    16   18    6 ar
    17   19   18 1
    18   20   16 ar
    19   21   20 1
    20   22   20 ar
    21   23   22 1
    22   24   18 ar
    23   25   24 1
    24   26   28 1
    25   27   33 ar
    26   28   30 ar
    27   29   26 1
    28   30   31 1
    29   32   38 2
    30   33   30 ar
    31   34   33 1
    32   35   38 2
    33   36   29 ar
    34   37   36 1
    35   38   27 1
    36   39   27 ar
    37   40   39 1
    38   41   28 ar
    39   42   41 1
    40   43   29 ar
    41   44   43 1
    42   45   46 1
    43   47   36 ar
    44   48   47 1
    45   49   43 ar
    46   50   49 1
    47    4    9 ar
    48    7   14 ar
    49   22   24 ar
    50   39   41 ar
    51   45   47 ar
    52   45   49 ar
@<TRIPOS>SUBSTRUCTURE
     1 RES1 1
     2 RES2 26

@<TRIPOS>CRYSIN
   6.7833    8.9802   17.3060  87.7600  88.2500  88.8800   2 1

