# MOL2 file generated by ConQuest
# Please check atom types

@<TRIPOS>MOLECULE
FEFTAO
   108   114     2
SMALL
NO_CHARGES
****
Generated from CSD

@<TRIPOS>ATOM
      1 O1         5.3049   14.3043    1.8306 O.3       1 RES1    0.0000
      2 O2         9.4091   14.7730    2.6313 O.2       1 RES1    0.0000
      3 O3         9.0057   14.3340    4.7871 O.3       1 RES1    0.0000
      4 O4         6.2649   12.2127    4.3504 O.2       1 RES1    0.0000
      5 O5         7.5294   12.0589    2.4833 O.3       1 RES1    0.0000
      6 N1         4.6269   15.3869    2.5633 N.3       1 RES1    0.0000
      7 C1         5.4230   16.5362    2.1667 C.ar      1 RES1    0.0000
      8 C2         5.0402   17.8588    2.1822 C.ar      1 RES1    0.0000
      9 H1         4.2070   18.1179    2.5049 H         1 RES1    0.0000
     10 C3         5.9518   18.7943    1.6943 C.ar      1 RES1    0.0000
     11 H2         5.7233   19.6954    1.6877 H         1 RES1    0.0000
     12 C4         7.1928   18.4049    1.2193 C.ar      1 RES1    0.0000
     13 H3         7.7805   19.0448    0.8852 H         1 RES1    0.0000
     14 C5         7.5724   17.0577    1.2383 C.ar      1 RES1    0.0000
     15 H4         8.4092   16.7911    0.9305 H         1 RES1    0.0000
     16 C6         6.6681   16.1362    1.7284 C.ar      1 RES1    0.0000
     17 C7         6.7138   14.6377    1.9077 C.3       1 RES1    0.0000
     18 H5         7.2368   14.1967    1.2065 H         1 RES1    0.0000
     19 C8         7.1648   14.2187    3.3241 C.3       1 RES1    0.0000
     20 C9         6.3399   14.9987    4.3756 C.3       1 RES1    0.0000
     21 H6         6.4405   14.5705    5.2405 H         1 RES1    0.0000
     22 H7         6.6883   15.9016    4.4473 H         1 RES1    0.0000
     23 C10        4.8485   15.0600    4.0135 C.3       1 RES1    0.0000
     24 H8         4.4781   14.1659    4.1673 H         1 RES1    0.0000
     25 C11        4.0336   16.0295    4.8490 C.ar      1 RES1    0.0000
     26 C12        4.5395   16.6520    5.9748 C.ar      1 RES1    0.0000
     27 H9         5.4168   16.4942    6.2390 H         1 RES1    0.0000
     28 C13        3.7379   17.5120    6.7123 C.ar      1 RES1    0.0000
     29 H10        4.0879   17.9328    7.4642 H         1 RES1    0.0000
     30 C14        2.4321   17.7504    6.3443 C.ar      1 RES1    0.0000
     31 H11        1.9002   18.3231    6.8483 H         1 RES1    0.0000
     32 C15        1.9180   17.1291    5.2201 C.ar      1 RES1    0.0000
     33 H12        1.0400   17.2891    4.9606 H         1 RES1    0.0000
     34 C16        2.7105   16.2766    4.4873 C.ar      1 RES1    0.0000
     35 H13        2.3571   15.8573    3.7367 H         1 RES1    0.0000
     36 C17        8.6477   14.4794    3.5096 C.2       1 RES1    0.0000
     37 C18       10.4013   14.5647    5.1059 C.3       1 RES1    0.0000
     38 H14       10.9528   14.0214    4.5380 H         1 RES1    0.0000
     39 H15       10.5620   14.3331    6.0231 H         1 RES1    0.0000
     40 H16       10.6120   15.4908    4.9672 H         1 RES1    0.0000
     41 C19        6.9237   12.7080    3.4729 C.2       1 RES1    0.0000
     42 C20        7.2814   10.6073    2.2327 C.3       1 RES1    0.0000
     43 C21        8.1360   10.3484    1.0065 C.3       1 RES1    0.0000
     44 H17        7.8843   10.9548    0.3066 H         1 RES1    0.0000
     45 H18        8.0050    9.4449    0.7106 H         1 RES1    0.0000
     46 H19        9.0608   10.4807    1.2278 H         1 RES1    0.0000
     47 C22        7.7640    9.7906    3.4021 C.3       1 RES1    0.0000
     48 H20        8.6760   10.0175    3.5968 H         1 RES1    0.0000
     49 H21        7.7056    8.8567    3.1848 H         1 RES1    0.0000
     50 H22        7.2165    9.9749    4.1687 H         1 RES1    0.0000
     51 C23        5.8056   10.4226    1.9330 C.3       1 RES1    0.0000
     52 H23        5.2935   10.5991    2.7262 H         1 RES1    0.0000
     53 H24        5.6480    9.5206    1.6451 H         1 RES1    0.0000
     54 H25        5.5414   11.0303    1.2398 H         1 RES1    0.0000
     55 O6        11.0797   21.3303    1.8038 O.3       2 RES2    0.0000
     56 O7        15.2199   20.8491    2.3898 O.2       2 RES2    0.0000
     57 O8        14.9128   21.2624    4.5681 O.3       2 RES2    0.0000
     58 O9        12.1910   23.4823    4.2016 O.2       2 RES2    0.0000
     59 O10       13.4116   23.5738    2.3043 O.3       2 RES2    0.0000
     60 N2        10.4367   20.2634    2.5884 N.3       2 RES2    0.0000
     61 C24       11.2162   19.1074    2.2025 C.ar      2 RES2    0.0000
     62 C25       10.8578   17.7820    2.3315 C.ar      2 RES2    0.0000
     63 H26       10.0395   17.5336    2.6956 H         2 RES2    0.0000
     64 C26       11.7781   16.8313    1.8913 C.ar      2 RES2    0.0000
     65 H27       11.5692   15.9275    1.9637 H         2 RES2    0.0000
     66 C27       12.9917   17.2062    1.3499 C.ar      2 RES2    0.0000
     67 H28       13.5816   16.5535    1.0518 H         2 RES2    0.0000
     68 C28       13.3449   18.5521    1.2447 C.ar      2 RES2    0.0000
     69 H29       14.1662   18.8059    0.8879 H         2 RES2    0.0000
     70 C29       12.4434   19.4894    1.6837 C.ar      2 RES2    0.0000
     71 C30       12.4768   20.9929    1.8080 C.3       2 RES2    0.0000
     72 H30       12.9629   21.4152    1.0692 H         2 RES2    0.0000
     73 C31       13.0167   21.4351    3.1940 C.3       2 RES2    0.0000
     74 C32       12.2354   20.6903    4.3016 C.3       2 RES2    0.0000
     75 H31       12.5781   19.7862    4.3806 H         2 RES2    0.0000
     76 H32       12.3807   21.1392    5.1499 H         2 RES2    0.0000
     77 C33       10.7256   20.6336    4.0122 C.3       2 RES2    0.0000
     78 H33       10.3631   21.5319    4.1633 H         2 RES2    0.0000
     79 C34        9.9495   19.6671    4.9016 C.ar      2 RES2    0.0000
     80 C35        8.6183   19.4095    4.5897 C.ar      2 RES2    0.0000
     81 H34        8.2278   19.8320    3.8581 H         2 RES2    0.0000
     82 C36        7.8665   18.5344    5.3538 C.ar      2 RES2    0.0000
     83 H35        6.9774   18.3737    5.1352 H         2 RES2    0.0000
     84 C37        8.4361   17.8974    6.4417 C.ar      2 RES2    0.0000
     85 H36        7.9382   17.2985    6.9482 H         2 RES2    0.0000
     86 C38        9.7497   18.1601    6.7696 C.ar      2 RES2    0.0000
     87 H37       10.1314   17.7458    7.5095 H         2 RES2    0.0000
     88 C39       10.5095   19.0359    6.0024 C.ar      2 RES2    0.0000
     89 H38       11.3969   19.1993    6.2284 H         2 RES2    0.0000
     90 C40       14.5081   21.1449    3.3097 C.2       2 RES2    0.0000
     91 C41       16.2965   20.9631    4.8406 C.3       2 RES2    0.0000
     92 H39       16.8560   21.4858    4.2620 H         2 RES2    0.0000
     93 H40       16.4586   20.0296    4.6846 H         2 RES2    0.0000
     94 H41       16.4951   21.1743    5.7551 H         2 RES2    0.0000
     95 C42       12.8095   22.9545    3.3143 C.2       2 RES2    0.0000
     96 C43       13.2583   25.0400    2.0755 C.3       2 RES2    0.0000
     97 C44       14.0855   25.2662    0.8279 C.3       2 RES2    0.0000
     98 H42       15.0018   25.0385    1.0052 H         2 RES2    0.0000
     99 H43       14.0308   26.1898    0.5706 H         2 RES2    0.0000
    100 H44       13.7505   24.7152    0.1160 H         2 RES2    0.0000
    101 C45       13.8225   25.7985    3.2475 C.3       2 RES2    0.0000
    102 H45       13.2632   25.6621    4.0154 H         2 RES2    0.0000
    103 H46       13.8533   26.7352    3.0369 H         2 RES2    0.0000
    104 H47       14.7089   25.4834    3.4355 H         2 RES2    0.0000
    105 C46       11.7963   25.3397    1.8104 C.3       2 RES2    0.0000
    106 H48       11.4778   24.7808    1.0985 H         2 RES2    0.0000
    107 H49       11.6986   26.2625    1.5624 H         2 RES2    0.0000
    108 H50       11.2852   25.1666    2.6049 H         2 RES2    0.0000
@<TRIPOS>BOND
     1    1    6 1
     2    2   36 2
     3    3   36 1
     4    4   41 2
     5    5   41 1
     6    6    7 1
     7    7    8 ar
     8    8    9 1
     9   10    8 ar
    10   11   10 1
    11   12   10 ar
    12   13   12 1
    13   14   12 ar
    14   15   14 1
    15   16    7 ar
    16   17    1 1
    17   18   17 1
    18   19   17 1
    19   20   19 1
    20   21   20 1
    21   22   20 1
    22   23    6 1
    23   24   23 1
    24   25   23 1
    25   26   25 ar
    26   27   26 1
    27   28   26 ar
    28   29   28 1
    29   30   28 ar
    30   31   30 1
    31   32   30 ar
    32   33   32 1
    33   34   25 ar
    34   35   34 1
    35   36   19 1
    36   37    3 1
    37   38   37 1
    38   39   37 1
    39   40   37 1
    40   41   19 1
    41   42    5 1
    42   43   42 1
    43   44   43 1
    44   45   43 1
    45   46   43 1
    46   47   42 1
    47   48   47 1
    48   49   47 1
    49   50   47 1
    50   51   42 1
    51   52   51 1
    52   53   51 1
    53   54   51 1
    54   55   60 1
    55   56   90 2
    56   57   90 1
    57   58   95 2
    58   59   95 1
    59   60   61 1
    60   61   62 ar
    61   62   63 1
    62   64   62 ar
    63   65   64 1
    64   66   64 ar
    65   67   66 1
    66   68   66 ar
    67   69   68 1
    68   70   61 ar
    69   71   55 1
    70   72   71 1
    71   73   71 1
    72   74   73 1
    73   75   74 1
    74   76   74 1
    75   77   60 1
    76   78   77 1
    77   79   77 1
    78   80   79 ar
    79   81   80 1
    80   82   80 ar
    81   83   82 1
    82   84   82 ar
    83   85   84 1
    84   86   84 ar
    85   87   86 1
    86   88   79 ar
    87   89   88 1
    88   90   73 1
    89   91   57 1
    90   92   91 1
    91   93   91 1
    92   94   91 1
    93   95   73 1
    94   96   59 1
    95   97   96 1
    96   98   97 1
    97   99   97 1
    98  100   97 1
    99  101   96 1
   100  102  101 1
   101  103  101 1
   102  104  101 1
   103  105   96 1
   104  106  105 1
   105  107  105 1
   106  108  105 1
   107   14   16 ar
   108   16   17 1
   109   20   23 1
   110   32   34 ar
   111   68   70 ar
   112   70   71 1
   113   74   77 1
   114   86   88 ar
@<TRIPOS>SUBSTRUCTURE
     1 RES1 1
     2 RES2 55

@<TRIPOS>CRYSIN
  11.8383   13.1551   13.6364  78.7620  85.4500  89.9690   2 1

