# MOL2 file generated by ConQuest
# Please check atom types

@<TRIPOS>MOLECULE
FEGFIG
    40    43     1
SMALL
NO_CHARGES
****
Generated from CSD

@<TRIPOS>ATOM
      1 O1        -0.6214    4.1141    1.0447 O.3       1 RES1    0.0000
      2 O2        -0.6340    1.9005    0.2852 O.3       1 RES1    0.0000
      3 O3         2.2420    6.6938    0.2539 O.2       1 RES1    0.0000
      4 O4         1.2797    2.8300   -1.8948 O.2       1 RES1    0.0000
      5 O5         1.3292   -2.0021    6.7156 O.2       1 RES1    0.0000
      6 O6         1.2568   -3.1659    4.9420 O.2       1 RES1    0.0000
      7 N1         0.3632    3.7871    3.0996 N.2       1 RES1    0.0000
      8 N2         1.6642    4.9288   -1.0704 N.am      1 RES1    0.0000
      9 N3         1.1545   -2.1122    5.5171 N.pl3     1 RES1    0.0000
     10 C1         0.2891    4.7368    1.9612 C.3       1 RES1    0.0000
     11 C2         1.6654    4.5396    1.2291 C.3       1 RES1    0.0000
     12 C3         1.8949    5.5429    0.1313 C.2       1 RES1    0.0000
     13 C4         1.4273    3.5661   -0.9564 C.2       1 RES1    0.0000
     14 C5         1.4360    3.1992    0.5133 C.3       1 RES1    0.0000
     15 C6         0.0199    2.8298    1.0400 C.3       1 RES1    0.0000
     16 C7         0.2111    2.6403    2.5605 C.2       1 RES1    0.0000
     17 C8        -0.1293    6.1222    2.3292 C.3       1 RES1    0.0000
     18 C9         1.7480    5.6355   -2.3401 C.3       1 RES1    0.0000
     19 C10       -1.9786    1.6226    0.7259 C.3       1 RES1    0.0000
     20 C11        0.3846    1.3791    3.2996 C.ar      1 RES1    0.0000
     21 C12        0.4429    1.4240    4.6943 C.ar      1 RES1    0.0000
     22 C13        0.6694    0.2814    5.4264 C.ar      1 RES1    0.0000
     23 C14        0.8559   -0.9060    4.7396 C.ar      1 RES1    0.0000
     24 C15        0.7895   -0.9990    3.3668 C.ar      1 RES1    0.0000
     25 C16        0.5461    0.1611    2.6433 C.ar      1 RES1    0.0000
     26 H1         2.4466    4.5721    1.8596 H         1 RES1    0.0000
     27 H2         2.0971    2.5161    0.7032 H         1 RES1    0.0000
     28 H3        -0.2891    6.6992    1.5861 H         1 RES1    0.0000
     29 H4        -0.9015    6.0700    2.8441 H         1 RES1    0.0000
     30 H5         0.4971    6.4611    2.9535 H         1 RES1    0.0000
     31 H6         1.4949    5.0533   -3.0004 H         1 RES1    0.0000
     32 H7         2.4742    5.4629   -2.7113 H         1 RES1    0.0000
     33 H8         0.9580    6.1297   -2.4534 H         1 RES1    0.0000
     34 H9        -2.2322    0.8516    0.1953 H         1 RES1    0.0000
     35 H10       -2.6119    2.3593    0.4141 H         1 RES1    0.0000
     36 H11       -2.0141    1.5234    1.6564 H         1 RES1    0.0000
     37 H12        0.3583    2.2904    5.1569 H         1 RES1    0.0000
     38 H13        0.6558    0.3136    6.3836 H         1 RES1    0.0000
     39 H14        0.8898   -1.8723    2.8910 H         1 RES1    0.0000
     40 H15        0.4274    0.1044    1.6643 H         1 RES1    0.0000
@<TRIPOS>BOND
     1    1   10 1
     2    2   15 1
     3    3   12 2
     4    4   13 2
     5    5    9 2
     6    6    9 2
     7    7   10 1
     8    8   12 1
     9    9   23 1
    10   10   11 1
    11   11   12 1
    12   13    8 1
    13   14   11 1
    14   15    1 1
    15   16    7 2
    16   17   10 1
    17   18    8 1
    18   19    2 1
    19   20   16 1
    20   21   20 ar
    21   22   21 ar
    22   23   22 ar
    23   24   23 ar
    24   25   20 ar
    25   26   11 1
    26   27   14 1
    27   28   17 1
    28   29   17 1
    29   30   17 1
    30   31   18 1
    31   32   18 1
    32   33   18 1
    33   34   19 1
    34   35   19 1
    35   36   19 1
    36   37   21 1
    37   38   22 1
    38   39   24 1
    39   40   25 1
    40   13   14 1
    41   14   15 1
    42   15   16 1
    43   24   25 ar
@<TRIPOS>SUBSTRUCTURE
     1 RES1 1

@<TRIPOS>CRYSIN
   9.1600   11.1820    8.8160  92.3900 116.4700 100.6000   2 1

