# MOL2 file generated by ConQuest
# Please check atom types

@<TRIPOS>MOLECULE
FEGGEG
    90   100     2
SMALL
NO_CHARGES
****
Generated from CSD

@<TRIPOS>ATOM
      1 N1         4.1661    7.3794    3.1982 N.3       1 RES1    0.0000
      2 C1         5.4595    6.8419    3.6399 C.3       1 RES1    0.0000
      3 C2         5.5886    5.3428    3.6313 C.ar      1 RES1    0.0000
      4 C3         6.8549    4.7782    3.7511 C.ar      1 RES1    0.0000
      5 H1         7.6070    5.3334    3.8415 H         1 RES1    0.0000
      6 C4         5.8957    2.6163    3.5902 C.ar      1 RES1    0.0000
      7 N2         6.0737    1.1569    3.5179 N.pl3     1 RES1    0.0000
      8 C5         4.5034    8.7869    3.5834 C.3       1 RES1    0.0000
      9 H2         3.7944    9.4606    3.4327 H         1 RES1    0.0000
     10 C6         6.4897    7.6615    2.8445 C.3       1 RES1    0.0000
     11 H3         7.4055    7.5979    3.2163 H         1 RES1    0.0000
     12 C7         4.4793    4.5192    3.5181 C.ar      1 RES1    0.0000
     13 H4         3.6201    4.8980    3.4688 H         1 RES1    0.0000
     14 C8         4.6253    3.1406    3.4774 C.ar      1 RES1    0.0000
     15 H5         3.8793    2.5788    3.3766 H         1 RES1    0.0000
     16 C9         3.9303    7.1120    1.7955 C.ar      1 RES1    0.0000
     17 C10        5.8914    9.0987    2.9387 C.3       1 RES1    0.0000
     18 H6         6.4366    9.6629    3.5429 H         1 RES1    0.0000
     19 C11        7.0132    3.4007    3.7367 C.ar      1 RES1    0.0000
     20 H7         7.8646    3.0133    3.8255 H         1 RES1    0.0000
     21 C12        4.8734    8.5285    5.0188 C.2       1 RES1    0.0000
     22 C13        5.0194    6.9489    0.9270 C.ar      1 RES1    0.0000
     23 O1         5.1373    0.4614    3.3048 O.2       1 RES1    0.0000
     24 C14        2.6036    6.9289    1.3819 C.ar      1 RES1    0.0000
     25 C15        6.4231    7.3284    1.3450 C.3       1 RES1    0.0000
     26 H8         7.0801    6.6312    1.0961 H         1 RES1    0.0000
     27 O2         7.1514    0.7008    3.7012 O.2       1 RES1    0.0000
     28 C16        5.8960    9.6744    1.5132 C.3       1 RES1    0.0000
     29 H9         4.9883    9.7049    1.1442 H         1 RES1    0.0000
     30 H10        6.2762   10.5774    1.5009 H         1 RES1    0.0000
     31 C17        1.4540    7.0917    2.3484 C.3       1 RES1    0.0000
     32 H11        1.5875    6.5074    3.1121 H         1 RES1    0.0000
     33 H12        0.6223    6.8585    1.9037 H         1 RES1    0.0000
     34 H13        1.4123    8.0124    2.6492 H         1 RES1    0.0000
     35 C18        2.3972    6.5659    0.0485 C.ar      1 RES1    0.0000
     36 H14        1.5199    6.4603   -0.2725 H         1 RES1    0.0000
     37 C19        6.7782    8.6969    0.7202 C.3       1 RES1    0.0000
     38 H15        7.7290    8.9039    0.8356 H         1 RES1    0.0000
     39 H16        6.5598    8.7180   -0.2345 H         1 RES1    0.0000
     40 C20        4.7577    6.5365   -0.3759 C.ar      1 RES1    0.0000
     41 H17        5.4718    6.3779   -0.9659 H         1 RES1    0.0000
     42 C21        3.4637    6.3596   -0.8070 C.ar      1 RES1    0.0000
     43 H18        3.3013    6.0941   -1.6953 H         1 RES1    0.0000
     44 O3         5.4979    7.3150    5.0278 O.3       1 RES1    0.0000
     45 O4         4.7617    9.1950    6.0065 O.2       1 RES1    0.0000
     46 O5         9.8328    4.3410    5.0260 O.3       2 RES2    0.0000
     47 N3        11.2148    4.2074    6.8155 N.3       2 RES2    0.0000
     48 C22        9.8965    4.7455    6.4406 C.3       2 RES2    0.0000
     49 C23        9.7520    6.2378    6.5211 C.ar      2 RES2    0.0000
     50 C24       11.5046    4.3938    8.2186 C.ar      2 RES2    0.0000
     51 N4         9.2648   10.4149    6.7692 N.pl3     2 RES2    0.0000
     52 C25        8.4756    6.7966    6.5229 C.ar      2 RES2    0.0000
     53 H19        7.7220    6.2384    6.4826 H         2 RES2    0.0000
     54 C26        9.4322    8.9578    6.6608 C.ar      2 RES2    0.0000
     55 O6        10.5855    2.5310    3.9317 O.2       2 RES2    0.0000
     56 C27        8.9149    3.8729    7.2229 C.3       2 RES2    0.0000
     57 H20        7.9845    3.9451    6.8934 H         2 RES2    0.0000
     58 C28       10.8587    7.0678    6.5586 C.ar      2 RES2    0.0000
     59 H21       11.7200    6.6936    6.5247 H         2 RES2    0.0000
     60 C29       10.8835    2.8151    6.3698 C.3       2 RES2    0.0000
     61 H22       11.6047    2.1457    6.4726 H         2 RES2    0.0000
     62 C30       10.4892    3.1398    4.9555 C.2       2 RES2    0.0000
     63 C31        8.3116    8.1707    6.5846 C.ar      2 RES2    0.0000
     64 H23        7.4531    8.5537    6.5748 H         2 RES2    0.0000
     65 C32        9.5216    2.4506    7.0295 C.3       2 RES2    0.0000
     66 H24        8.9657    1.9146    6.4105 H         2 RES2    0.0000
     67 C33       10.7145    8.4438    6.6454 C.ar      2 RES2    0.0000
     68 H25       11.4640    9.0081    6.6931 H         2 RES2    0.0000
     69 C34       12.8525    4.5590    8.5962 C.ar      2 RES2    0.0000
     70 C35       10.4508    4.4824    9.1290 C.ar      2 RES2    0.0000
     71 C36        9.0372    4.1143    8.7398 C.3       2 RES2    0.0000
     72 H26        8.3870    4.7912    9.0537 H         2 RES2    0.0000
     73 O7         8.1740   10.8646    6.7071 O.2       2 RES2    0.0000
     74 O8        10.2085   11.1121    6.9051 O.2       2 RES2    0.0000
     75 C37       13.1110    4.8184    9.9402 C.ar      2 RES2    0.0000
     76 H27       14.0003    4.9092   10.2299 H         2 RES2    0.0000
     77 C38       13.9701    4.4947    7.5928 C.3       2 RES2    0.0000
     78 H28       14.0337    3.5946    7.2361 H         2 RES2    0.0000
     79 H29       14.8058    4.7316    8.0236 H         2 RES2    0.0000
     80 H30       13.7914    5.1168    6.8694 H         2 RES2    0.0000
     81 C39        9.5690    1.7984    8.4186 C.3       2 RES2    0.0000
     82 H31        9.1980    0.8909    8.3904 H         2 RES2    0.0000
     83 H32       10.4892    1.7555    8.7531 H         2 RES2    0.0000
     84 C40       10.7766    4.7837   10.4642 C.ar      2 RES2    0.0000
     85 H33       10.0908    4.8767   11.0996 H         2 RES2    0.0000
     86 C41        8.7093    2.7110    9.2997 C.3       2 RES2    0.0000
     87 H34        8.9627    2.6361   10.2440 H         2 RES2    0.0000
     88 H35        7.7567    2.5042    9.2039 H         2 RES2    0.0000
     89 C42       12.0881    4.9436   10.8494 C.ar      2 RES2    0.0000
     90 H36       12.2867    5.1418   11.7469 H         2 RES2    0.0000
@<TRIPOS>BOND
     1    1    2 1
     2    2    3 1
     3    3    4 ar
     4    4    5 1
     5    6    7 1
     6    7   23 2
     7    8    1 1
     8    9    8 1
     9   10    2 1
    10   11   10 1
    11   12    3 ar
    12   13   12 1
    13   14    6 ar
    14   15   14 1
    15   16    1 1
    16   17    8 1
    17   18   17 1
    18   19    4 ar
    19   20   19 1
    20   21    8 1
    21   22   16 ar
    22   24   16 ar
    23   25   10 1
    24   26   25 1
    25   27    7 2
    26   28   17 1
    27   29   28 1
    28   30   28 1
    29   31   24 1
    30   32   31 1
    31   33   31 1
    32   34   31 1
    33   35   24 ar
    34   36   35 1
    35   37   25 1
    36   38   37 1
    37   39   37 1
    38   40   22 ar
    39   41   40 1
    40   42   35 ar
    41   43   42 1
    42   44    2 1
    43   45   21 2
    44   46   48 1
    45   47   48 1
    46   48   49 1
    47   49   52 ar
    48   50   47 1
    49   51   54 1
    50   52   53 1
    51   54   63 ar
    52   55   62 2
    53   56   48 1
    54   57   56 1
    55   58   49 ar
    56   59   58 1
    57   60   47 1
    58   61   60 1
    59   62   46 1
    60   63   52 ar
    61   64   63 1
    62   65   56 1
    63   66   65 1
    64   67   54 ar
    65   68   67 1
    66   69   50 ar
    67   70   50 ar
    68   71   56 1
    69   72   71 1
    70   73   51 2
    71   74   51 2
    72   75   69 ar
    73   76   75 1
    74   77   69 1
    75   78   77 1
    76   79   77 1
    77   80   77 1
    78   81   65 1
    79   82   81 1
    80   83   81 1
    81   84   70 ar
    82   85   84 1
    83   86   71 1
    84   87   86 1
    85   88   86 1
    86   89   75 ar
    87   90   89 1
    88    6   19 ar
    89   10   17 1
    90   12   14 ar
    91   21   44 1
    92   22   25 1
    93   28   37 1
    94   40   42 ar
    95   58   67 ar
    96   60   62 1
    97   60   65 1
    98   70   71 1
    99   81   86 1
   100   84   89 ar
@<TRIPOS>SUBSTRUCTURE
     1 RES1 1
     2 RES2 46

@<TRIPOS>CRYSIN
   9.1214   10.5036   20.6638  77.9030  79.0140  69.4760   2 1

