# MOL2 file generated by ConQuest
# Please check atom types

@<TRIPOS>MOLECULE
FEGJEH
    39    41     1
SMALL
NO_CHARGES
****
Generated from CSD

@<TRIPOS>ATOM
      1 O1        -0.1799    2.0901    1.8053 O.2       1 RES1    0.0000
      2 C1        -1.0058    1.2969    1.3459 C.2       1 RES1    0.0000
      3 N1        -1.2890    1.1091    0.0244 N.am      1 RES1    0.0000
      4 C2        -2.2545    0.0246   -0.2830 C.3       1 RES1    0.0000
      5 C3        -2.5727   -0.4224    1.1200 C.2       1 RES1    0.0000
      6 C4        -1.8245    0.3140    2.0624 C.2       1 RES1    0.0000
      7 N2        -3.3312   -1.3422    1.6177 N.2       1 RES1    0.0000
      8 O2        -3.0475   -1.2492    3.0413 O.3       1 RES1    0.0000
      9 C5        -2.1255   -0.2596    3.2547 C.2       1 RES1    0.0000
     10 C6        -1.6695   -0.1007    4.6006 C.2       1 RES1    0.0000
     11 C7        -0.7856    0.8384    4.9378 C.2       1 RES1    0.0000
     12 C8        -0.1767    1.0513    6.2535 C.ar      1 RES1    0.0000
     13 C9        -0.5680    0.3154    7.3736 C.ar      1 RES1    0.0000
     14 C10        0.0736    0.5009    8.5930 C.ar      1 RES1    0.0000
     15 C11        1.0501    1.4062    8.7194 C.ar      1 RES1    0.0000
     16 C12        1.4278    2.1720    7.6265 C.ar      1 RES1    0.0000
     17 C13        0.8009    1.9663    6.3981 C.ar      1 RES1    0.0000
     18 C14       -3.4482    0.5158   -1.0658 C.3       1 RES1    0.0000
     19 C15       -3.1129    1.0691   -2.4719 C.3       1 RES1    0.0000
     20 C16       -4.3816    1.4554   -3.1674 C.3       1 RES1    0.0000
     21 C17       -2.3263    0.1209   -3.3390 C.3       1 RES1    0.0000
     22 H1        -0.9204    1.6003   -0.6052 H         1 RES1    0.0000
     23 H2        -1.7971   -0.7113   -0.7828 H         1 RES1    0.0000
     24 H3        -2.0077   -0.6795    5.2750 H         1 RES1    0.0000
     25 H4        -0.5188    1.4351    4.2483 H         1 RES1    0.0000
     26 H5        -1.2767   -0.3145    7.3043 H         1 RES1    0.0000
     27 H6        -0.1821   -0.0212    9.3457 H         1 RES1    0.0000
     28 H7         1.4827    1.5286    9.5565 H         1 RES1    0.0000
     29 H8         2.1063    2.8289    7.7168 H         1 RES1    0.0000
     30 H9         1.0709    2.4816    5.6454 H         1 RES1    0.0000
     31 H10       -3.8979    1.2281   -0.5420 H         1 RES1    0.0000
     32 H11       -4.0896   -0.2312   -1.1652 H         1 RES1    0.0000
     33 H12       -2.5650    1.8979   -2.3515 H         1 RES1    0.0000
     34 H13       -4.1686    1.8666   -4.0315 H         1 RES1    0.0000
     35 H14       -4.8742    2.0954   -2.6134 H         1 RES1    0.0000
     36 H15       -4.9310    0.6564   -3.3119 H         1 RES1    0.0000
     37 H16       -2.8059   -0.7306   -3.4113 H         1 RES1    0.0000
     38 H17       -1.4455   -0.0332   -2.9386 H         1 RES1    0.0000
     39 H18       -2.2152    0.5100   -4.2333 H         1 RES1    0.0000
@<TRIPOS>BOND
     1    1    2 2
     2    2    3 1
     3    3    4 1
     4    4    5 1
     5    5    6 1
     6    6    2 1
     7    7    5 2
     8    8    7 1
     9    9    6 2
    10   10    9 1
    11   11   10 2
    12   12   11 1
    13   13   12 ar
    14   14   13 ar
    15   15   14 ar
    16   16   15 ar
    17   17   12 ar
    18   18    4 1
    19   19   18 1
    20   20   19 1
    21   21   19 1
    22   22    3 1
    23   23    4 1
    24   24   10 1
    25   25   11 1
    26   26   13 1
    27   27   14 1
    28   28   15 1
    29   29   16 1
    30   30   17 1
    31   31   18 1
    32   32   18 1
    33   33   19 1
    34   34   20 1
    35   35   20 1
    36   36   20 1
    37   37   21 1
    38   38   21 1
    39   39   21 1
    40    8    9 1
    41   16   17 ar
@<TRIPOS>SUBSTRUCTURE
     1 RES1 1

