# MOL2 file generated by ConQuest
# Please check atom types

@<TRIPOS>MOLECULE
FEGPAK
   156   152     2
SMALL
NO_CHARGES
****
Generated from CSD

@<TRIPOS>ATOM
      1 C1        11.9131    4.9494    9.7070 C.3       1 RES1    0.0000
      2 H1        12.7189    5.1654    9.1721 H         1 RES1    0.0000
      3 H2        12.1317    5.0766   10.6645 H         1 RES1    0.0000
      4 C2        10.7666    5.8683    9.3105 C.ar      1 RES1    0.0000
      5 C3         9.5733    5.8389   10.0500 C.ar      1 RES1    0.0000
      6 C4         8.3878    6.3481    9.5065 C.ar      1 RES1    0.0000
      7 C5         8.4567    7.0702    8.3109 C.ar      1 RES1    0.0000
      8 H3         7.6636    7.4628    7.9660 H         1 RES1    0.0000
      9 C6         9.6571    7.2339    7.6028 C.ar      1 RES1    0.0000
     10 C7        10.7879    6.5812    8.1095 C.ar      1 RES1    0.0000
     11 H4        11.5994    6.6251    7.6185 H         1 RES1    0.0000
     12 C8         9.7099    7.9983    6.2728 C.3       1 RES1    0.0000
     13 C9         8.4763    8.7036    5.9325 Du        2 SUP2    0.0000
     14 H5         8.2099    9.2750    6.6829 Du        2 SUP2    0.0000
     15 H6         7.7668    8.0525    5.7502 Du        2 SUP2    0.0000
     16 H7         8.6241    9.2554    5.1364 Du        2 SUP2    0.0000
     17 C10       10.1811    7.1070    5.1891 Du        2 SUP2    0.0000
     18 H8        11.0026    6.6531    5.4725 Du        2 SUP2    0.0000
     19 H9        10.3606    7.6362    4.3846 Du        2 SUP2    0.0000
     20 H10        9.4904    6.4384    4.9926 Du        2 SUP2    0.0000
     21 C11       10.8471    9.1213    6.4181 Du        2 SUP2    0.0000
     22 H11       11.6986    8.6970    6.6459 Du        2 SUP2    0.0000
     23 H12       10.5960    9.7503    7.1258 Du        2 SUP2    0.0000
     24 H13       10.9386    9.6046    5.5693 Du        2 SUP2    0.0000
     25 C12        8.8679    9.2384    6.3283 C.3       1 RES1    0.0000
     26 H14        7.9857    9.0193    6.6929 H         1 RES1    0.0000
     27 H15        8.7651    9.6052    5.4241 H         1 RES1    0.0000
     28 H16        9.3035    9.9039    6.9022 H         1 RES1    0.0000
     29 C13        9.0240    6.9947    5.1806 C.3       1 RES1    0.0000
     30 H17        8.1092    6.7835    5.4611 H         1 RES1    0.0000
     31 H18        9.5470    6.1674    5.1236 H         1 RES1    0.0000
     32 H19        9.0046    7.4302    4.3034 H         1 RES1    0.0000
     33 C14       11.0509    8.2503    5.7545 C.3       1 RES1    0.0000
     34 H20       11.5451    7.4053    5.7018 H         1 RES1    0.0000
     35 H21       11.5216    8.8671    6.3526 H         1 RES1    0.0000
     36 H22       10.9861    8.6464    4.8602 H         1 RES1    0.0000
     37 O1         9.5196    5.1903   11.2646 O.3       1 RES1    0.0000
     38 C15       10.3013    5.7973   12.3236 C.3       1 RES1    0.0000
     39 H23       10.9691    6.4111   11.9262 H         1 RES1    0.0000
     40 H24       10.7905    5.0903   12.8148 H         1 RES1    0.0000
     41 C16        9.4272    6.5706   13.2971 C.3       1 RES1    0.0000
     42 H25        9.9276    6.7027   14.1405 H         1 RES1    0.0000
     43 H26        8.6246    6.0300   13.5054 H         1 RES1    0.0000
     44 C17        8.9833    7.9296   12.7698 C.3       1 RES1    0.0000
     45 H27        9.7786    8.4954   12.6040 H         1 RES1    0.0000
     46 H28        8.5055    7.8114   11.9105 H         1 RES1    0.0000
     47 N1         8.1046    8.5908   13.7300 N.am      1 RES1    0.0000
     48 C18        6.7640    8.2470   13.9016 C.2       1 RES1    0.0000
     49 O2         6.1552    7.4805   13.1901 O.2       1 RES1    0.0000
     50 C19        6.2933    9.0151   15.0859 C.ar      1 RES1    0.0000
     51 C20        5.0620    9.0163   15.7202 C.ar      1 RES1    0.0000
     52 H29        4.3431    8.4794   15.4065 H         1 RES1    0.0000
     53 C21        4.9210    9.8381   16.8379 C.ar      1 RES1    0.0000
     54 H30        4.0864    9.8679   17.2919 H         1 RES1    0.0000
     55 C22        5.9684   10.6098   17.2979 C.ar      1 RES1    0.0000
     56 H31        5.8414   11.1627   18.0594 H         1 RES1    0.0000
     57 C23        7.2130   10.5911   16.6633 C.ar      1 RES1    0.0000
     58 H32        7.9369   11.1159   16.9829 H         1 RES1    0.0000
     59 C24        7.3499    9.7811   15.5519 C.ar      1 RES1    0.0000
     60 C25        8.5359    9.5008   14.6969 C.2       1 RES1    0.0000
     61 O3         9.6591    9.9343   14.7781 O.2       1 RES1    0.0000
     62 C26        7.0631    5.9197   10.1066 C.3       1 RES1    0.0000
     63 H33        6.3539    6.5605    9.8485 H         1 RES1    0.0000
     64 H34        7.1280    5.9100   11.0945 H         1 RES1    0.0000
     65 C27        6.7125    4.5221    9.5948 C.ar      1 RES1    0.0000
     66 C28        6.2046    3.5208   10.4429 C.ar      1 RES1    0.0000
     67 C29        5.9980    2.2017    9.9979 C.ar      1 RES1    0.0000
     68 C30        6.2346    1.9025    8.6588 C.ar      1 RES1    0.0000
     69 H35        6.0867    1.0239    8.3277 H         1 RES1    0.0000
     70 C31        6.6885    2.9046    7.8177 C.ar      1 RES1    0.0000
     71 C32        6.9529    4.1883    8.2606 C.ar      1 RES1    0.0000
     72 H36        7.2959    4.8400    7.6598 H         1 RES1    0.0000
     73 N2         6.9431    2.5808    6.4091 N.pl3     1 RES1    0.0000
     74 O4         7.5200    3.4119    5.7123 O.2       1 RES1    0.0000
     75 O5         6.5432    1.5005    5.9759 O.2       1 RES1    0.0000
     76 O6         5.9595    3.7941   11.7688 O.3       1 RES1    0.0000
     77 C33        4.7621    4.5558   12.0207 C.3       1 RES1    0.0000
     78 H37        4.1008    4.3805   11.3053 H         1 RES1    0.0000
     79 H38        4.9753    5.5224   12.0145 H         1 RES1    0.0000
     80 C34        4.1945    4.1890   13.3117 C.2       1 RES1    0.0000
     81 H39        4.0206    3.2595   13.4114 H         1 RES1    0.0000
     82 C35        3.8986    4.8674   14.2963 C.2       1 RES1    0.0000
     83 H40        4.0378    5.8075   14.2844 H         1 RES1    0.0000
     84 H41        3.5311    4.4511   15.0676 H         1 RES1    0.0000
     85 C36        5.6518    1.0693   10.9536 C.3       1 RES1    0.0000
     86 H42        5.4949    1.4306   11.8621 H         1 RES1    0.0000
     87 H43        4.8251    0.6143   10.6531 H         1 RES1    0.0000
     88 C37        6.8056    0.0807   10.9825 C.ar      1 RES1    0.0000
     89 C38        8.0593    0.5048   11.4151 C.ar      1 RES1    0.0000
     90 C39        9.1968   -0.2877   11.2397 C.ar      1 RES1    0.0000
     91 C40        9.0321   -1.5720   10.7223 C.ar      1 RES1    0.0000
     92 H44        9.7954   -2.1294   10.6218 H         1 RES1    0.0000
     93 C41        7.7759   -2.0680   10.3465 C.ar      1 RES1    0.0000
     94 C42        6.6815   -1.2113   10.4609 C.ar      1 RES1    0.0000
     95 H45        5.8274   -1.5132   10.1761 H         1 RES1    0.0000
     96 C43        7.6584   -3.4923    9.7816 C.3       1 RES1    0.0000
     97 C44        8.3971   -3.5539    8.4385 C.3       1 RES1    0.0000
     98 H46        8.3273   -4.4580    8.0685 H         1 RES1    0.0000
     99 H47        9.3411   -3.3282    8.5740 H         1 RES1    0.0000
    100 H48        7.9957   -2.9142    7.8150 H         1 RES1    0.0000
    101 C45        8.3019   -4.4853   10.7679 C.3       1 RES1    0.0000
    102 H49        8.2286   -5.3951   10.4110 H         1 RES1    0.0000
    103 H50        7.8398   -4.4339   11.6300 H         1 RES1    0.0000
    104 H51        9.2472   -4.2573   10.8895 H         1 RES1    0.0000
    105 C46        6.1984   -3.9062    9.5644 C.3       1 RES1    0.0000
    106 H52        6.1673   -4.8165    9.2034 H         1 RES1    0.0000
    107 H53        5.7751   -3.2884    8.9315 H         1 RES1    0.0000
    108 H54        5.7200   -3.8773   10.4196 H         1 RES1    0.0000
    109 O7         8.2133    1.7738   11.9625 O.3       1 RES1    0.0000
    110 C47        7.9857    1.7570   13.3807 C.3       1 RES1    0.0000
    111 H55        8.4935    1.0143   13.7945 H         1 RES1    0.0000
    112 H56        7.0235    1.6170   13.5652 H         1 RES1    0.0000
    113 C48        8.4345    3.0740   13.9659 C.3       1 RES1    0.0000
    114 H57        7.9042    3.8125   13.5752 H         1 RES1    0.0000
    115 H58        9.3888    3.2286   13.7503 H         1 RES1    0.0000
    116 C49        8.2445    3.0457   15.4818 C.3       1 RES1    0.0000
    117 H59        7.2842    2.9150   15.6827 H         1 RES1    0.0000
    118 H60        8.7393    2.2722   15.8536 H         1 RES1    0.0000
    119 N3         8.7047    4.2649   16.1406 N.am      1 RES1    0.0000
    120 C50        7.8499    5.2467   16.6649 C.2       1 RES1    0.0000
    121 O8         6.6472    5.2025   16.6274 O.2       1 RES1    0.0000
    122 C51        8.7452    6.2791   17.2658 C.ar      1 RES1    0.0000
    123 C52        8.4332    7.4629   17.9196 C.ar      1 RES1    0.0000
    124 H61        7.5326    7.7355   18.0523 H         1 RES1    0.0000
    125 C53        9.5049    8.2342   18.3724 C.ar      1 RES1    0.0000
    126 H62        9.3305    9.0522   18.8227 H         1 RES1    0.0000
    127 C54       10.8182    7.8331   18.1786 C.ar      1 RES1    0.0000
    128 H63       11.5252    8.3812   18.4995 H         1 RES1    0.0000
    129 C55       11.1209    6.6388   17.5212 C.ar      1 RES1    0.0000
    130 H64       12.0204    6.3624   17.3859 H         1 RES1    0.0000
    131 C56       10.0585    5.8743   17.0759 C.ar      1 RES1    0.0000
    132 C57       10.0456    4.5649   16.3616 C.2       1 RES1    0.0000
    133 O9        10.9733    3.8674   16.0339 O.2       1 RES1    0.0000
    134 C58       10.5610    0.3281   11.4392 C.3       1 RES1    0.0000
    135 H65       11.2507   -0.3820   11.4648 H         1 RES1    0.0000
    136 H66       10.5876    0.8179   12.2993 H         1 RES1    0.0000
    137 C59       10.8445    1.2858   10.2867 C.ar      1 RES1    0.0000
    138 C60       11.3510    2.5763   10.5026 C.ar      1 RES1    0.0000
    139 C61       11.4958    3.5077    9.4575 C.ar      1 RES1    0.0000
    140 C62       11.1779    3.1052    8.1621 C.ar      1 RES1    0.0000
    141 H67       11.2721    3.7077    7.4334 H         1 RES1    0.0000
    142 C63       10.7238    1.8144    7.9522 C.ar      1 RES1    0.0000
    143 C64       10.5348    0.9081    8.9824 C.ar      1 RES1    0.0000
    144 H68       10.1980    0.0377    8.8019 H         1 RES1    0.0000
    145 N4        10.4271    1.3858    6.5804 N.pl3     1 RES1    0.0000
    146 O10       10.7543    2.1196    5.6636 O.2       1 RES1    0.0000
    147 O11        9.8869    0.3082    6.3974 O.2       1 RES1    0.0000
    148 O12       11.6623    2.9755   11.7828 O.3       1 RES1    0.0000
    149 C65       13.0068    2.6197   12.1801 C.3       1 RES1    0.0000
    150 H69       13.6564    2.9175   11.4947 H         1 RES1    0.0000
    151 H70       13.0854    1.6375   12.2822 H         1 RES1    0.0000
    152 C66       13.2807    3.2875   13.4644 C.2       1 RES1    0.0000
    153 H71       12.6485    3.1732   14.1647 H         1 RES1    0.0000
    154 C67       14.3260    4.0213   13.7073 C.2       1 RES1    0.0000
    155 H72       14.9785    4.1573   13.0312 H         1 RES1    0.0000
    156 H73       14.4375    4.4218   14.5620 H         1 RES1    0.0000
@<TRIPOS>BOND
     1    1    2 1
     2    3    1 1
     3    4    1 1
     4    5    4 ar
     5    6    5 ar
     6    7    6 ar
     7    8    7 1
     8    9    7 ar
     9   10    4 ar
    10   11   10 1
    11   12    9 1
    12   25   12 1
    13   26   25 1
    14   27   25 1
    15   28   25 1
    16   29   12 1
    17   30   29 1
    18   31   29 1
    19   32   29 1
    20   33   12 1
    21   34   33 1
    22   35   33 1
    23   36   33 1
    24   37    5 1
    25   38   37 1
    26   39   38 1
    27   40   38 1
    28   41   38 1
    29   42   41 1
    30   43   41 1
    31   44   41 1
    32   45   44 1
    33   46   44 1
    34   47   44 1
    35   48   47 1
    36   49   48 2
    37   50   48 1
    38   51   50 ar
    39   52   51 1
    40   53   51 ar
    41   54   53 1
    42   55   53 ar
    43   56   55 1
    44   57   55 ar
    45   58   57 1
    46   59   50 ar
    47   60   47 1
    48   61   60 2
    49   62    6 1
    50   63   62 1
    51   64   62 1
    52   65   62 1
    53   66   65 ar
    54   67   66 ar
    55   68   67 ar
    56   69   68 1
    57   70   68 ar
    58   71   65 ar
    59   72   71 1
    60   73   70 1
    61   74   73 2
    62   75   73 2
    63   76   66 1
    64   77   76 1
    65   78   77 1
    66   79   77 1
    67   80   77 1
    68   81   80 1
    69   82   80 2
    70   83   82 1
    71   84   82 1
    72   85   67 1
    73   86   85 1
    74   87   85 1
    75   88   85 1
    76   89   88 ar
    77   90   89 ar
    78   91   90 ar
    79   92   91 1
    80   93   91 ar
    81   94   88 ar
    82   95   94 1
    83   96   93 1
    84   97   96 1
    85   98   97 1
    86   99   97 1
    87  100   97 1
    88  101   96 1
    89  102  101 1
    90  103  101 1
    91  104  101 1
    92  105   96 1
    93  106  105 1
    94  107  105 1
    95  108  105 1
    96  109   89 1
    97  110  109 1
    98  111  110 1
    99  112  110 1
   100  113  110 1
   101  114  113 1
   102  115  113 1
   103  116  113 1
   104  117  116 1
   105  118  116 1
   106  119  116 1
   107  120  119 1
   108  121  120 2
   109  122  120 1
   110  123  122 ar
   111  124  123 1
   112  125  123 ar
   113  126  125 1
   114  127  125 ar
   115  128  127 1
   116  129  127 ar
   117  130  129 1
   118  131  122 ar
   119  132  119 1
   120  133  132 2
   121  134   90 1
   122  135  134 1
   123  136  134 1
   124  137  134 1
   125  138  137 ar
   126  139    1 1
   127  140  139 ar
   128  141  140 1
   129  142  140 ar
   130  143  137 ar
   131  144  143 1
   132  145  142 1
   133  146  145 2
   134  147  145 2
   135  148  138 1
   136  149  148 1
   137  150  149 1
   138  151  149 1
   139  152  149 1
   140  153  152 1
   141  154  152 2
   142  155  154 1
   143  156  154 1
   144    9   10 ar
   145   57   59 ar
   146   59   60 1
   147   70   71 ar
   148   93   94 ar
   149  129  131 ar
   150  131  132 1
   151  138  139 ar
   152  142  143 ar
@<TRIPOS>SUBSTRUCTURE
     1 RES1 1
     2 SUP2 13

@<TRIPOS>CRYSIN
  14.1953   14.6587   15.3671 111.1210  92.6660  99.4250   2 1

