# MOL2 file generated by ConQuest
# Please check atom types

@<TRIPOS>MOLECULE
FEGPIR
   149   120     2
SMALL
NO_CHARGES
****
Generated from CSD

@<TRIPOS>ATOM
      1 C1         5.5159    5.6743    8.8762 C.3       1 RES1    0.0000
      2 H1         4.8634    5.7819    8.1388 H         1 RES1    0.0000
      3 H2         6.0398    4.8540    8.6947 H         1 RES1    0.0000
      4 C2         6.4593    6.8664    8.8670 C.ar      1 RES1    0.0000
      5 C3         7.5362    6.9714    9.7619 C.ar      1 RES1    0.0000
      6 C4         8.3092    8.1486    9.8654 C.ar      1 RES1    0.0000
      7 C5         8.0540    9.1824    8.9795 C.ar      1 RES1    0.0000
      8 H3         8.5598    9.9855    9.0208 H         1 RES1    0.0000
      9 C6         7.0532    9.0337    8.0336 C.ar      1 RES1    0.0000
     10 C7         6.2426    7.9071    7.9770 C.ar      1 RES1    0.0000
     11 H4         5.5457    7.8502    7.3339 H         1 RES1    0.0000
     12 N1         6.8027   10.1214    7.0822 N.pl3     1 RES1    0.0000
     13 O1         7.4097   11.1788    7.2304 O.2       1 RES1    0.0000
     14 O2         5.9896    9.9355    6.1859 O.2       1 RES1    0.0000
     15 O3         7.7998    5.9346   10.6310 O.3       1 RES1    0.0000
     16 C8         8.4662    4.7852   10.0654 C.3       1 RES1    0.0000
     17 H5         8.0586    4.5736    9.1879 H         1 RES1    0.0000
     18 H6         8.3294    4.0065   10.6595 H         1 RES1    0.0000
     19 C9         9.9289    5.0065    9.8814 C.2       1 RES1    0.0000
     20 H7        10.2027    5.7162    9.3116 H         1 RES1    0.0000
     21 C10       10.8694    4.2800   10.4590 C.2       1 RES1    0.0000
     22 H8        10.6301    3.5638   11.0338 H         1 RES1    0.0000
     23 H9        11.7854    4.4738   10.2996 H         1 RES1    0.0000
     24 C11        9.3969    8.2987   10.9178 C.3       1 RES1    0.0000
     25 H10       10.0866    7.6033   10.7719 H         1 RES1    0.0000
     26 H11        9.8307    9.1825   10.8105 H         1 RES1    0.0000
     27 C12        8.8645    8.1766   12.3316 C.ar      1 RES1    0.0000
     28 C13        8.0552    9.1773   12.8712 C.ar      1 RES1    0.0000
     29 C14        7.4059    8.9909   14.0935 C.ar      1 RES1    0.0000
     30 C15        7.6361    7.8057   14.7910 C.ar      1 RES1    0.0000
     31 H12        7.2023    7.6748   15.6253 H         1 RES1    0.0000
     32 C16        8.4799    6.8049   14.3096 C.ar      1 RES1    0.0000
     33 C17        9.0796    7.0175   13.0714 C.ar      1 RES1    0.0000
     34 H13        9.6559    6.3493   12.7191 H         1 RES1    0.0000
     35 C18        8.6328    5.4764   15.0547 C.3       1 RES1    0.0000
     36 C19        9.6063    4.5234   14.4521 C.3       1 RES1    0.0000
     37 H14        9.6401    3.7067   14.9923 H         1 RES1    0.0000
     38 H15       10.4952    4.9366   14.4268 H         1 RES1    0.0000
     39 H16        9.3245    4.3012   13.5400 H         1 RES1    0.0000
     40 C20        9.0795    5.7926   16.5321 C.3       1 RES1    0.0000
     41 H17        8.4477    6.4230   16.9363 H         1 RES1    0.0000
     42 H18        9.9759    6.1885   16.5250 H         1 RES1    0.0000
     43 H19        9.0925    4.9640   17.0536 H         1 RES1    0.0000
     44 C21        7.2019    4.8911   15.1964 C.3       1 RES1    0.0000
     45 H20        6.6125    5.5631   15.5980 H         1 RES1    0.0000
     46 H21        7.2297    4.0965   15.7683 H         1 RES1    0.0000
     47 H22        6.8604    4.6460   14.3112 H         1 RES1    0.0000
     48 C22        8.1154    4.3558   14.0718 Du        2 SUP2    0.0000
     49 H23        8.5806    4.4340   13.2123 Du        2 SUP2    0.0000
     50 H24        7.1517    4.4620   13.9336 Du        2 SUP2    0.0000
     51 H25        8.2947    3.4732   14.4606 Du        2 SUP2    0.0000
     52 C23       10.1450    5.1561   15.2237 Du        2 SUP2    0.0000
     53 H26       10.5945    5.2400   14.3562 Du        2 SUP2    0.0000
     54 H27       10.2497    4.2416   15.5595 Du        2 SUP2    0.0000
     55 H28       10.5435    5.7866   15.8599 Du        2 SUP2    0.0000
     56 C24        7.9174    5.3585   16.3610 Du        2 SUP2    0.0000
     57 H29        8.0849    4.4727   16.7467 Du        2 SUP2    0.0000
     58 H30        6.9550    5.4762   16.2181 Du        2 SUP2    0.0000
     59 H31        8.2434    6.0490   16.9748 Du        2 SUP2    0.0000
     60 O4         7.8235   10.3273   12.1324 O.3       1 RES1    0.0000
     61 C25        8.6817   11.4271   12.4856 C.3       1 RES1    0.0000
     62 H32        9.6215   11.2148   12.2564 H         1 RES1    0.0000
     63 H33        8.6284   11.6032   13.4581 H         1 RES1    0.0000
     64 C26        8.2187   12.6336   11.7129 C.3       1 RES1    0.0000
     65 H34        7.2681   12.8122   11.9254 H         1 RES1    0.0000
     66 H35        8.2828   12.4434   10.7430 H         1 RES1    0.0000
     67 C27        9.0465   13.8737   12.0366 C.3       1 RES1    0.0000
     68 H36        8.7153   14.6335   11.5142 H         1 RES1    0.0000
     69 H37        9.9859   13.7077   11.8114 H         1 RES1    0.0000
     70 H38        8.9704   14.0769   12.9922 H         1 RES1    0.0000
     71 C28        6.3649    9.9718   14.6087 C.3       1 RES1    0.0000
     72 H39        6.6597   10.3497   15.4759 H         1 RES1    0.0000
     73 H40        6.2582   10.7173   13.9658 H         1 RES1    0.0000
     74 C29        5.0444    9.2527   14.7848 C.ar      1 RES1    0.0000
     75 C30        4.3252    8.8258   13.6562 C.ar      1 RES1    0.0000
     76 C31        3.1777    8.0263   13.7686 C.ar      1 RES1    0.0000
     77 C32        2.7383    7.6704   15.0373 C.ar      1 RES1    0.0000
     78 H41        1.9585    7.1386   15.1434 H         1 RES1    0.0000
     79 C33        3.4486    8.0982   16.1434 C.ar      1 RES1    0.0000
     80 C34        4.5888    8.8820   16.0411 C.ar      1 RES1    0.0000
     81 H42        5.0520    9.1612   16.8222 H         1 RES1    0.0000
     82 N2         2.9940    7.6809   17.4754 N.pl3     1 RES1    0.0000
     83 O5         3.6852    7.9756   18.4418 O.2       1 RES1    0.0000
     84 O6         1.9398    7.0495   17.5598 O.2       1 RES1    0.0000
     85 O7         4.8061    9.1148   12.4045 O.3       1 RES1    0.0000
     86 C35        4.3682   10.3954   11.8851 C.3       1 RES1    0.0000
     87 H43        4.6218   11.1208   12.5086 H         1 RES1    0.0000
     88 H44        3.3839   10.4019   11.7825 H         1 RES1    0.0000
     89 C36        5.0210   10.6049   10.5661 C.2       1 RES1    0.0000
     90 H45        5.8797   10.2232   10.4265 H         1 RES1    0.0000
     91 C37        4.4905   11.2739    9.6033 C.2       1 RES1    0.0000
     92 H46        3.6327   11.6676    9.7148 H         1 RES1    0.0000
     93 H47        4.9561   11.3750    8.7814 H         1 RES1    0.0000
     94 C38        2.4940    7.5049   12.5223 C.3       1 RES1    0.0000
     95 H48        2.4028    8.2389   11.8644 H         1 RES1    0.0000
     96 H49        1.5857    7.1851   12.7528 H         1 RES1    0.0000
     97 C39        3.2888    6.3673   11.9033 C.ar      1 RES1    0.0000
     98 C40        3.9182    6.4958   10.6659 C.ar      1 RES1    0.0000
     99 C41        4.7538    5.4852   10.1759 C.ar      1 RES1    0.0000
    100 C42        4.8566    4.2988   10.9019 C.ar      1 RES1    0.0000
    101 H50        5.4140    3.6055   10.5679 H         1 RES1    0.0000
    102 C43        4.1698    4.0904   12.1030 C.ar      1 RES1    0.0000
    103 C44        3.4208    5.1590   12.5934 C.ar      1 RES1    0.0000
    104 H51        2.9824    5.0614   13.4308 H         1 RES1    0.0000
    105 C45        4.1658    2.7218   12.8052 C.3       1 RES1    0.0000
    106 C46        2.7418    2.1161   12.5938 C.3       1 RES1    0.0000
    107 H52        2.0652    2.7583   12.8958 H         1 RES1    0.0000
    108 H53        2.6589    1.2882   13.1127 H         1 RES1    0.0000
    109 H54        2.6070    1.9207   11.6427 H         1 RES1    0.0000
    110 C47        5.2680    1.7942   12.3608 C.3       1 RES1    0.0000
    111 H55        5.2018    0.9486   12.8524 H         1 RES1    0.0000
    112 H56        6.1369    2.2091   12.5407 H         1 RES1    0.0000
    113 H57        5.1813    1.6207   11.4001 H         1 RES1    0.0000
    114 C48        4.2575    2.9634   14.3247 C.3       1 RES1    0.0000
    115 H58        3.5316    3.5603   14.6052 H         1 RES1    0.0000
    116 H59        5.1197    3.3760   14.5393 H         1 RES1    0.0000
    117 H60        4.1776    2.1089   14.7963 H         1 RES1    0.0000
    118 C49        5.6089    2.1389   12.8042 Du        2 SUP2    0.0000
    119 H61        5.9691    2.1598   11.8933 Du        2 SUP2    0.0000
    120 H62        5.5877    1.2131   13.1255 Du        2 SUP2    0.0000
    121 H63        6.1794    2.6759   13.3922 Du        2 SUP2    0.0000
    122 C50        3.4342    1.7035   11.8869 Du        2 SUP2    0.0000
    123 H64        3.7960    1.7635   10.9776 Du        2 SUP2    0.0000
    124 H65        2.4757    1.9082   11.8708 Du        2 SUP2    0.0000
    125 H66        3.5684    0.7961   12.2323 Du        2 SUP2    0.0000
    126 C51        3.6991    2.7128   14.2485 Du        2 SUP2    0.0000
    127 H67        3.7456    1.7985   14.6020 Du        2 SUP2    0.0000
    128 H68        2.7746    3.0339   14.2967 Du        2 SUP2    0.0000
    129 H69        4.2763    3.2972   14.7819 Du        2 SUP2    0.0000
    130 O8         3.7348    7.6345    9.8960 O.3       1 RES1    0.0000
    131 C52        2.5771    7.4481    9.0520 C.3       1 RES1    0.0000
    132 H70        1.8004    7.1692    9.5992 H         1 RES1    0.0000
    133 H71        2.7565    6.7405    8.3830 H         1 RES1    0.0000
    134 C53        2.2741    8.7437    8.3589 C.3       1 RES1    0.0000
    135 H72        3.0626    9.0438    7.8416 H         1 RES1    0.0000
    136 H73        2.0529    9.4413    9.0256 H         1 RES1    0.0000
    137 C54        2.4501    8.0204    9.3855 Du        2 SUP2    0.0000
    138 H74        2.2212    8.9221    9.7229 Du        2 SUP2    0.0000
    139 H75        1.7638    7.3885    9.7164 Du        2 SUP2    0.0000
    140 C55        2.4299    8.0334    7.8914 Du        2 SUP2    0.0000
    141 H76        2.6092    7.1226    7.5476 Du        2 SUP2    0.0000
    142 H77        3.1368    8.6368    7.5524 Du        2 SUP2    0.0000
    143 C56        1.0590    8.5124    7.4011 C.3       1 RES1    0.0000
    144 H78        0.8466    9.3478    6.9355 H         1 RES1    0.0000
    145 H79        0.2813    8.2237    7.9235 H         1 RES1    0.0000
    146 H80        1.2874    7.8213    6.7443 H         1 RES1    0.0000
    147 H81        1.0477    8.5212    6.4214 Du        2 SUP2    0.0000
    148 H82        0.8895    9.4172    7.7388 Du        2 SUP2    0.0000
    149 H83        0.3636    7.9054    7.7291 Du        2 SUP2    0.0000
@<TRIPOS>BOND
     1    1    2 1
     2    3    1 1
     3    4    1 1
     4    5    4 ar
     5    6    5 ar
     6    7    6 ar
     7    8    7 1
     8    9    7 ar
     9   10    4 ar
    10   11   10 1
    11   12    9 1
    12   13   12 2
    13   14   12 2
    14   15    5 1
    15   16   15 1
    16   17   16 1
    17   18   16 1
    18   19   16 1
    19   20   19 1
    20   21   19 2
    21   22   21 1
    22   23   21 1
    23   24    6 1
    24   25   24 1
    25   26   24 1
    26   27   24 1
    27   28   27 ar
    28   29   28 ar
    29   30   29 ar
    30   31   30 1
    31   32   30 ar
    32   33   27 ar
    33   34   33 1
    34   35   32 1
    35   36   35 1
    36   37   36 1
    37   38   36 1
    38   39   36 1
    39   40   35 1
    40   41   40 1
    41   42   40 1
    42   43   40 1
    43   44   35 1
    44   45   44 1
    45   46   44 1
    46   47   44 1
    47   60   28 1
    48   61   60 1
    49   62   61 1
    50   63   61 1
    51   64   61 1
    52   65   64 1
    53   66   64 1
    54   67   64 1
    55   68   67 1
    56   69   67 1
    57   70   67 1
    58   71   29 1
    59   72   71 1
    60   73   71 1
    61   74   71 1
    62   75   74 ar
    63   76   75 ar
    64   77   76 ar
    65   78   77 1
    66   79   77 ar
    67   80   74 ar
    68   81   80 1
    69   82   79 1
    70   83   82 2
    71   84   82 2
    72   85   75 1
    73   86   85 1
    74   87   86 1
    75   88   86 1
    76   89   86 1
    77   90   89 1
    78   91   89 2
    79   92   91 1
    80   93   91 1
    81   94   76 1
    82   95   94 1
    83   96   94 1
    84   97   94 1
    85   98   97 ar
    86   99    1 1
    87  100   99 ar
    88  101  100 1
    89  102  100 ar
    90  103   97 ar
    91  104  103 1
    92  105  102 1
    93  106  105 1
    94  107  106 1
    95  108  106 1
    96  109  106 1
    97  110  105 1
    98  111  110 1
    99  112  110 1
   100  113  110 1
   101  114  105 1
   102  115  114 1
   103  116  114 1
   104  117  114 1
   105  130   98 1
   106  131  130 1
   107  132  131 1
   108  133  131 1
   109  134  131 1
   110  135  134 1
   111  136  134 1
   112  143  134 1
   113  144  143 1
   114  145  143 1
   115  146  143 1
   116    9   10 ar
   117   32   33 ar
   118   79   80 ar
   119   98   99 ar
   120  102  103 ar
@<TRIPOS>SUBSTRUCTURE
     1 RES1 1
     2 SUP2 48

@<TRIPOS>CRYSIN
  10.3423   13.1610   16.5605 101.8680  96.9880  91.9680   2 1

