# MOL2 file generated by ConQuest
# Please check atom types

@<TRIPOS>MOLECULE
FEGPAJ
   144   152     1
SMALL
NO_CHARGES
****
Generated from CSD

@<TRIPOS>ATOM
      1 C1         0.9714   19.3360   12.2743 C.3       1 RES1    0.0000
      2 H1         0.1637   19.7770   12.6374 H         1 RES1    0.0000
      3 H2         0.9902   19.4889   11.2969 H         1 RES1    0.0000
      4 C2         0.8958   17.8492   12.5473 C.ar      1 RES1    0.0000
      5 C3         1.9128   16.9639   12.1061 C.ar      1 RES1    0.0000
      6 C4         1.9618   15.6458   12.5180 C.ar      1 RES1    0.0000
      7 C5         0.9072   15.1649   13.3004 C.ar      1 RES1    0.0000
      8 H3         0.9224   14.2566   13.5709 H         1 RES1    0.0000
      9 C6        -0.1543   15.9527   13.7025 C.ar      1 RES1    0.0000
     10 C7        -0.1093   17.3078   13.3223 C.ar      1 RES1    0.0000
     11 H4        -0.8090   17.8780   13.6148 H         1 RES1    0.0000
     12 C8        -1.2946   15.4471   14.5678 C.3       1 RES1    0.0000
     13 C9        -2.6326   16.0555   14.1534 C.3       1 RES1    0.0000
     14 H5        -3.3437   15.7087   14.7311 H         1 RES1    0.0000
     15 H6        -2.8249   15.8204   13.2224 H         1 RES1    0.0000
     16 H7        -2.5881   17.0315   14.2412 H         1 RES1    0.0000
     17 C10       -0.9787   15.8028   16.0302 C.3       1 RES1    0.0000
     18 H8        -1.7035   15.4882   16.6102 H         1 RES1    0.0000
     19 H9        -0.8907   16.7757   16.1179 H         1 RES1    0.0000
     20 H10       -0.1384   15.3765   16.2983 H         1 RES1    0.0000
     21 C11       -1.4410   13.9068   14.4605 C.3       1 RES1    0.0000
     22 H11       -2.1843   13.6099   15.0260 H         1 RES1    0.0000
     23 H12       -0.6121   13.4776   14.7579 H         1 RES1    0.0000
     24 H13       -1.6198   13.6599   13.5295 H         1 RES1    0.0000
     25 O1         2.9334   17.4621   11.2635 O.3       1 RES1    0.0000
     26 C12        2.5961   17.4048    9.8613 C.3       1 RES1    0.0000
     27 H14        1.7952   17.9603    9.6810 H         1 RES1    0.0000
     28 H15        2.3957   16.4730    9.5981 H         1 RES1    0.0000
     29 C13        3.7651   17.9221    9.0741 C.3       1 RES1    0.0000
     30 H16        4.5379   17.3137    9.1862 H         1 RES1    0.0000
     31 H17        4.0249   18.8157    9.4104 H         1 RES1    0.0000
     32 C14        3.4016   18.0191    7.6020 C.3       1 RES1    0.0000
     33 H18        3.1403   17.1196    7.2802 H         1 RES1    0.0000
     34 H19        2.6152   18.6129    7.5069 H         1 RES1    0.0000
     35 N1         4.4754   18.5215    6.7635 N.am      1 RES1    0.0000
     36 C15        5.4367   17.6987    6.1664 C.2       1 RES1    0.0000
     37 O2         5.5590   16.5132    6.3904 O.2       1 RES1    0.0000
     38 C16        6.2100   18.5571    5.2524 C.ar      1 RES1    0.0000
     39 C17        7.2509   18.2484    4.3920 C.ar      1 RES1    0.0000
     40 H20        7.5621   17.3577    4.3018 H         1 RES1    0.0000
     41 C18        7.8272   19.2890    3.6608 C.ar      1 RES1    0.0000
     42 H21        8.5407   19.1097    3.0613 H         1 RES1    0.0000
     43 C19        7.3570   20.5736    3.8119 C.ar      1 RES1    0.0000
     44 H22        7.7661   21.2732    3.3172 H         1 RES1    0.0000
     45 C20        6.3088   20.8763    4.6626 C.ar      1 RES1    0.0000
     46 H23        5.9987   21.7670    4.7576 H         1 RES1    0.0000
     47 C21        5.7249   19.8446    5.3694 C.ar      1 RES1    0.0000
     48 C22        4.6139   19.8357    6.3224 C.2       1 RES1    0.0000
     49 O3         3.8766   20.7247    6.6709 O.2       1 RES1    0.0000
     50 C23        3.1533   14.7707   12.1865 C.3       1 RES1    0.0000
     51 H24        2.9875   13.8539   12.5204 H         1 RES1    0.0000
     52 H25        3.2567   14.7210   11.2019 H         1 RES1    0.0000
     53 C24        4.4272   15.2986   12.7959 C.ar      1 RES1    0.0000
     54 C25        4.5988   15.3398   14.1802 C.ar      1 RES1    0.0000
     55 C26        5.7421   15.8677   14.7871 C.ar      1 RES1    0.0000
     56 C27        6.7565   16.3636   13.9560 C.ar      1 RES1    0.0000
     57 H26        7.5477   16.7375   14.3240 H         1 RES1    0.0000
     58 C28        6.5793   16.2960   12.5936 C.ar      1 RES1    0.0000
     59 C29        5.4543   15.7801   12.0037 C.ar      1 RES1    0.0000
     60 H27        5.3792   15.7528   11.0581 H         1 RES1    0.0000
     61 N2         7.6750   16.7807   11.7381 N.pl3     1 RES1    0.0000
     62 O4         7.5008   16.7428   10.5072 O.2       1 RES1    0.0000
     63 O5         8.7188   17.1690   12.2718 O.2       1 RES1    0.0000
     64 O6         3.5667   14.8700   14.9721 O.3       1 RES1    0.0000
     65 C30        3.6747   13.4682   15.3331 C.3       1 RES1    0.0000
     66 H28        4.4207   13.3424   15.9717 H         1 RES1    0.0000
     67 H29        3.8600   12.9250   14.5263 H         1 RES1    0.0000
     68 C31        2.4148   13.0337   15.9473 C.2       1 RES1    0.0000
     69 H30        1.9575   13.6540   16.5030 H         1 RES1    0.0000
     70 C32        1.8871   11.8697   15.7840 C.2       1 RES1    0.0000
     71 H31        2.3169   11.2230   15.2356 H         1 RES1    0.0000
     72 H32        1.0656   11.6551   16.2154 H         1 RES1    0.0000
     73 C33        5.8893   15.9988   16.3080 C.3       1 RES1    0.0000
     74 H33        5.7739   15.1061   16.7199 H         1 RES1    0.0000
     75 H34        6.8044   16.3142   16.5176 H         1 RES1    0.0000
     76 C34        4.8932   16.9509   16.9173 C.ar      1 RES1    0.0000
     77 C35        4.8612   18.2949   16.5347 C.ar      1 RES1    0.0000
     78 C36        3.8339   19.1335   16.9466 C.ar      1 RES1    0.0000
     79 C37        2.9021   18.6320   17.8533 C.ar      1 RES1    0.0000
     80 H35        2.2062   19.2038   18.1579 H         1 RES1    0.0000
     81 C38        2.9528   17.3263   18.3285 C.ar      1 RES1    0.0000
     82 C39        3.9207   16.5100   17.8289 C.ar      1 RES1    0.0000
     83 H36        3.9401   15.6029   18.1067 H         1 RES1    0.0000
     84 C40        1.9469   16.8278   19.3985 C.3       1 RES1    0.0000
     85 C41        1.5620   15.3706   19.1524 C.3       1 RES1    0.0000
     86 H37        1.1414   15.2883   18.2725 H         1 RES1    0.0000
     87 H38        0.9327   15.0767   19.8445 H         1 RES1    0.0000
     88 H39        2.3668   14.8092   19.1840 H         1 RES1    0.0000
     89 C42        0.6224   17.6105   19.3351 C.3       1 RES1    0.0000
     90 H40        0.2174   17.4959   18.4504 H         1 RES1    0.0000
     91 H41        0.7972   18.5629   19.4911 H         1 RES1    0.0000
     92 H42        0.0104   17.2754   20.0225 H         1 RES1    0.0000
     93 C43        2.5809   16.9991   20.7537 C.3       1 RES1    0.0000
     94 H43        2.8007   17.9456   20.8950 H         1 RES1    0.0000
     95 H44        3.3987   16.4641   20.8048 H         1 RES1    0.0000
     96 H45        1.9530   16.7052   21.4483 H         1 RES1    0.0000
     97 O7         5.8655   18.7834   15.7038 O.3       1 RES1    0.0000
     98 C44        6.9377   19.3948   16.4299 C.3       1 RES1    0.0000
     99 H46        7.4206   18.7099   16.9563 H         1 RES1    0.0000
    100 H47        6.5769   20.0709   17.0563 H         1 RES1    0.0000
    101 C45        7.8886   20.0556   15.4525 C.3       1 RES1    0.0000
    102 H48        8.4562   19.3654   15.0284 H         1 RES1    0.0000
    103 H49        7.3682   20.5060   14.7408 H         1 RES1    0.0000
    104 C46        8.7632   21.0615   16.1447 C.3       1 RES1    0.0000
    105 H50        8.2027   21.6347   16.7248 H         1 RES1    0.0000
    106 H51        9.4117   20.5883   16.7224 H         1 RES1    0.0000
    107 N3         9.5006   21.9140   15.1893 N.am      1 RES1    0.0000
    108 C47        8.9520   22.9751   14.5215 C.2       1 RES1    0.0000
    109 O8         7.8443   23.3896   14.6775 O.2       1 RES1    0.0000
    110 C48       10.0230   23.5425   13.6465 C.ar      1 RES1    0.0000
    111 C49        9.9820   24.5860   12.7593 C.ar      1 RES1    0.0000
    112 H52        9.1504   25.0093   12.5838 H         1 RES1    0.0000
    113 C50       11.0110   24.9975   12.1719 C.ar      1 RES1    0.0000
    114 H53       10.9813   25.8029   11.6723 H         1 RES1    0.0000
    115 C51       12.0834   24.3185   12.2572 C.ar      1 RES1    0.0000
    116 H54       12.7935   24.5889   11.6893 H         1 RES1    0.0000
    117 C52       12.3886   23.0222   13.2468 C.ar      1 RES1    0.0000
    118 H55       13.2033   22.5489   13.3589 H         1 RES1    0.0000
    119 C53       11.1346   22.7870   13.8853 C.ar      1 RES1    0.0000
    120 C54       10.8644   21.6876   14.8456 C.2       1 RES1    0.0000
    121 O9        11.5436   20.8528   15.3233 O.2       1 RES1    0.0000
    122 C55        3.6862   20.5527   16.4055 C.3       1 RES1    0.0000
    123 H56        4.4953   21.0762   16.6346 H         1 RES1    0.0000
    124 H57        2.9099   20.9880   16.8369 H         1 RES1    0.0000
    125 C56        3.4935   20.5668   14.8871 C.ar      1 RES1    0.0000
    126 C57        2.3436   20.0847   14.2948 C.ar      1 RES1    0.0000
    127 C58        2.2063   19.9583   12.9031 C.ar      1 RES1    0.0000
    128 C59        3.2936   20.3531   12.0964 C.ar      1 RES1    0.0000
    129 H58        3.2420   20.2826   11.1507 H         1 RES1    0.0000
    130 C60        4.4100   20.8293   12.6886 C.ar      1 RES1    0.0000
    131 C61        4.5355   20.9760   14.0486 C.ar      1 RES1    0.0000
    132 H59        5.3248   21.3525   14.4191 H         1 RES1    0.0000
    133 N4         5.5519   21.1526   11.8404 N.pl3     1 RES1    0.0000
    134 O10        6.5426   21.6700   12.3523 O.2       1 RES1    0.0000
    135 O11        5.4870   20.8505   10.6535 O.2       1 RES1    0.0000
    136 O12        1.3060   19.6200   15.0916 O.3       1 RES1    0.0000
    137 C62        0.3622   20.6177   15.5378 C.3       1 RES1    0.0000
    138 H60        0.8105   21.2173   16.1861 H         1 RES1    0.0000
    139 H61        0.0848   21.1673   14.7628 H         1 RES1    0.0000
    140 C63       -0.7220   20.1003   16.1082 C.2       1 RES1    0.0000
    141 H62       -0.3692   19.6270   16.8515 H         1 RES1    0.0000
    142 C64       -1.8775   19.9063   16.1910 C.2       1 RES1    0.0000
    143 H63       -2.4690   20.2796   15.5500 H         1 RES1    0.0000
    144 H64       -2.2187   19.3772   16.9027 H         1 RES1    0.0000
@<TRIPOS>BOND
     1    1    2 1
     2    3    1 1
     3    4    1 1
     4    5    4 ar
     5    6    5 ar
     6    7    6 ar
     7    8    7 1
     8    9    7 ar
     9   10    4 ar
    10   11   10 1
    11   12    9 1
    12   13   12 1
    13   14   13 1
    14   15   13 1
    15   16   13 1
    16   17   12 1
    17   18   17 1
    18   19   17 1
    19   20   17 1
    20   21   12 1
    21   22   21 1
    22   23   21 1
    23   24   21 1
    24   25    5 1
    25   26   25 1
    26   27   26 1
    27   28   26 1
    28   29   26 1
    29   30   29 1
    30   31   29 1
    31   32   29 1
    32   33   32 1
    33   34   32 1
    34   35   32 1
    35   36   35 1
    36   37   36 2
    37   38   36 1
    38   39   38 ar
    39   40   39 1
    40   41   39 ar
    41   42   41 1
    42   43   41 ar
    43   44   43 1
    44   45   43 ar
    45   46   45 1
    46   47   38 ar
    47   48   35 1
    48   49   48 2
    49   50    6 1
    50   51   50 1
    51   52   50 1
    52   53   50 1
    53   54   53 ar
    54   55   54 ar
    55   56   55 ar
    56   57   56 1
    57   58   56 ar
    58   59   53 ar
    59   60   59 1
    60   61   58 1
    61   62   61 2
    62   63   61 2
    63   64   54 1
    64   65   64 1
    65   66   65 1
    66   67   65 1
    67   68   65 1
    68   69   68 1
    69   70   68 2
    70   71   70 1
    71   72   70 1
    72   73   55 1
    73   74   73 1
    74   75   73 1
    75   76   73 1
    76   77   76 ar
    77   78   77 ar
    78   79   78 ar
    79   80   79 1
    80   81   79 ar
    81   82   76 ar
    82   83   82 1
    83   84   81 1
    84   85   84 1
    85   86   85 1
    86   87   85 1
    87   88   85 1
    88   89   84 1
    89   90   89 1
    90   91   89 1
    91   92   89 1
    92   93   84 1
    93   94   93 1
    94   95   93 1
    95   96   93 1
    96   97   77 1
    97   98   97 1
    98   99   98 1
    99  100   98 1
   100  101   98 1
   101  102  101 1
   102  103  101 1
   103  104  101 1
   104  105  104 1
   105  106  104 1
   106  107  104 1
   107  108  107 1
   108  109  108 2
   109  110  108 1
   110  111  110 ar
   111  112  111 1
   112  113  111 ar
   113  114  113 1
   114  115  113 ar
   115  116  115 1
   116  117  115 ar
   117  118  117 1
   118  119  110 ar
   119  120  107 1
   120  121  120 2
   121  122   78 1
   122  123  122 1
   123  124  122 1
   124  125  122 1
   125  126  125 ar
   126  127    1 1
   127  128  127 ar
   128  129  128 1
   129  130  128 ar
   130  131  125 ar
   131  132  131 1
   132  133  130 1
   133  134  133 2
   134  135  133 2
   135  136  126 1
   136  137  136 1
   137  138  137 1
   138  139  137 1
   139  140  137 1
   140  141  140 1
   141  142  140 2
   142  143  142 1
   143  144  142 1
   144    9   10 ar
   145   45   47 ar
   146   47   48 1
   147   58   59 ar
   148   81   82 ar
   149  117  119 ar
   150  119  120 1
   151  126  127 ar
   152  130  131 ar
@<TRIPOS>SUBSTRUCTURE
     1 RES1 1

@<TRIPOS>CRYSIN
  16.7651   29.3950   24.5070  90.0000  95.9930  90.0000  15 1

