# MOL2 file generated by ConQuest
# Please check atom types

@<TRIPOS>MOLECULE
FEGTIU
    86    90     2
SMALL
NO_CHARGES
****
Generated from CSD

@<TRIPOS>ATOM
      1 O1        -4.0779    9.4216    9.8679 O.2       1 RES1    0.0000
      2 O2        -4.2452   11.3143    8.8440 O.2       1 RES1    0.0000
      3 N1        -3.7337   10.2081    9.0202 N.pl3     1 RES1    0.0000
      4 C1        -2.6101    9.8004    8.1534 C.ar      1 RES1    0.0000
      5 C2        -2.1992    8.4829    8.1391 C.ar      1 RES1    0.0000
      6 C3        -1.1666    8.1154    7.3009 C.ar      1 RES1    0.0000
      7 C4        -0.5335    9.0856    6.5056 C.ar      1 RES1    0.0000
      8 C5        -0.9704   10.4145    6.5818 C.ar      1 RES1    0.0000
      9 C6        -2.0093   10.7744    7.3866 C.ar      1 RES1    0.0000
     10 C7         0.5584    8.6553    5.6150 C.2       1 RES1    0.0000
     11 O3         0.8992    7.5366    5.4054 O.2       1 RES1    0.0000
     12 O4         1.1084    9.7400    5.0340 O.3       1 RES1    0.0000
     13 N2         2.2297    9.4720    4.1291 N.2       1 RES1    0.0000
     14 C8         2.6813   10.5819    3.7243 C.2       1 RES1    0.0000
     15 C9         2.1726   11.9573    4.0338 C.3       1 RES1    0.0000
     16 C10        2.1201   12.8206    2.7623 C.3       1 RES1    0.0000
     17 C11        3.4726   12.8495    2.0574 C.3       1 RES1    0.0000
     18 C12        3.8394   11.4326    1.6431 C.3       1 RES1    0.0000
     19 C13        3.8999   10.4963    2.8432 C.3       1 RES1    0.0000
     20 C14        3.5342   13.8046    0.8715 C.ar      1 RES1    0.0000
     21 C15        2.5581   13.8726   -0.0857 C.ar      1 RES1    0.0000
     22 C16        2.6610   14.7459   -1.1668 C.ar      1 RES1    0.0000
     23 C17        3.7411   15.5702   -1.2764 C.ar      1 RES1    0.0000
     24 C18        4.7177   15.5324   -0.3191 C.ar      1 RES1    0.0000
     25 C19        4.6058   14.6692    0.7620 C.ar      1 RES1    0.0000
     26 O5         6.8802    6.5072    9.8155 O.2       2 RES2    0.0000
     27 O6         7.0791    4.6271   10.8633 O.2       2 RES2    0.0000
     28 N3         6.5761    5.7119   10.6871 N.pl3     2 RES2    0.0000
     29 C20        5.4299    6.0982   11.5681 C.ar      2 RES2    0.0000
     30 C21        4.9964    7.4107   11.5681 C.ar      2 RES2    0.0000
     31 C22        3.9649    7.7543   12.4206 C.ar      2 RES2    0.0000
     32 C23        3.3675    6.7803   13.2064 C.ar      2 RES2    0.0000
     33 C24        3.8140    5.4715   13.1445 C.ar      2 RES2    0.0000
     34 C25        4.8585    5.1141   12.3301 C.ar      2 RES2    0.0000
     35 C26        2.2568    7.1918   14.1256 C.2       2 RES2    0.0000
     36 O7         1.9177    8.3142   14.3304 O.2       2 RES2    0.0000
     37 O8         1.7182    6.0982   14.6733 O.3       2 RES2    0.0000
     38 N4         0.6138    6.3386   15.5781 N.2       2 RES2    0.0000
     39 C27        0.1616    5.2035   15.9591 C.2       2 RES2    0.0000
     40 C28       -1.0451    5.2337   16.8545 C.3       2 RES2    0.0000
     41 C29       -0.8715    4.3239   18.0785 C.3       2 RES2    0.0000
     42 C30       -0.4307    2.9233   17.6832 C.3       2 RES2    0.0000
     43 C31        0.8438    2.9988   16.8688 C.3       2 RES2    0.0000
     44 C32        0.6760    3.8457   15.6115 C.3       2 RES2    0.0000
     45 C33       -0.3369    1.9983   18.8786 C.ar      2 RES2    0.0000
     46 C34       -1.3616    1.0747   19.1310 C.ar      2 RES2    0.0000
     47 C35       -1.3011    0.2215   20.2216 C.ar      2 RES2    0.0000
     48 C36       -0.2216    0.2668   21.0503 C.ar      2 RES2    0.0000
     49 C37        0.7885    1.1753   20.8598 C.ar      2 RES2    0.0000
     50 C38        0.7189    2.0348   19.7644 C.ar      2 RES2    0.0000
     51 H1        -2.6751    7.7530    8.7773 H         1 RES1    0.0000
     52 H2        -0.8478    7.0848    7.2485 H         1 RES1    0.0000
     53 H3        -0.4719   11.1696    5.9912 H         1 RES1    0.0000
     54 H4        -2.3535   11.7975    7.4200 H         1 RES1    0.0000
     55 H5         1.1796   11.8806    4.4482 H         1 RES1    0.0000
     56 H6         2.8305   12.4242    4.7482 H         1 RES1    0.0000
     57 H7         1.8420   13.8286    3.0337 H         1 RES1    0.0000
     58 H8         1.3808   12.4116    2.0907 H         1 RES1    0.0000
     59 H9         4.1943   13.2371    2.7623 H         1 RES1    0.0000
     60 H10        3.0967   11.0664    0.9477 H         1 RES1    0.0000
     61 H11        4.8059   11.4464    1.1621 H         1 RES1    0.0000
     62 H12        4.7680   10.7505    3.4338 H         1 RES1    0.0000
     63 H13        3.9937    9.4820    2.4860 H         1 RES1    0.0000
     64 H14        1.6899   13.2359    0.0000 H         1 RES1    0.0000
     65 H15        1.8855   14.7698   -1.9145 H         1 RES1    0.0000
     66 H16        3.8258   16.2497   -2.1098 H         1 RES1    0.0000
     67 H17        5.5791   16.1767   -0.4001 H         1 RES1    0.0000
     68 H18        5.3688   14.6717    1.5240 H         1 RES1    0.0000
     69 H19        5.4508    8.1456   10.9204 H         2 RES2    0.0000
     70 H20        3.6258    8.7786   12.4730 H         2 RES2    0.0000
     71 H21        3.3330    4.7190   13.7541 H         2 RES2    0.0000
     72 H22        5.2168    4.0961   12.2920 H         2 RES2    0.0000
     73 H23       -1.2033    5.9094   17.1926 H         2 RES2    0.0000
     74 H24       -1.9064    4.9027   16.2925 H         2 RES2    0.0000
     75 H25       -1.8137    4.2584   18.6023 H         2 RES2    0.0000
     76 H26       -0.1260    4.7530   18.7309 H         2 RES2    0.0000
     77 H27       -1.1864    2.4816   17.0498 H         2 RES2    0.0000
     78 H28        1.6204    3.4342   17.4831 H         2 RES2    0.0000
     79 H29        1.1315    1.9983   16.5830 H         2 RES2    0.0000
     80 H30       -0.0237    3.3587   14.9495 H         2 RES2    0.0000
     81 H31        1.6317    3.9413   15.1209 H         2 RES2    0.0000
     82 H32       -2.2099    1.0269   18.4642 H         2 RES2    0.0000
     83 H33       -2.1042   -0.4757   20.4121 H         2 RES2    0.0000
     84 H34       -0.1605   -0.4266   21.8789 H         2 RES2    0.0000
     85 H35        1.6216    1.2244   21.5456 H         2 RES2    0.0000
     86 H36        1.5136    2.7496   19.6072 H         2 RES2    0.0000
@<TRIPOS>BOND
     1    1    3 2
     2    2    3 2
     3    3    4 1
     4    4    5 ar
     5    5    6 ar
     6    6    7 ar
     7    7    8 ar
     8    8    9 ar
     9    9    4 ar
    10   10    7 1
    11   11   10 2
    12   12   10 1
    13   13   12 1
    14   14   13 2
    15   15   14 1
    16   16   15 1
    17   17   16 1
    18   18   17 1
    19   19   14 1
    20   20   17 1
    21   21   20 ar
    22   22   21 ar
    23   23   22 ar
    24   24   23 ar
    25   25   20 ar
    26   26   28 2
    27   27   28 2
    28   28   29 1
    29   29   30 ar
    30   30   31 ar
    31   31   32 ar
    32   32   33 ar
    33   33   34 ar
    34   34   29 ar
    35   35   32 1
    36   36   35 2
    37   37   35 1
    38   38   37 1
    39   39   38 2
    40   40   39 1
    41   41   40 1
    42   42   41 1
    43   43   42 1
    44   44   39 1
    45   45   42 1
    46   46   45 ar
    47   47   46 ar
    48   48   47 ar
    49   49   48 ar
    50   50   45 ar
    51   51    5 1
    52   52    6 1
    53   53    8 1
    54   54    9 1
    55   55   15 1
    56   56   15 1
    57   57   16 1
    58   58   16 1
    59   59   17 1
    60   60   18 1
    61   61   18 1
    62   62   19 1
    63   63   19 1
    64   64   21 1
    65   65   22 1
    66   66   23 1
    67   67   24 1
    68   68   25 1
    69   69   30 1
    70   70   31 1
    71   71   33 1
    72   72   34 1
    73   73   40 1
    74   74   40 1
    75   75   41 1
    76   76   41 1
    77   77   42 1
    78   78   43 1
    79   79   43 1
    80   80   44 1
    81   81   44 1
    82   82   46 1
    83   83   47 1
    84   84   48 1
    85   85   49 1
    86   86   50 1
    87   18   19 1
    88   24   25 ar
    89   43   44 1
    90   49   50 ar
@<TRIPOS>SUBSTRUCTURE
     1 RES1 1
     2 RES2 26

@<TRIPOS>CRYSIN
   5.6520   12.5840   47.6250  90.0000  90.0000  90.0000  29 5

