# MOL2 file generated by ConQuest
# Please check atom types

@<TRIPOS>MOLECULE
FEJJUA
    45    46     1
SMALL
NO_CHARGES
****
Generated from CSD

@<TRIPOS>ATOM
      1 O1         3.9601    6.4145    4.2061 O.3       1 RES1    0.0000
      2 H1         3.5641    6.2842    4.9127 H         1 RES1    0.0000
      3 N1         5.0277    7.3136    4.4227 N.2       1 RES1    0.0000
      4 C1         5.6890    7.5671    3.3565 C.2       1 RES1    0.0000
      5 C2         5.3445    6.9582    2.0338 C.3       1 RES1    0.0000
      6 H2         5.5682    6.0237    2.0440 H         1 RES1    0.0000
      7 H3         5.8400    7.3986    1.3396 H         1 RES1    0.0000
      8 H4         4.4039    7.0602    1.8694 H         1 RES1    0.0000
      9 C3         6.8314    8.5668    3.4687 C.3       1 RES1    0.0000
     10 C4         6.4540    9.8157    2.6543 C.3       1 RES1    0.0000
     11 H5         6.2803    9.5622    1.7446 H         1 RES1    0.0000
     12 H6         7.1793   10.4444    2.6781 H         1 RES1    0.0000
     13 H7         5.6684   10.2179    3.0309 H         1 RES1    0.0000
     14 C5         7.0897    8.9534    4.9411 C.3       1 RES1    0.0000
     15 H8         6.2950    9.3753    5.3041 H         1 RES1    0.0000
     16 H9         7.2629    8.1505    5.4561 H         1 RES1    0.0000
     17 C6         8.2707    9.9049    5.0852 C.3       1 RES1    0.0000
     18 H10        7.9450   10.8126    4.9831 H         1 RES1    0.0000
     19 H11        8.6209    9.8214    5.9858 H         1 RES1    0.0000
     20 C7         9.4068    9.6982    4.1130 C.2       1 RES1    0.0000
     21 C8         9.3335    8.8571    3.0865 C.2       1 RES1    0.0000
     22 C9         8.1339    7.9197    2.9186 C.3       1 RES1    0.0000
     23 H12        8.0060    7.7795    1.9578 H         1 RES1    0.0000
     24 C10        8.3947    6.5462    3.5504 C.3       1 RES1    0.0000
     25 H13        9.2721    6.2431    3.3065 H         1 RES1    0.0000
     26 H14        7.7399    5.9189    3.2351 H         1 RES1    0.0000
     27 H15        8.3351    6.6170    4.5066 H         1 RES1    0.0000
     28 C11       10.5975   10.5917    4.3841 C.3       1 RES1    0.0000
     29 H16       11.1160   10.2108    5.1112 H         1 RES1    0.0000
     30 H17       10.2792   11.4611    4.6723 H         1 RES1    0.0000
     31 C12       11.5050   10.7758    3.1772 C.3       1 RES1    0.0000
     32 H18       11.1074   11.4115    2.5624 H         1 RES1    0.0000
     33 H19       12.3627   11.1269    3.4631 H         1 RES1    0.0000
     34 C13       11.7025    9.4518    2.4842 C.3       1 RES1    0.0000
     35 H20       12.1378    8.8401    3.0990 H         1 RES1    0.0000
     36 H21       12.2973    9.5807    1.7287 H         1 RES1    0.0000
     37 C14       10.4141    8.8089    1.9862 C.3       1 RES1    0.0000
     38 C15       10.7733    7.3830    1.5517 C.3       1 RES1    0.0000
     39 H22       11.1157    6.8959    2.3049 H         1 RES1    0.0000
     40 H23       11.4404    7.4170    0.8621 H         1 RES1    0.0000
     41 H24        9.9886    6.9426    1.2160 H         1 RES1    0.0000
     42 C16        9.8544    9.5679    0.7600 C.3       1 RES1    0.0000
     43 H25        9.0415    9.1502    0.4685 H         1 RES1    0.0000
     44 H26       10.4990    9.5467    0.0488 H         1 RES1    0.0000
     45 H27        9.6765   10.4798    1.0016 H         1 RES1    0.0000
@<TRIPOS>BOND
     1    1    2 1
     2    3    1 1
     3    4    3 2
     4    5    4 1
     5    6    5 1
     6    7    5 1
     7    8    5 1
     8    9    4 1
     9   10    9 1
    10   11   10 1
    11   12   10 1
    12   13   10 1
    13   14    9 1
    14   15   14 1
    15   16   14 1
    16   17   14 1
    17   18   17 1
    18   19   17 1
    19   20   17 1
    20   21   20 2
    21   22    9 1
    22   23   22 1
    23   24   22 1
    24   25   24 1
    25   26   24 1
    26   27   24 1
    27   28   20 1
    28   29   28 1
    29   30   28 1
    30   31   28 1
    31   32   31 1
    32   33   31 1
    33   34   31 1
    34   35   34 1
    35   36   34 1
    36   37   21 1
    37   38   37 1
    38   39   38 1
    39   40   38 1
    40   41   38 1
    41   42   37 1
    42   43   42 1
    43   44   42 1
    44   45   42 1
    45   21   22 1
    46   34   37 1
@<TRIPOS>SUBSTRUCTURE
     1 RES1 1

@<TRIPOS>CRYSIN
   9.3980   14.1600   11.3860  90.0000  94.9700  90.0000 231 1

