# MOL2 file generated by ConQuest
# Please check atom types

@<TRIPOS>MOLECULE
FEJWAT
    63    51     2
SMALL
NO_CHARGES
****
Generated from CSD

@<TRIPOS>ATOM
      1 O1         6.9080    2.9329    1.5098 O.2       1 RES1    0.0000
      2 O2         6.3929    3.2502    4.0858 O.3       1 RES1    0.0000
      3 O3         6.4024   -0.5327    5.1462 O.2       1 RES1    0.0000
      4 N1         6.4911    4.3478    3.2126 N.am      1 RES1    0.0000
      5 N2         6.5860    0.4890    3.1867 N.am      1 RES1    0.0000
      6 C1         6.8657    4.0755    1.9429 C.2       1 RES1    0.0000
      7 C2         7.1972    5.3075    1.1025 C.3       1 RES1    0.0000
      8 C3         7.0205    4.9729   -0.3596 C.3       1 RES1    0.0000
      9 H1         7.2272    5.7446   -0.8920 H         1 RES1    0.0000
     10 H2         6.1118    4.7079   -0.5207 H         1 RES1    0.0000
     11 H3         7.6099    4.2531   -0.5974 H         1 RES1    0.0000
     12 C4         8.6858    5.6121    1.3704 C.3       1 RES1    0.0000
     13 H4         8.9511    6.3824    0.8638 H         1 RES1    0.0000
     14 H5         9.2193    4.8582    1.1080 H         1 RES1    0.0000
     15 H6         8.8140    5.7842    2.3068 H         1 RES1    0.0000
     16 C5         6.3526    6.5094    1.4894 C.3       1 RES1    0.0000
     17 H7         6.5921    7.2592    0.9405 H         1 RES1    0.0000
     18 H8         6.5075    6.7266    2.4117 H         1 RES1    0.0000
     19 H9         5.4242    6.3018    1.3603 H         1 RES1    0.0000
     20 C6         5.0476    2.7343    4.0955 C.3       1 RES1    0.0000
     21 H10        4.7747    2.5158    3.1807 H         1 RES1    0.0000
     22 C7         5.1411    1.4655    4.9079 C.3       1 RES1    0.0000
     23 H11        5.4296    1.7264    5.8064 H         1 RES1    0.0000
     24 C8         3.7357    0.8386    5.0556 C.3       1 RES1    0.0000
     25 H12        3.4246    0.5395    4.1857 H         1 RES1    0.0000
     26 H13        3.7896    0.0628    5.6368 H         1 RES1    0.0000
     27 C9         2.7377    1.8302    5.6328 C.3       1 RES1    0.0000
     28 H14        1.8576    1.4245    5.6651 H         1 RES1    0.0000
     29 H15        2.9955    2.0583    6.5410 H         1 RES1    0.0000
     30 C10        2.6845    3.0867    4.7952 C.3       1 RES1    0.0000
     31 H16        2.0705    3.7204    5.1989 H         1 RES1    0.0000
     32 H17        2.3563    2.8709    3.9072 H         1 RES1    0.0000
     33 C11        4.0727    3.7163    4.6893 C.3       1 RES1    0.0000
     34 H18        4.0291    4.5085    4.1313 H         1 RES1    0.0000
     35 H19        4.3763    3.9840    5.5702 H         1 RES1    0.0000
     36 C12        6.1193    0.4084    4.4239 C.2       1 RES1    0.0000
     37 C13        7.4906   -0.5040    2.6095 C.3       1 RES1    0.0000
     38 H20        8.2676   -0.0478    2.2503 H         1 RES1    0.0000
     39 H21        7.7962   -1.0967    3.3139 H         1 RES1    0.0000
     40 H22        8.2089   -0.6433    3.2473 Du        2 SUP2    0.0000
     41 H23        7.8883   -0.1161    1.8144 Du        2 SUP2    0.0000
     42 C14        6.9925   -1.8124    2.1918 C.3       1 RES1    0.0000
     43 H24        6.9093   -2.3451    3.0091 H         1 RES1    0.0000
     44 C15        5.5463   -1.7291    1.5843 C.3       1 RES1    0.0000
     45 H25        5.2168   -2.6155    1.4148 H         1 RES1    0.0000
     46 H26        5.5702   -1.2347    0.7629 H         1 RES1    0.0000
     47 H27        4.9616   -1.2852    2.2059 H         1 RES1    0.0000
     48 C16        7.8589   -2.6770    1.1988 C.3       1 RES1    0.0000
     49 H28        7.4435   -3.5279    1.0717 H         1 RES1    0.0000
     50 H29        8.7369   -2.7931    1.5661 H         1 RES1    0.0000
     51 H30        7.9231   -2.2181    0.3552 H         1 RES1    0.0000
     52 C17        6.8766   -1.2961    1.5581 Du        2 SUP2    0.0000
     53 H31        6.6098   -0.7812    0.7669 Du        2 SUP2    0.0000
     54 C18        5.7305   -2.2017    2.1716 Du        2 SUP2    0.0000
     55 H32        5.3546   -2.7535    1.4814 Du        2 SUP2    0.0000
     56 H33        5.0462   -1.6431    2.5429 Du        2 SUP2    0.0000
     57 H34        6.0989   -2.7603    2.8598 Du        2 SUP2    0.0000
     58 C19        8.1114   -2.2672    1.3199 Du        2 SUP2    0.0000
     59 H35        7.8617   -2.9515    0.7003 Du        2 SUP2    0.0000
     60 H36        8.3685   -2.6619    2.1554 Du        2 SUP2    0.0000
     61 H37        8.8468   -1.7605    0.9647 Du        2 SUP2    0.0000
     62 H38        6.7197    5.3130    3.8225 H         1 RES1    0.0000
     63 H39        6.6105    1.2019    2.8336 H         1 RES1    0.0000
@<TRIPOS>BOND
     1    1    6 2
     2    2    4 1
     3    3   36 2
     4    4    6 1
     5    5   36 1
     6    6    7 1
     7    7    8 1
     8    8    9 1
     9   10    8 1
    10   11    8 1
    11   12    7 1
    12   13   12 1
    13   14   12 1
    14   15   12 1
    15   16    7 1
    16   17   16 1
    17   18   16 1
    18   19   16 1
    19   20    2 1
    20   21   20 1
    21   22   20 1
    22   23   22 1
    23   24   22 1
    24   25   24 1
    25   26   24 1
    26   27   24 1
    27   28   27 1
    28   29   27 1
    29   30   27 1
    30   31   30 1
    31   32   30 1
    32   33   20 1
    33   34   33 1
    34   35   33 1
    35   36   22 1
    36   37    5 1
    37   38   37 1
    38   39   37 1
    39   42   37 1
    40   43   42 1
    41   44   42 1
    42   45   44 1
    43   46   44 1
    44   47   44 1
    45   48   42 1
    46   49   48 1
    47   50   48 1
    48   51   48 1
    49   62    4 1
    50   63    5 1
    51   30   33 1
@<TRIPOS>SUBSTRUCTURE
     1 RES1 1
     2 SUP2 40

@<TRIPOS>CRYSIN
   6.8220   13.6580   20.1820  90.0000  90.0000  90.0000  19 1

