# MOL2 file generated by ConQuest
# Please check atom types

@<TRIPOS>MOLECULE
FEKDOQ
    31    32     1
SMALL
NO_CHARGES
****
Generated from CSD

@<TRIPOS>ATOM
      1 O1         0.4972    3.4992    0.2352 O.2       1 RES1    0.0000
      2 O2         2.1787    3.2140   -1.0875 O.2       1 RES1    0.0000
      3 N1         1.4603    2.8647   -0.1614 N.pl3     1 RES1    0.0000
      4 O3        -0.8647    1.2299   -1.9948 O.2       1 RES1    0.0000
      5 N2         1.0445    0.1741   -1.4043 N.am      1 RES1    0.0000
      6 C1         2.2320   -0.6300   -1.6931 C.3       1 RES1    0.0000
      7 H1         3.0357   -0.1812   -1.3290 H         1 RES1    0.0000
      8 H2         2.3448   -0.7172   -2.6732 H         1 RES1    0.0000
      9 C2         2.0896   -2.0049   -1.0712 C.3       1 RES1    0.0000
     10 H3         1.4124   -2.5232   -1.5737 H         1 RES1    0.0000
     11 H4         2.9523   -2.4851   -1.1366 H         1 RES1    0.0000
     12 C3         1.6762   -1.9140    0.3802 C.ar      1 RES1    0.0000
     13 C4         1.9046   -2.9887    1.2386 C.ar      1 RES1    0.0000
     14 H5         2.3421   -3.7652    0.9085 H         1 RES1    0.0000
     15 C5         1.5054   -2.9435    2.5628 C.ar      1 RES1    0.0000
     16 H6         1.6834   -3.6779    3.1391 H         1 RES1    0.0000
     17 C6         0.8440   -1.8230    3.0490 C.ar      1 RES1    0.0000
     18 H7         0.5465   -1.7957    3.9513 H         1 RES1    0.0000
     19 C7         0.6224   -0.7438    2.2055 C.ar      1 RES1    0.0000
     20 H8         0.1750    0.0260    2.5385 H         1 RES1    0.0000
     21 C8         1.0465   -0.7701    0.8736 C.ar      1 RES1    0.0000
     22 C9         0.8279    0.4625    0.0113 C.3       1 RES1    0.0000
     23 H9        -0.1167    0.7683    0.1306 H         1 RES1    0.0000
     24 C10        1.7657    1.5714    0.5217 C.3       1 RES1    0.0000
     25 H10        1.6529    1.6778    1.4994 H         1 RES1    0.0000
     26 H11        2.7064    1.3173    0.3463 H         1 RES1    0.0000
     27 C11        0.1003    0.5405   -2.3168 C.2       1 RES1    0.0000
     28 C12        0.2744    0.0587   -3.7375 C.3       1 RES1    0.0000
     29 H12       -0.5564    0.2053   -4.2358 H         1 RES1    0.0000
     30 H13        0.4891   -0.8974   -3.7342 H         1 RES1    0.0000
     31 H14        1.0032    0.5555   -4.1644 H         1 RES1    0.0000
@<TRIPOS>BOND
     1    1    3 2
     2    2    3 2
     3    3   24 1
     4    4   27 2
     5    5    6 1
     6    6    7 1
     7    8    6 1
     8    9    6 1
     9   10    9 1
    10   11    9 1
    11   12    9 1
    12   13   12 ar
    13   14   13 1
    14   15   13 ar
    15   16   15 1
    16   17   15 ar
    17   18   17 1
    18   19   17 ar
    19   20   19 1
    20   21   12 ar
    21   22    5 1
    22   23   22 1
    23   24   22 1
    24   25   24 1
    25   26   24 1
    26   27    5 1
    27   28   27 1
    28   29   28 1
    29   30   28 1
    30   31   28 1
    31   19   21 ar
    32   21   22 1
@<TRIPOS>SUBSTRUCTURE
     1 RES1 1

@<TRIPOS>CRYSIN
   8.9735    9.2900   13.7437  90.0000  90.0000  90.0000  19 1

