# MOL2 file generated by ConQuest
# Please check atom types

@<TRIPOS>MOLECULE
FEKGEH
    58    66     2
SMALL
NO_CHARGES
****
Generated from CSD

@<TRIPOS>ATOM
      1 O1         7.0773    9.1774   13.6639 O.3       1 RES1    0.0000
      2 N1         6.1671    8.3008   14.3333 N.2       1 RES1    0.0000
      3 C1         5.4837    8.4789   12.0831 C.3       1 RES1    0.0000
      4 C2         6.8593    9.0813   12.2324 C.3       1 RES1    0.0000
      5 C3         5.2949    7.9608   13.4872 C.2       1 RES1    0.0000
      6 C4         4.2588    6.8614   13.5477 C.3       1 RES1    0.0000
      7 C5         3.8570    6.7644   12.0431 C.3       1 RES1    0.0000
      8 C6         3.2466    5.4930   11.5025 C.3       1 RES1    0.0000
      9 C7         2.8827    5.7168   10.0398 C.3       1 RES1    0.0000
     10 C8         4.0628    6.2159    9.1801 C.3       1 RES1    0.0000
     11 C9         4.7216    7.4681    9.8037 C.3       1 RES1    0.0000
     12 C10        5.1091    7.2141   11.2644 C.3       1 RES1    0.0000
     13 C11        5.8421    8.0293    8.9294 C.3       1 RES1    0.0000
     14 C12        5.4617    8.2323    7.4550 C.3       1 RES1    0.0000
     15 C13        4.8399    6.9602    6.8480 C.3       1 RES1    0.0000
     16 C14        3.6648    6.5403    7.7750 C.3       1 RES1    0.0000
     17 C15        2.8956    5.5069    6.9563 C.3       1 RES1    0.0000
     18 C16        3.0697    5.9410    5.4712 C.3       1 RES1    0.0000
     19 C17        4.0924    7.1310    5.4956 C.3       1 RES1    0.0000
     20 C18        5.8867    5.8474    6.7300 C.3       1 RES1    0.0000
     21 C19        6.2401    6.1825   11.3669 C.3       1 RES1    0.0000
     22 C20        4.9171    7.1773    4.1998 C.3       1 RES1    0.0000
     23 C21        5.8972    8.3418    4.1588 C.3       1 RES1    0.0000
     24 C22        3.9860    7.2746    2.9576 C.3       1 RES1    0.0000
     25 C23        4.6702    7.0708    1.6461 C.3       1 RES1    0.0000
     26 C24        3.7072    6.9996    0.4645 C.3       1 RES1    0.0000
     27 C25        4.3092    6.7013   -0.8811 C.3       1 RES1    0.0000
     28 C26        3.1929    6.5014   -1.9252 C.3       1 RES1    0.0000
     29 C27        5.2440    7.8077   -1.3271 C.3       1 RES1    0.0000
     30 O2         5.8212    3.1168   -6.0879 O.3       2 RES2    0.0000
     31 N2         4.7859    2.2690   -6.6041 N.2       2 RES2    0.0000
     32 C28        5.0122    1.8031   -4.3266 C.3       2 RES2    0.0000
     33 C29        5.7585    3.0900   -4.6652 C.3       2 RES2    0.0000
     34 C30        4.3803    1.5266   -5.6634 C.2       2 RES2    0.0000
     35 C31        3.1714    0.6372   -5.5541 C.3       2 RES2    0.0000
     36 C32        3.1188    0.4235   -4.0368 C.3       2 RES2    0.0000
     37 C33        1.8045    0.0669   -3.3606 C.3       2 RES2    0.0000
     38 C34        2.0592   -0.1627   -1.8725 C.3       2 RES2    0.0000
     39 C35        2.7717    1.0116   -1.1787 C.3       2 RES2    0.0000
     40 C36        4.0787    1.3921   -1.9301 C.3       2 RES2    0.0000
     41 C37        3.7582    1.6883   -3.4240 C.3       2 RES2    0.0000
     42 C38        4.8291    2.5030   -1.1924 C.3       2 RES2    0.0000
     43 C39        5.1095    2.1727    0.2722 C.3       2 RES2    0.0000
     44 C40        3.7993    1.8184    1.0334 C.3       2 RES2    0.0000
     45 C41        3.1485    0.6687    0.2566 C.3       2 RES2    0.0000
     46 C42        2.0500    0.1684    1.1934 C.3       2 RES2    0.0000
     47 C43        2.6701    0.3252    2.6014 C.3       2 RES2    0.0000
     48 C44        3.9741    1.1234    2.4258 C.3       2 RES2    0.0000
     49 C45        2.9068    3.0482    1.1407 C.3       2 RES2    0.0000
     50 C46        2.8699    2.9259   -3.5909 C.3       2 RES2    0.0000
     51 C47        4.2886    1.9906    3.6709 C.3       2 RES2    0.0000
     52 C48        5.5903    2.7726    3.5314 C.3       2 RES2    0.0000
     53 C49        4.3307    1.0702    4.9228 C.3       2 RES2    0.0000
     54 C50        4.3359    1.8318    6.2430 C.3       2 RES2    0.0000
     55 C51        4.1345    0.9152    7.4364 C.3       2 RES2    0.0000
     56 C52        3.9763    1.6263    8.7625 C.3       2 RES2    0.0000
     57 C53        3.6202    0.6251    9.8466 C.3       2 RES2    0.0000
     58 C54        5.2245    2.3888    9.1060 C.3       2 RES2    0.0000
@<TRIPOS>BOND
     1    1    2 1
     2    2    5 2
     3    3    4 1
     4    4    1 1
     5    5    3 1
     6    6    5 1
     7    7    6 1
     8    8    7 1
     9    9    8 1
    10   10    9 1
    11   11   10 1
    12   12    3 1
    13   13   11 1
    14   14   13 1
    15   15   14 1
    16   16   10 1
    17   17   16 1
    18   18   17 1
    19   19   15 1
    20   20   15 1
    21   21   12 1
    22   22   19 1
    23   23   22 1
    24   24   22 1
    25   25   24 1
    26   26   25 1
    27   27   26 1
    28   28   27 1
    29   29   27 1
    30   30   31 1
    31   31   34 2
    32   32   33 1
    33   33   30 1
    34   34   32 1
    35   35   34 1
    36   36   35 1
    37   37   36 1
    38   38   37 1
    39   39   38 1
    40   40   39 1
    41   41   32 1
    42   42   40 1
    43   43   42 1
    44   44   43 1
    45   45   39 1
    46   46   45 1
    47   47   46 1
    48   48   44 1
    49   49   44 1
    50   50   41 1
    51   51   48 1
    52   52   51 1
    53   53   51 1
    54   54   53 1
    55   55   54 1
    56   56   55 1
    57   57   56 1
    58   58   56 1
    59    7   12 1
    60   11   12 1
    61   15   16 1
    62   18   19 1
    63   36   41 1
    64   40   41 1
    65   44   45 1
    66   47   48 1
@<TRIPOS>SUBSTRUCTURE
     1 RES1 1
     2 RES2 30

@<TRIPOS>CRYSIN
  11.6730   11.9820   11.1020 100.8600 118.4500  63.9300   1 1

