# MOL2 file generated by ConQuest
# Please check atom types

@<TRIPOS>MOLECULE
FEKHUA
    43    44     1
SMALL
NO_CHARGES
****
Generated from CSD

@<TRIPOS>ATOM
      1 O1         1.5928    6.1085   28.0689 O.3       1 RES1    0.0000
      2 O2        -0.4235    5.1415   28.2239 O.2       1 RES1    0.0000
      3 O3        -0.6007    8.1643   29.9018 O.2       1 RES1    0.0000
      4 O4        -2.4869    3.2986   31.4614 O.2       1 RES1    0.0000
      5 O5        -0.9701    2.3613   32.6865 O.2       1 RES1    0.0000
      6 N1        -1.3244    3.1137   31.7912 N.pl3     1 RES1    0.0000
      7 C1         2.8523    6.4149   26.0636 C.3       1 RES1    0.0000
      8 H1         2.8657    7.3827   26.2172 H         1 RES1    0.0000
      9 H2         2.8886    6.2370   25.1022 H         1 RES1    0.0000
     10 H3         3.6261    6.0041   26.5014 H         1 RES1    0.0000
     11 C2         1.5864    5.8343   26.6330 C.3       1 RES1    0.0000
     12 H4         0.7961    6.2517   26.2064 H         1 RES1    0.0000
     13 H5         1.5533    4.8584   26.4690 H         1 RES1    0.0000
     14 C3         0.5112    5.6994   28.7300 C.2       1 RES1    0.0000
     15 C4         0.6002    6.0573   30.2093 C.3       1 RES1    0.0000
     16 C5        -0.5474    5.3529   30.9773 C.3       1 RES1    0.0000
     17 H6        -1.4020    5.4955   30.4795 H         1 RES1    0.0000
     18 C6        -0.6924    5.9093   32.3279 C.1       1 RES1    0.0000
     19 C7        -0.7942    6.3658   33.4310 C.1       1 RES1    0.0000
     20 C8        -0.9277    6.8876   34.7669 C.ar      1 RES1    0.0000
     21 C9         0.0566    6.6045   35.7168 C.ar      1 RES1    0.0000
     22 H7         0.8221    6.0966   35.4754 H         1 RES1    0.0000
     23 C10       -0.0903    7.0682   37.0174 C.ar      1 RES1    0.0000
     24 H8         0.5780    6.8800   37.6659 H         1 RES1    0.0000
     25 C11       -1.2106    7.8067   37.3720 C.ar      1 RES1    0.0000
     26 H9        -1.3085    8.1161   38.2630 H         1 RES1    0.0000
     27 C12        0.3929    7.6049   30.2967 C.2       1 RES1    0.0000
     28 C13        1.6042    8.2293   30.9305 C.3       1 RES1    0.0000
     29 H10        1.4497    8.3961   31.8930 H         1 RES1    0.0000
     30 H11        1.8286    9.0869   30.4902 H         1 RES1    0.0000
     31 C14        2.7220    7.2071   30.7294 C.3       1 RES1    0.0000
     32 H12        3.4119    7.2930   31.4362 H         1 RES1    0.0000
     33 H13        3.1505    7.3202   29.8428 H         1 RES1    0.0000
     34 C15        2.0041    5.8505   30.8244 C.3       1 RES1    0.0000
     35 H14        1.9297    5.5639   31.7671 H         1 RES1    0.0000
     36 H15        2.5039    5.1589   30.3212 H         1 RES1    0.0000
     37 C16       -0.2562    3.8458   31.0352 C.3       1 RES1    0.0000
     38 H16       -0.2009    3.4863   30.1162 H         1 RES1    0.0000
     39 H17        0.6180    3.6965   31.4758 H         1 RES1    0.0000
     40 C17       -2.0480    7.6392   35.1283 C.ar      1 RES1    0.0000
     41 H18       -2.7150    7.8398   34.4827 H         1 RES1    0.0000
     42 C18       -2.1866    8.0948   36.4340 C.ar      1 RES1    0.0000
     43 H19       -2.9503    8.6026   36.6840 H         1 RES1    0.0000
@<TRIPOS>BOND
     1    1   11 1
     2    2   14 2
     3    3   27 2
     4    4    6 2
     5    5    6 2
     6    6   37 1
     7    7    8 1
     8    9    7 1
     9   10    7 1
    10   11    7 1
    11   12   11 1
    12   13   11 1
    13   14    1 1
    14   15   14 1
    15   16   15 1
    16   17   16 1
    17   18   16 1
    18   19   18 3
    19   20   19 1
    20   21   20 ar
    21   22   21 1
    22   23   21 ar
    23   24   23 1
    24   25   23 ar
    25   26   25 1
    26   27   15 1
    27   28   27 1
    28   29   28 1
    29   30   28 1
    30   31   28 1
    31   32   31 1
    32   33   31 1
    33   34   15 1
    34   35   34 1
    35   36   34 1
    36   37   16 1
    37   38   37 1
    38   39   37 1
    39   40   20 ar
    40   41   40 1
    41   42   25 ar
    42   43   42 1
    43   31   34 1
    44   40   42 ar
@<TRIPOS>SUBSTRUCTURE
     1 RES1 1

@<TRIPOS>CRYSIN
   6.3583    7.3489   35.9682  90.0000  90.0000  90.0000  19 1

