# MOL2 file generated by ConQuest
# Please check atom types

@<TRIPOS>MOLECULE
FEKMOZ
    38    40     1
SMALL
NO_CHARGES
****
Generated from CSD

@<TRIPOS>ATOM
      1 O1         1.5515    7.4907    0.6237 O.3       1 RES1    0.0000
      2 N1         2.1764    8.5792    1.2771 N.2       1 RES1    0.0000
      3 C1         4.2677   13.9355    1.7073 C.ar      1 RES1    0.0000
      4 H1         5.0157   13.6139    2.1576 H         1 RES1    0.0000
      5 C2         4.2804   15.2023    1.1775 C.ar      1 RES1    0.0000
      6 H2         5.0351   15.7367    1.2742 H         1 RES1    0.0000
      7 C3         3.1903   15.6838    0.5078 C.ar      1 RES1    0.0000
      8 H3         3.2035   16.5403    0.1456 H         1 RES1    0.0000
      9 C4         2.0789   14.8967    0.3727 C.ar      1 RES1    0.0000
     10 H4         1.3351   15.2224   -0.0805 H         1 RES1    0.0000
     11 C5         2.0520   13.6340    0.8996 C.ar      1 RES1    0.0000
     12 H5         1.2913   13.1079    0.8019 H         1 RES1    0.0000
     13 C6         3.1480   13.1355    1.5741 C.ar      1 RES1    0.0000
     14 C7         3.1570   11.7970    2.1011 C.1       1 RES1    0.0000
     15 C8         3.2225   10.6918    2.5427 C.1       1 RES1    0.0000
     16 C9         3.3759    9.3754    3.1109 C.3       1 RES1    0.0000
     17 C10        3.5610    9.3038    4.6093 C.3       1 RES1    0.0000
     18 H6         3.5095   10.1348    5.1065 H         1 RES1    0.0000
     19 H7         3.1931    8.5338    5.0701 H         1 RES1    0.0000
     20 C11        4.7623    9.0860    3.7595 C.3       1 RES1    0.0000
     21 H8         5.0401    8.1485    3.6991 H         1 RES1    0.0000
     22 C12        5.8816   10.0524    3.6388 C.ar      1 RES1    0.0000
     23 C13        5.9198   11.2713    4.2893 C.ar      1 RES1    0.0000
     24 H9         5.2113   11.5160    4.8402 H         1 RES1    0.0000
     25 C14        6.9864   12.1299    4.1389 C.ar      1 RES1    0.0000
     26 H10        6.9810   12.9510    4.5758 H         1 RES1    0.0000
     27 C15        8.0481   11.7907    3.3571 C.ar      1 RES1    0.0000
     28 H11        8.7689   12.3712    3.2622 H         1 RES1    0.0000
     29 C16        8.0400   10.5757    2.7104 C.ar      1 RES1    0.0000
     30 H12        8.7615   10.3309    2.1767 H         1 RES1    0.0000
     31 C17        6.9745    9.7249    2.8464 C.ar      1 RES1    0.0000
     32 H13        6.9833    8.9091    2.3990 H         1 RES1    0.0000
     33 C18        2.7034    8.2585    2.3942 C.2       1 RES1    0.0000
     34 C19        2.6604    6.8743    2.9739 C.3       1 RES1    0.0000
     35 H14        2.1862    6.2918    2.3760 H         1 RES1    0.0000
     36 H15        2.2126    6.8966    3.8218 H         1 RES1    0.0000
     37 H16        3.5567    6.5497    3.0927 H         1 RES1    0.0000
     38 H17        1.2305    7.9879   -0.1245 H         1 RES1    0.0000
@<TRIPOS>BOND
     1    1    2 1
     2    2   33 2
     3    3    4 1
     4    5    3 ar
     5    6    5 1
     6    7    5 ar
     7    8    7 1
     8    9    7 ar
     9   10    9 1
    10   11    9 ar
    11   12   11 1
    12   13    3 ar
    13   14   13 1
    14   15   14 3
    15   16   15 1
    16   17   16 1
    17   18   17 1
    18   19   17 1
    19   20   16 1
    20   21   20 1
    21   22   20 1
    22   23   22 ar
    23   24   23 1
    24   25   23 ar
    25   26   25 1
    26   27   25 ar
    27   28   27 1
    28   29   27 ar
    29   30   29 1
    30   31   22 ar
    31   32   31 1
    32   33   16 1
    33   34   33 1
    34   35   34 1
    35   36   34 1
    36   37   34 1
    37   38    1 1
    38   11   13 ar
    39   17   20 1
    40   29   31 ar
@<TRIPOS>SUBSTRUCTURE
     1 RES1 1

@<TRIPOS>CRYSIN
   8.7408    9.4519    9.7111  98.7670  90.6050 107.3270   2 1

