# MOL2 file generated by ConQuest
# Please check atom types

@<TRIPOS>MOLECULE
FEKZUS
    52    52     2
SMALL
NO_CHARGES
****
Generated from CSD

@<TRIPOS>ATOM
      1 N1        -1.5328    3.4778    8.4353 N.3       1 RES1    0.0000
      2 C1        -0.7864    2.7788    7.5260 C.ar      1 RES1    0.0000
      3 C2        -1.0090    1.5302    6.9464 C.ar      1 RES1    0.0000
      4 C3        -0.0521    1.0540    6.0782 C.ar      1 RES1    0.0000
      5 C4         1.0941    1.8062    5.7805 C.ar      1 RES1    0.0000
      6 C5         1.3039    3.0536    6.3476 C.ar      1 RES1    0.0000
      7 C6         0.3619    3.5598    7.2505 C.ar      1 RES1    0.0000
      8 C7         0.2726    4.7413    8.0615 C.2       1 RES1    0.0000
      9 C8         1.2262    5.8923    8.1919 C.3       1 RES1    0.0000
     10 N2         1.0408    6.8056    7.0183 N.3       1 RES1    0.0000
     11 C9         1.9077    8.0034    7.0865 C.3       1 RES1    0.0000
     12 C10        1.5409    8.8170    8.3104 C.3       1 RES1    0.0000
     13 C11        1.7342    7.9779    9.5729 C.3       1 RES1    0.0000
     14 C12        0.9968    6.6255    9.5452 C.3       1 RES1    0.0000
     15 C13       -0.5151    6.8737    9.7625 C.3       1 RES1    0.0000
     16 C14       -1.3796    5.6040    9.8048 C.3       1 RES1    0.0000
     17 C15       -0.8934    4.6505    8.7792 C.2       1 RES1    0.0000
     18 C16        1.5138    5.7422   10.7192 C.3       1 RES1    0.0000
     19 C17        3.0140    5.5031   10.7668 C.2       1 RES1    0.0000
     20 O1         3.5307    4.7162    9.9580 O.2       1 RES1    0.0000
     21 N3         3.7591    6.1095   11.7100 N.am      1 RES1    0.0000
     22 C18        3.2852    7.0896   12.6748 C.3       1 RES1    0.0000
     23 C19        5.1798    5.7674   11.8272 C.3       1 RES1    0.0000
     24 O2        -2.6428    2.9662    9.0755 O.3       1 RES1    0.0000
     25 H1        -1.8269    1.0145    7.1693 H         1 RES1    0.0000
     26 H2        -0.1400    0.1714    5.6514 H         1 RES1    0.0000
     27 H3         1.7775    1.4451    5.1439 H         1 RES1    0.0000
     28 H4         2.1068    3.6085    6.1243 H         1 RES1    0.0000
     29 H5         2.1602    5.5572    8.1752 H         1 RES1    0.0000
     30 H6         1.3343    6.3189    6.2854 H         1 RES1    0.0000
     31 H7         2.8852    7.7333    7.1226 H         1 RES1    0.0000
     32 H8         1.7568    8.5268    6.2342 H         1 RES1    0.0000
     33 H9         2.1243    9.6227    8.3393 H         1 RES1    0.0000
     34 H10        0.5663    9.1361    8.2354 H         1 RES1    0.0000
     35 H11        1.4264    8.4760   10.3993 H         1 RES1    0.0000
     36 H12        2.7154    7.8084    9.6871 H         1 RES1    0.0000
     37 H13       -0.6427    7.3895   10.6207 H         1 RES1    0.0000
     38 H14       -0.8575    7.4636    9.0155 H         1 RES1    0.0000
     39 H15       -1.3622    5.1721   10.7035 H         1 RES1    0.0000
     40 H16       -2.3371    5.8428    9.6630 H         1 RES1    0.0000
     41 H17        1.1907    6.1496   11.5649 H         1 RES1    0.0000
     42 H18        1.1140    4.8177   10.6388 H         1 RES1    0.0000
     43 H19        2.4676    7.5080   12.4187 H         1 RES1    0.0000
     44 H20        3.1765    6.7019   13.5676 H         1 RES1    0.0000
     45 H21        3.9628    7.8201   12.7289 H         1 RES1    0.0000
     46 H22        5.3899    4.9722   11.2833 H         1 RES1    0.0000
     47 H23        5.3828    5.5963   12.7725 H         1 RES1    0.0000
     48 H24        5.7243    6.5051   11.5332 H         1 RES1    0.0000
     49 H25       -3.4391    3.3504    8.5532 H         1 RES1    0.0000
     50 H26        5.6220    6.4004   12.4232 Du        2 SUP2    0.0000
     51 H27        5.3004    4.8558   12.1521 Du        2 SUP2    0.0000
     52 H28        5.6108    5.8185   10.9475 Du        2 SUP2    0.0000
@<TRIPOS>BOND
     1    1    2 1
     2    2    3 ar
     3    3    4 ar
     4    4    5 ar
     5    5    6 ar
     6    6    7 ar
     7    7    2 ar
     8    8    7 1
     9    9    8 1
    10   10    9 1
    11   11   10 1
    12   12   11 1
    13   13   12 1
    14   14    9 1
    15   15   14 1
    16   16   15 1
    17   17    1 1
    18   18   14 1
    19   19   18 1
    20   20   19 2
    21   21   19 1
    22   22   21 1
    23   23   21 1
    24   24    1 1
    25   25    3 1
    26   26    4 1
    27   27    5 1
    28   28    6 1
    29   29    9 1
    30   30   10 1
    31   31   11 1
    32   32   11 1
    33   33   12 1
    34   34   12 1
    35   35   13 1
    36   36   13 1
    37   37   15 1
    38   38   15 1
    39   39   16 1
    40   40   16 1
    41   41   18 1
    42   42   18 1
    43   43   22 1
    44   44   22 1
    45   45   22 1
    46   46   23 1
    47   47   23 1
    48   48   23 1
    49   49   24 1
    50    8   17 2
    51   13   14 1
    52   16   17 1
@<TRIPOS>SUBSTRUCTURE
     1 RES1 1
     2 SUP2 50

@<TRIPOS>CRYSIN
  10.5786   10.5791   15.5501  90.0000 104.4468  90.0000  14 1

