# MOL2 file generated by ConQuest
# Please check atom types

@<TRIPOS>MOLECULE
FELBEF
   114   124     2
SMALL
NO_CHARGES
****
Generated from CSD

@<TRIPOS>ATOM
      1 O1        -0.6844    2.4177   12.0373 O.3       1 RES1    0.0000
      2 C1         0.1904    1.6588   11.1644 C.3       1 RES1    0.0000
      3 C2         1.1165    2.5985   10.4041 C.3       1 RES1    0.0000
      4 N1         2.0722    1.9248    9.5098 N.3       1 RES1    0.0000
      5 O2         3.0882    1.3320   10.3441 O.3       1 RES1    0.0000
      6 C3         3.9568    2.4011   10.7440 C.3       1 RES1    0.0000
      7 C4         4.9079    1.7716   11.7428 C.3       1 RES1    0.0000
      8 O3         5.7335    2.7842   12.3095 O.3       1 RES1    0.0000
      9 N2         4.8968    3.5940   13.1808 N.3       1 RES1    0.0000
     10 C5         4.0281    4.3860   12.2851 C.3       1 RES1    0.0000
     11 C6         3.1756    3.4696   11.4508 C.2       1 RES1    0.0000
     12 C7         1.8464    3.4812   11.3801 C.2       1 RES1    0.0000
     13 C8         0.8745    4.1764   12.2952 C.3       1 RES1    0.0000
     14 N3         0.0653    3.1753   13.0122 N.3       1 RES1    0.0000
     15 C9         1.5289    0.9244    8.6504 C.ar      1 RES1    0.0000
     16 C10        0.4008    1.2475    7.8971 C.ar      1 RES1    0.0000
     17 C11       -0.1251    0.3280    7.0195 C.ar      1 RES1    0.0000
     18 C12        0.4589   -0.9109    6.8618 C.ar      1 RES1    0.0000
     19 C13        1.5757   -1.2242    7.5871 C.ar      1 RES1    0.0000
     20 C14        2.1216   -0.3194    8.4830 C.ar      1 RES1    0.0000
     21 C15        5.7629    4.3272   14.0406 C.ar      1 RES1    0.0000
     22 C16        7.0073    3.8386   14.3854 C.ar      1 RES1    0.0000
     23 C17        7.8133    4.5209   15.2709 C.ar      1 RES1    0.0000
     24 C18        7.3939    5.6886   15.8297 C.ar      1 RES1    0.0000
     25 C19        6.1622    6.1741   15.5086 C.ar      1 RES1    0.0000
     26 C20        5.3333    5.5060   14.6224 C.ar      1 RES1    0.0000
     27 C21        0.6838    2.3245   13.9598 C.ar      1 RES1    0.0000
     28 C22        1.8625    2.6672   14.5991 C.ar      1 RES1    0.0000
     29 C23        2.4162    1.8292   15.5487 C.ar      1 RES1    0.0000
     30 C24        1.8147    0.6418   15.8764 C.ar      1 RES1    0.0000
     31 C25        0.6322    0.2967   15.2696 C.ar      1 RES1    0.0000
     32 C26        0.0631    1.1187   14.3202 C.ar      1 RES1    0.0000
     33 O4        -2.1201    4.8206   22.2304 O.3       2 RES2    0.0000
     34 C27       -1.1281    4.0691   22.9744 C.3       2 RES2    0.0000
     35 C28       -0.1164    5.0333   23.5989 C.3       2 RES2    0.0000
     36 N4         0.9550    4.3958   24.3731 N.3       2 RES2    0.0000
     37 O5         1.9362    3.8950   23.4373 O.3       2 RES2    0.0000
     38 C29        2.6792    5.0432   22.9941 C.3       2 RES2    0.0000
     39 C30        3.6443    4.5221   21.9508 C.3       2 RES2    0.0000
     40 O6         4.3269    5.6261   21.3611 O.3       2 RES2    0.0000
     41 N5         3.3799    6.3513   20.5230 N.3       2 RES2    0.0000
     42 C31        2.4495    7.0280   21.4534 C.3       2 RES2    0.0000
     43 C32        1.7599    6.0246   22.3349 C.2       2 RES2    0.0000
     44 C33        0.4520    5.9338   22.5308 C.2       2 RES2    0.0000
     45 C34       -0.6358    6.5757   21.7123 C.3       2 RES2    0.0000
     46 N6        -1.5236    5.5495   21.1386 N.3       2 RES2    0.0000
     47 C35        0.5617    3.3451   25.2580 C.ar      2 RES2    0.0000
     48 C36       -0.4838    3.5744   26.1379 C.ar      2 RES2    0.0000
     49 C37       -0.8694    2.5948   27.0266 C.ar      2 RES2    0.0000
     50 C38       -0.2267    1.3866   27.0769 C.ar      2 RES2    0.0000
     51 C39        0.8336    1.1647   26.2232 C.ar      2 RES2    0.0000
     52 C40        1.2257    2.1351   25.3151 C.ar      2 RES2    0.0000
     53 C41        4.1657    7.2487   19.7148 C.ar      2 RES2    0.0000
     54 C42        5.4859    6.9545   19.4143 C.ar      2 RES2    0.0000
     55 C43        6.2189    7.8427   18.6339 C.ar      2 RES2    0.0000
     56 C44        5.6652    8.9952   18.1435 C.ar      2 RES2    0.0000
     57 C45        4.3358    9.2673   18.4130 C.ar      2 RES2    0.0000
     58 C46        3.5951    8.3920   19.1861 C.ar      2 RES2    0.0000
     59 C47       -1.0397    4.6600   20.1402 C.ar      2 RES2    0.0000
     60 C48        0.0506    4.9616   19.3371 C.ar      2 RES2    0.0000
     61 C49        0.4442    4.0758   18.3471 C.ar      2 RES2    0.0000
     62 C50       -0.2244    2.8854   18.1473 C.ar      2 RES2    0.0000
     63 C51       -1.3217    2.5967   18.9254 C.ar      2 RES2    0.0000
     64 C52       -1.7312    3.4665   19.9141 C.ar      2 RES2    0.0000
     65 H1         0.7357    1.0384   11.6965 H         1 RES1    0.0000
     66 H2        -0.4009    1.1402   10.5501 H         1 RES1    0.0000
     67 H3         0.5559    3.1919    9.8167 H         1 RES1    0.0000
     68 H4         4.4440    2.7603    9.9228 H         1 RES1    0.0000
     69 H5         4.4258    1.3075   12.4570 H         1 RES1    0.0000
     70 H6         5.5426    1.1273   11.3016 H         1 RES1    0.0000
     71 H7         3.4623    4.9720   12.8497 H         1 RES1    0.0000
     72 H8         4.5757    4.9445   11.6830 H         1 RES1    0.0000
     73 H9         1.3131    4.7287   12.9671 H         1 RES1    0.0000
     74 H10        0.2560    4.7409   11.7733 H         1 RES1    0.0000
     75 H11        0.0172    2.1106    7.9752 H         1 RES1    0.0000
     76 H12       -0.8898    0.5633    6.5038 H         1 RES1    0.0000
     77 H13        0.1195   -1.5392    6.2624 H         1 RES1    0.0000
     78 H14        1.9883   -2.0817    7.4833 H         1 RES1    0.0000
     79 H15        2.8649   -0.5260    8.9975 H         1 RES1    0.0000
     80 H16        7.2958    3.0123   14.0119 H         1 RES1    0.0000
     81 H17        8.6576    4.1500   15.4946 H         1 RES1    0.0000
     82 H18        7.9514    6.1459   16.4334 H         1 RES1    0.0000
     83 H19        5.8575    6.9808   15.8963 H         1 RES1    0.0000
     84 H20        4.4733    5.8456   14.4181 H         1 RES1    0.0000
     85 H21        2.2675    3.4745   14.3843 H         1 RES1    0.0000
     86 H22        3.2342    2.0529   15.9572 H         1 RES1    0.0000
     87 H23        2.2117    0.0729   16.5101 H         1 RES1    0.0000
     88 H24        0.1942   -0.5149   15.4923 H         1 RES1    0.0000
     89 H25       -0.7362    0.8766   13.8923 H         1 RES1    0.0000
     90 H26       -1.6408    3.5732   23.6819 H         2 RES2    0.0000
     91 H27       -0.6591    3.4009   22.3753 H         2 RES2    0.0000
     92 H28       -0.5940    5.6071   24.2190 H         2 RES2    0.0000
     93 H29        3.1870    5.4391   23.7677 H         2 RES2    0.0000
     94 H30        4.3321    3.9453   22.3821 H         2 RES2    0.0000
     95 H31        3.1761    4.0250   21.2402 H         2 RES2    0.0000
     96 H32        2.9752    7.6656   22.0210 H         2 RES2    0.0000
     97 H33        1.7964    7.5307   20.8994 H         2 RES2    0.0000
     98 H34       -1.2120    7.1500   22.2963 H         2 RES2    0.0000
     99 H35       -0.2977    7.0906   20.9648 H         2 RES2    0.0000
    100 H36       -0.9267    4.4081   26.1237 H         2 RES2    0.0000
    101 H37       -1.6006    2.7591   27.6289 H         2 RES2    0.0000
    102 H38       -0.5058    0.7270   27.6989 H         2 RES2    0.0000
    103 H39        1.2728    0.3359   26.2343 H         2 RES2    0.0000
    104 H40        1.9317    1.9726   24.7110 H         2 RES2    0.0000
    105 H41       -2.4799    3.2697   20.4706 H         2 RES2    0.0000
    106 H42        5.8728    6.1576   19.7530 H         2 RES2    0.0000
    107 H43        7.1341    7.6423   18.4554 H         2 RES2    0.0000
    108 H44        6.1706    9.6014   17.6091 H         2 RES2    0.0000
    109 H45        3.9194   10.0452   18.0853 H         2 RES2    0.0000
    110 H46        2.6667    8.5857   19.3648 H         2 RES2    0.0000
    111 H47        0.5125    5.7696   19.4596 H         2 RES2    0.0000
    112 H48        1.1880    4.2977   17.8009 H         2 RES2    0.0000
    113 H49        0.0725    2.3006   17.4782 H         2 RES2    0.0000
    114 H50       -1.7763    1.7863   18.7871 H         2 RES2    0.0000
@<TRIPOS>BOND
     1    1    2 1
     2    2    3 1
     3    3    4 1
     4    4    5 1
     5    5    6 1
     6    6    7 1
     7    7    8 1
     8    8    9 1
     9    9   10 1
    10   10   11 1
    11   11    6 1
    12   12    3 1
    13   13   12 1
    14   14    1 1
    15   15    4 1
    16   16   15 ar
    17   17   16 ar
    18   18   17 ar
    19   19   18 ar
    20   20   15 ar
    21   21    9 1
    22   22   21 ar
    23   23   22 ar
    24   24   23 ar
    25   25   24 ar
    26   26   21 ar
    27   27   14 1
    28   28   27 ar
    29   29   28 ar
    30   30   29 ar
    31   31   30 ar
    32   32   27 ar
    33   33   34 1
    34   34   35 1
    35   35   36 1
    36   36   37 1
    37   37   38 1
    38   38   39 1
    39   39   40 1
    40   40   41 1
    41   41   42 1
    42   42   43 1
    43   43   38 1
    44   44   35 1
    45   45   44 1
    46   46   33 1
    47   47   36 1
    48   48   47 ar
    49   49   48 ar
    50   50   49 ar
    51   51   50 ar
    52   52   47 ar
    53   53   41 1
    54   54   53 ar
    55   55   54 ar
    56   56   55 ar
    57   57   56 ar
    58   58   53 ar
    59   59   46 1
    60   60   59 ar
    61   61   60 ar
    62   62   61 ar
    63   63   62 ar
    64   64   59 ar
    65   65    2 1
    66   66    2 1
    67   67    3 1
    68   68    6 1
    69   69    7 1
    70   70    7 1
    71   71   10 1
    72   72   10 1
    73   73   13 1
    74   74   13 1
    75   75   16 1
    76   76   17 1
    77   77   18 1
    78   78   19 1
    79   79   20 1
    80   80   22 1
    81   81   23 1
    82   82   24 1
    83   83   25 1
    84   84   26 1
    85   85   28 1
    86   86   29 1
    87   87   30 1
    88   88   31 1
    89   89   32 1
    90   90   34 1
    91   91   34 1
    92   92   35 1
    93   93   38 1
    94   94   39 1
    95   95   39 1
    96   96   42 1
    97   97   42 1
    98   98   45 1
    99   99   45 1
   100  100   48 1
   101  101   49 1
   102  102   50 1
   103  103   51 1
   104  104   52 1
   105  105   64 1
   106  106   54 1
   107  107   55 1
   108  108   56 1
   109  109   57 1
   110  110   58 1
   111  111   60 1
   112  112   61 1
   113  113   62 1
   114  114   63 1
   115   11   12 2
   116   13   14 1
   117   19   20 ar
   118   25   26 ar
   119   31   32 ar
   120   43   44 2
   121   45   46 1
   122   51   52 ar
   123   57   58 ar
   124   63   64 ar
@<TRIPOS>SUBSTRUCTURE
     1 RES1 1
     2 RES2 33

@<TRIPOS>CRYSIN
  15.6734    6.1300   22.7367  90.0000  97.0025  90.0000   4 1

