# MOL2 file generated by ConQuest
# Please check atom types

@<TRIPOS>MOLECULE
FELBUV
    40    43     1
SMALL
NO_CHARGES
****
Generated from CSD

@<TRIPOS>ATOM
      1 N1         5.9791   12.7523    3.5482 N.3       1 RES1    0.0000
      2 O1         5.8298   11.6778    2.5730 O.3       1 RES1    0.0000
      3 C1         6.3720   10.4888    3.1408 C.3       1 RES1    0.0000
      4 C2         6.1050    9.3840    2.1384 C.3       1 RES1    0.0000
      5 O2         6.4389    8.1259    2.7259 O.3       1 RES1    0.0000
      6 N2         5.4573    7.8427    3.7621 N.3       1 RES1    0.0000
      7 C3         5.7626    8.7354    4.8988 C.3       1 RES1    0.0000
      8 C4         5.6926   10.1694    4.4371 C.2       1 RES1    0.0000
      9 C5         5.0391   11.1191    5.0881 C.2       1 RES1    0.0000
     10 C6         4.9876   12.5357    4.6091 C.3       1 RES1    0.0000
     11 C7         5.8754   13.9741    2.8233 C.ar      1 RES1    0.0000
     12 C8         5.1815   15.0714    3.3251 C.ar      1 RES1    0.0000
     13 C9         5.1810   16.2721    2.6279 C.ar      1 RES1    0.0000
     14 C10        5.8506   16.3889    1.4221 C.ar      1 RES1    0.0000
     15 C11        6.5204   15.2905    0.9105 C.ar      1 RES1    0.0000
     16 C12        6.5369   14.0886    1.5929 C.ar      1 RES1    0.0000
     17 C13        5.5736    6.4452    4.0617 C.ar      1 RES1    0.0000
     18 C14        6.0924    5.5485    3.1272 C.ar      1 RES1    0.0000
     19 C15        6.1462    4.1928    3.4274 C.ar      1 RES1    0.0000
     20 C16        5.6698    3.7125    4.6387 C.ar      1 RES1    0.0000
     21 C17        5.1291    4.5988    5.5473 C.ar      1 RES1    0.0000
     22 C18        5.0855    5.9601    5.2712 C.ar      1 RES1    0.0000
     23 H1         7.3728   10.6005    3.2117 H         1 RES1    0.0000
     24 H2         6.7358    9.4754    1.3623 H         1 RES1    0.0000
     25 H3         5.1265    9.3865    1.8678 H         1 RES1    0.0000
     26 H4         6.7358    8.4876    5.2829 H         1 RES1    0.0000
     27 H5         5.0469    8.5672    5.5665 H         1 RES1    0.0000
     28 H6         4.5630   10.9017    5.9117 H         1 RES1    0.0000
     29 H7         5.2613   13.1816    5.3260 H         1 RES1    0.0000
     30 H8         4.0746   12.7759    4.3274 H         1 RES1    0.0000
     31 H9         4.7070   14.9840    4.1610 H         1 RES1    0.0000
     32 H10        4.7100   17.0642    3.0082 H         1 RES1    0.0000
     33 H11        5.8661   17.2421    0.9740 H         1 RES1    0.0000
     34 H12        7.0237   15.3086    0.0801 H         1 RES1    0.0000
     35 H13        7.0283   13.2784    1.2575 H         1 RES1    0.0000
     36 H14        6.4327    5.9018    2.2993 H         1 RES1    0.0000
     37 H15        6.5996    3.5751    2.7801 H         1 RES1    0.0000
     38 H16        5.7405    2.7886    4.7712 H         1 RES1    0.0000
     39 H17        4.7973    4.2633    6.3986 H         1 RES1    0.0000
     40 H18        4.7330    6.5432    5.9240 H         1 RES1    0.0000
@<TRIPOS>BOND
     1    1    2 1
     2    2    3 1
     3    3    4 1
     4    4    5 1
     5    5    6 1
     6    6    7 1
     7    7    8 1
     8    8    3 1
     9    9    8 2
    10   10    1 1
    11   11    1 1
    12   12   11 ar
    13   13   12 ar
    14   14   13 ar
    15   15   14 ar
    16   16   11 ar
    17   17    6 1
    18   18   17 ar
    19   19   18 ar
    20   20   19 ar
    21   21   20 ar
    22   22   17 ar
    23   23    3 1
    24   24    4 1
    25   25    4 1
    26   26    7 1
    27   27    7 1
    28   28    9 1
    29   29   10 1
    30   30   10 1
    31   31   12 1
    32   32   13 1
    33   33   14 1
    34   34   15 1
    35   35   16 1
    36   36   18 1
    37   37   19 1
    38   38   20 1
    39   39   21 1
    40   40   22 1
    41    9   10 1
    42   15   16 ar
    43   21   22 ar
@<TRIPOS>SUBSTRUCTURE
     1 RES1 1

@<TRIPOS>CRYSIN
  15.3122   15.6051    6.1644  90.0000  90.0000  90.0000  29 1

