# MOL2 file generated by ConQuest
# Please check atom types

@<TRIPOS>MOLECULE
FELBIJ
   156   165     3
SMALL
NO_CHARGES
****
Generated from CSD

@<TRIPOS>ATOM
      1 O1         2.4737    0.7891    6.2722 O.3       1 RES1    0.0000
      2 N1         2.3695   -0.5123    6.8877 N.3       1 RES1    0.0000
      3 C1         3.7038   -1.0215    7.1322 C.3       1 RES1    0.0000
      4 C2         4.5081   -1.0078    5.8476 C.2       1 RES1    0.0000
      5 C3         4.0753   -0.2852    4.8113 C.2       1 RES1    0.0000
      6 C4         2.8501    0.5704    4.9113 C.3       1 RES1    0.0000
      7 C5         1.4873   -0.4120    7.9901 C.ar      1 RES1    0.0000
      8 C6         0.2703    0.2514    7.8403 C.ar      1 RES1    0.0000
      9 C7        -0.6491    0.2567    8.8641 C.ar      1 RES1    0.0000
     10 C8        -0.3872   -0.3792   10.0649 C.ar      1 RES1    0.0000
     11 C9         0.8260   -1.0046   10.2347 C.ar      1 RES1    0.0000
     12 C10        1.7679   -1.0205    9.2172 C.ar      1 RES1    0.0000
     13 C11        5.7565   -1.8011    5.8282 C.2       1 RES1    0.0000
     14 C12        6.2325   -2.4107    6.9119 C.2       1 RES1    0.0000
     15 O2         9.3445    0.9474    3.4830 O.3       1 RES1    0.0000
     16 N2         9.6945   -0.4056    3.1291 N.3       1 RES1    0.0000
     17 C13        8.4599   -1.1779    3.0422 C.3       1 RES1    0.0000
     18 C14        7.6734   -1.0257    4.3252 C.2       1 RES1    0.0000
     19 C15        8.0455   -0.0919    5.2039 C.2       1 RES1    0.0000
     20 C16        9.0898    0.9138    4.8864 C.3       1 RES1    0.0000
     21 C17       10.5594   -0.3930    2.0133 C.ar      1 RES1    0.0000
     22 C18       11.3026    0.7426    1.6928 C.ar      1 RES1    0.0000
     23 C19       12.2353    0.6877    0.6585 C.ar      1 RES1    0.0000
     24 C20       12.4238   -0.4585   -0.0737 C.ar      1 RES1    0.0000
     25 C21       11.6894   -1.5729    0.2425 C.ar      1 RES1    0.0000
     26 C22       10.7520   -1.5571    1.2716 C.ar      1 RES1    0.0000
     27 C23        6.5224   -1.9131    4.5327 C.2       1 RES1    0.0000
     28 C24        6.1456   -2.8036    3.6166 C.2       1 RES1    0.0000
     29 O3        11.6015    3.4797    6.3834 O.3       2 RES2    0.0000
     30 N3        11.5283    2.1476    6.9536 N.3       2 RES2    0.0000
     31 C25       12.8844    1.6670    7.1252 C.3       2 RES2    0.0000
     32 C26       13.5997    1.6944    5.7911 C.2       2 RES2    0.0000
     33 C27       13.0888    2.4276    4.8009 C.2       2 RES2    0.0000
     34 C28       11.9093    3.3075    4.9978 C.3       2 RES2    0.0000
     35 C29       10.6896    2.2142    8.0996 C.ar      2 RES2    0.0000
     36 C30        9.4310    2.8079    7.9682 C.ar      2 RES2    0.0000
     37 C31        8.5475    2.7952    9.0288 C.ar      2 RES2    0.0000
     38 C32        8.8869    2.1994   10.2347 C.ar      2 RES2    0.0000
     39 C33       10.1346    1.6289   10.3631 C.ar      2 RES2    0.0000
     40 C34       11.0440    1.6353    9.3104 C.ar      2 RES2    0.0000
     41 C35       14.8559    0.9254    5.6750 C.2       2 RES2    0.0000
     42 C36       15.3878    0.2863    6.7146 C.2       2 RES2    0.0000
     43 O4        11.8968    8.8232    6.3734 O.3       3 RES3    0.0000
     44 N4        11.5190    7.4855    6.7439 N.3       3 RES3    0.0000
     45 C37       12.7397    6.7070    6.9263 C.3       3 RES3    0.0000
     46 C38       13.6338    6.8358    5.7148 C.2       3 RES3    0.0000
     47 C39       13.3599    7.7549    4.7961 C.2       3 RES3    0.0000
     48 C40       12.2565    8.7489    4.9958 C.3       3 RES3    0.0000
     49 C41       10.6250    7.5457    7.8461 C.ar      3 RES3    0.0000
     50 C42        9.9435    8.7225    8.1693 C.ar      3 RES3    0.0000
     51 C43        9.0189    8.7162    9.2020 C.ar      3 RES3    0.0000
     52 C44        8.7556    7.5711    9.9283 C.ar      3 RES3    0.0000
     53 C45        9.4155    6.4112    9.5952 C.ar      3 RES3    0.0000
     54 C46       10.3572    6.3890    8.5663 C.ar      3 RES3    0.0000
     55 C47       14.7842    5.9115    5.6273 C.2       3 RES3    0.0000
     56 C48       15.0637    5.0421    6.5943 C.2       3 RES3    0.0000
     57 H1         4.1485   -0.5282    7.8513 H         1 RES1    0.0000
     58 H2         3.6115   -1.9554    7.4447 H         1 RES1    0.0000
     59 H3         4.5339   -0.3074    3.9937 H         1 RES1    0.0000
     60 H4         3.0315    1.4567    4.5445 H         1 RES1    0.0000
     61 H5         2.1109    0.1659    4.4163 H         1 RES1    0.0000
     62 H6         0.1037    0.7141    7.0261 H         1 RES1    0.0000
     63 H7        -1.4555    0.7078    8.7245 H         1 RES1    0.0000
     64 H8        -1.0372   -0.3792   10.7474 H         1 RES1    0.0000
     65 H9         1.0396   -1.4377   11.0679 H         1 RES1    0.0000
     66 H10        2.5843   -1.4356    9.3634 H         1 RES1    0.0000
     67 H11        7.0407   -2.9019    6.8899 H         1 RES1    0.0000
     68 H12        5.7804   -2.3758    7.7331 H         1 RES1    0.0000
     69 H13        8.6981   -2.1297    2.9522 H         1 RES1    0.0000
     70 H14        7.9332   -0.9180    2.2432 H         1 RES1    0.0000
     71 H15        7.6269   -0.0370    6.0327 H         1 RES1    0.0000
     72 H16        9.9019    0.7532    5.3877 H         1 RES1    0.0000
     73 H17        8.7448    1.8096    5.1194 H         1 RES1    0.0000
     74 H18       11.1841    1.5233    2.1811 H         1 RES1    0.0000
     75 H19       12.7401    1.4346    0.4486 H         1 RES1    0.0000
     76 H20       13.0391   -0.4838   -0.7831 H         1 RES1    0.0000
     77 H21       11.8247   -2.3790   -0.2464 H         1 RES1    0.0000
     78 H22       10.2432   -2.3283    1.4741 H         1 RES1    0.0000
     79 H23        6.5969   -2.8934    2.7900 H         1 RES1    0.0000
     80 H24        5.4171   -3.3720    3.7734 H         1 RES1    0.0000
     81 H25       13.3728    2.1561    7.8212 H         2 RES2    0.0000
     82 H26       12.8217    0.7458    7.4247 H         2 RES2    0.0000
     83 H27       13.4786    2.4022    3.9597 H         2 RES2    0.0000
     84 H28       12.1189    4.2107    4.6687 H         2 RES2    0.0000
     85 H29       11.1270    2.9621    4.5085 H         2 RES2    0.0000
     86 H30        9.1861    3.2198    7.1523 H         2 RES2    0.0000
     87 H31        7.7001    3.1977    8.9188 H         2 RES2    0.0000
     88 H32        8.2754    2.1804   10.9457 H         2 RES2    0.0000
     89 H33       10.3769    1.2243   11.1961 H         2 RES2    0.0000
     90 H34       11.8886    1.2539    9.4356 H         2 RES2    0.0000
     91 H35       16.2039   -0.1891    6.6576 H         2 RES2    0.0000
     92 H36       14.9691    0.2747    7.5569 H         2 RES2    0.0000
     93 H37       13.2159    6.9795    7.7451 H         3 RES3    0.0000
     94 H38       12.4891    5.7594    7.0181 H         3 RES3    0.0000
     95 H39       13.8414    7.8003    4.0058 H         3 RES3    0.0000
     96 H40       12.5514    9.6405    4.7328 H         3 RES3    0.0000
     97 H41       11.4806    8.5113    4.4464 H         3 RES3    0.0000
     98 H42       10.1172    9.4863    7.6690 H         3 RES3    0.0000
     99 H43        8.5561    9.4979    9.4035 H         3 RES3    0.0000
    100 H44        8.1234    7.5975   10.6353 H         3 RES3    0.0000
    101 H45        9.2364    5.6136   10.0725 H         3 RES3    0.0000
    102 H46       10.8135    5.5925    8.3640 H         3 RES3    0.0000
    103 H47       15.8037    4.4611    6.5454 H         3 RES3    0.0000
    104 H48       14.5379    4.9745    7.3746 H         3 RES3    0.0000
    105 O3B       18.8235    3.4797    3.6310 O.3       2 RES2    0.0000
    106 N3B       18.8966    2.1476    3.0608 N.3       2 RES2    0.0000
    107 C25B      17.5405    1.6670    2.8891 C.3       2 RES2    0.0000
    108 C26B      16.8252    1.6944    4.2233 C.2       2 RES2    0.0000
    109 C27B      17.3361    2.4276    5.2135 C.2       2 RES2    0.0000
    110 C28B      18.5157    3.3075    5.0166 C.3       2 RES2    0.0000
    111 C29B      19.7353    2.2142    1.9148 C.ar      2 RES2    0.0000
    112 C30B      20.9940    2.8079    2.0461 C.ar      2 RES2    0.0000
    113 C31B      21.8775    2.7952    0.9856 C.ar      2 RES2    0.0000
    114 C32B      21.5381    2.1994   -0.2203 C.ar      2 RES2    0.0000
    115 C33B      20.2904    1.6289   -0.3487 C.ar      2 RES2    0.0000
    116 C34B      19.3809    1.6353    0.7040 C.ar      2 RES2    0.0000
    117 C35B      15.5691    0.9254    4.3394 C.2       2 RES2    0.0000
    118 C36B      15.0372    0.2863    3.2997 C.2       2 RES2    0.0000
    119 O4B       18.5281    8.8232    3.6410 O.3       3 RES3    0.0000
    120 N4B       18.9060    7.4855    3.2705 N.3       3 RES3    0.0000
    121 C37B      17.6853    6.7070    3.0880 C.3       3 RES3    0.0000
    122 C38B      16.7911    6.8358    4.2996 C.2       3 RES3    0.0000
    123 C39B      17.0651    7.7549    5.2183 C.2       3 RES3    0.0000
    124 C40B      18.1685    8.7489    5.0186 C.3       3 RES3    0.0000
    125 C41B      19.8000    7.5457    2.1683 C.ar      3 RES3    0.0000
    126 C42B      20.4815    8.7225    1.8450 C.ar      3 RES3    0.0000
    127 C43B      21.4061    8.7162    0.8124 C.ar      3 RES3    0.0000
    128 C44B      21.6694    7.5711    0.0861 C.ar      3 RES3    0.0000
    129 C45B      21.0095    6.4112    0.4192 C.ar      3 RES3    0.0000
    130 C46B      20.0677    6.3890    1.4481 C.ar      3 RES3    0.0000
    131 C47B      15.6408    5.9115    4.3871 C.2       3 RES3    0.0000
    132 C48B      15.3613    5.0421    3.4201 C.2       3 RES3    0.0000
    133 H25B      17.0521    2.1561    2.1931 H         2 RES2    0.0000
    134 H26B      17.6032    0.7458    2.5897 H         2 RES2    0.0000
    135 H27B      16.9463    2.4022    6.0547 H         2 RES2    0.0000
    136 H28B      18.3060    4.2107    5.3457 H         2 RES2    0.0000
    137 H29B      19.2980    2.9621    5.5059 H         2 RES2    0.0000
    138 H30B      21.2388    3.2198    2.8621 H         2 RES2    0.0000
    139 H31B      22.7249    3.1977    1.0956 H         2 RES2    0.0000
    140 H32B      22.1495    2.1804   -0.9313 H         2 RES2    0.0000
    141 H33B      20.0480    1.2243   -1.1817 H         2 RES2    0.0000
    142 H34B      18.5363    1.2539    0.5788 H         2 RES2    0.0000
    143 H35B      14.2211   -0.1891    3.3568 H         2 RES2    0.0000
    144 H36B      15.4559    0.2747    2.4575 H         2 RES2    0.0000
    145 H37B      17.2091    6.9795    2.2693 H         3 RES3    0.0000
    146 H38B      17.9359    5.7594    2.9963 H         3 RES3    0.0000
    147 H39B      16.5835    7.8003    6.0086 H         3 RES3    0.0000
    148 H40B      17.8736    9.6405    5.2816 H         3 RES3    0.0000
    149 H41B      18.9443    8.5113    5.5680 H         3 RES3    0.0000
    150 H42B      20.3078    9.4863    2.3454 H         3 RES3    0.0000
    151 H43B      21.8689    9.4979    0.6109 H         3 RES3    0.0000
    152 H44B      22.3016    7.5975   -0.6209 H         3 RES3    0.0000
    153 H45B      21.1885    5.6136   -0.0581 H         3 RES3    0.0000
    154 H46B      19.6115    5.5925    1.6504 H         3 RES3    0.0000
    155 H47B      14.6213    4.4611    3.4690 H         3 RES3    0.0000
    156 H48B      15.8870    4.9745    2.6398 H         3 RES3    0.0000
@<TRIPOS>BOND
     1    1    2 1
     2    2    3 1
     3    3    4 1
     4    4    5 2
     5    5    6 1
     6    6    1 1
     7    7    2 1
     8    8    7 ar
     9    9    8 ar
    10   10    9 ar
    11   11   10 ar
    12   12    7 ar
    13   13    4 1
    14   14   13 2
    15   15   16 1
    16   16   17 1
    17   17   18 1
    18   18   19 2
    19   19   20 1
    20   20   15 1
    21   21   16 1
    22   22   21 ar
    23   23   22 ar
    24   24   23 ar
    25   25   24 ar
    26   26   21 ar
    27   27   13 1
    28   28   27 2
    29   29   30 1
    30   30   31 1
    31   31   32 1
    32   32   33 2
    33   33   34 1
    34   34   29 1
    35   35   30 1
    36   36   35 ar
    37   37   36 ar
    38   38   37 ar
    39   39   38 ar
    40   40   35 ar
    41   41   32 1
    42   42   41 2
    43   43   44 1
    44   44   45 1
    45   45   46 1
    46   46   47 2
    47   47   48 1
    48   48   43 1
    49   49   44 1
    50   50   49 ar
    51   51   50 ar
    52   52   51 ar
    53   53   52 ar
    54   54   49 ar
    55   55   46 1
    56   56   55 2
    57   57    3 1
    58   58    3 1
    59   59    5 1
    60   60    6 1
    61   61    6 1
    62   62    8 1
    63   63    9 1
    64   64   10 1
    65   65   11 1
    66   66   12 1
    67   67   14 1
    68   68   14 1
    69   69   17 1
    70   70   17 1
    71   71   19 1
    72   72   20 1
    73   73   20 1
    74   74   22 1
    75   75   23 1
    76   76   24 1
    77   77   25 1
    78   78   26 1
    79   79   28 1
    80   80   28 1
    81   81   31 1
    82   82   31 1
    83   83   33 1
    84   84   34 1
    85   85   34 1
    86   86   36 1
    87   87   37 1
    88   88   38 1
    89   89   39 1
    90   90   40 1
    91   91   42 1
    92   92   42 1
    93   93   45 1
    94   94   45 1
    95   95   47 1
    96   96   48 1
    97   97   48 1
    98   98   50 1
    99   99   51 1
   100  100   52 1
   101  101   53 1
   102  102   54 1
   103  103   56 1
   104  104   56 1
   105  105  106 1
   106  106  107 1
   107  107  108 1
   108  108  109 2
   109  109  110 1
   110  110  105 1
   111  111  106 1
   112  112  111 ar
   113  113  112 ar
   114  114  113 ar
   115  115  114 ar
   116  116  111 ar
   117  117   41 1
   118  118  117 2
   119  119  120 1
   120  120  121 1
   121  121  122 1
   122  122  123 2
   123  123  124 1
   124  124  119 1
   125  125  120 1
   126  126  125 ar
   127  127  126 ar
   128  128  127 ar
   129  129  128 ar
   130  130  125 ar
   131  131   55 1
   132  132  131 2
   133  133  107 1
   134  134  107 1
   135  135  109 1
   136  136  110 1
   137  137  110 1
   138  138  112 1
   139  139  113 1
   140  140  114 1
   141  141  115 1
   142  142  116 1
   143  143  118 1
   144  144  118 1
   145  145  121 1
   146  146  121 1
   147  147  123 1
   148  148  124 1
   149  149  124 1
   150  150  126 1
   151  151  127 1
   152  152  128 1
   153  153  129 1
   154  154  130 1
   155  155  132 1
   156  156  132 1
   157   11   12 ar
   158   18   27 1
   159   25   26 ar
   160   39   40 ar
   161   53   54 ar
   162  108  117 1
   163  115  116 ar
   164  122  131 1
   165  129  130 ar
@<TRIPOS>SUBSTRUCTURE
     1 RES1 1
     2 RES2 29
     3 RES3 43

@<TRIPOS>CRYSIN
  37.1436   10.5638   24.1187  90.0000 123.8576  90.0000  15 1

