# MOL2 file generated by ConQuest
# Please check atom types

@<TRIPOS>MOLECULE
FELCEG
    56    59     1
SMALL
NO_CHARGES
****
Generated from CSD

@<TRIPOS>ATOM
      1 O1         9.5385   10.3336    6.8992 O.3       1 RES1    0.0000
      2 N1         8.9577   10.7443    5.6824 N.am      1 RES1    0.0000
      3 C1         7.5972   10.2374    5.5212 C.3       1 RES1    0.0000
      4 C2         6.7302   10.7635    6.6580 C.3       1 RES1    0.0000
      5 C3         7.3571   10.4753    8.0180 C.3       1 RES1    0.0000
      6 C4         7.2324    8.9985    8.3626 C.3       1 RES1    0.0000
      7 N2         7.9836    8.6710    9.5625 N.am      1 RES1    0.0000
      8 O2         9.3569    8.9810    9.4437 O.3       1 RES1    0.0000
      9 C5         9.5383   10.4024    9.2716 C.3       1 RES1    0.0000
     10 C6         8.8329   10.9085    8.0329 C.3       1 RES1    0.0000
     11 C7         9.3605   11.9765    5.2455 C.2       1 RES1    0.0000
     12 O3        10.2479   12.6394    5.7472 O.2       1 RES1    0.0000
     13 O4         8.7035   12.3197    4.1343 O.3       1 RES1    0.0000
     14 C8         9.0786   13.6119    3.5766 C.3       1 RES1    0.0000
     15 C9         8.1679   13.8889    2.4275 C.ar      1 RES1    0.0000
     16 C10        8.5561   13.6391    1.1198 C.ar      1 RES1    0.0000
     17 C11        7.6958   13.9162    0.0673 C.ar      1 RES1    0.0000
     18 C12        6.4489   14.4527    0.3187 C.ar      1 RES1    0.0000
     19 C13        6.0574   14.7193    1.6149 C.ar      1 RES1    0.0000
     20 C14        6.9099   14.4268    2.6662 C.ar      1 RES1    0.0000
     21 O5         6.6083   12.1851    6.5275 O.3       1 RES1    0.0000
     22 O6         6.6813   11.1873    9.0566 O.3       1 RES1    0.0000
     23 C15        7.5007    8.7682   10.8447 C.2       1 RES1    0.0000
     24 O7         8.1680    8.9584   11.8279 O.2       1 RES1    0.0000
     25 O8         6.1719    8.5251   10.8233 O.3       1 RES1    0.0000
     26 C16        5.4809    8.5629   12.0975 C.3       1 RES1    0.0000
     27 C17        5.3498    7.1941   12.7041 C.ar      1 RES1    0.0000
     28 C18        4.1762    6.8770   13.3846 C.ar      1 RES1    0.0000
     29 C19        4.0358    5.6503   14.0127 C.ar      1 RES1    0.0000
     30 C20        5.0589    4.7291   13.9636 C.ar      1 RES1    0.0000
     31 C21        6.2188    5.0270   13.2797 C.ar      1 RES1    0.0000
     32 C22        6.3679    6.2586   12.6536 C.ar      1 RES1    0.0000
     33 H1         7.2332   10.5429    4.6627 H         1 RES1    0.0000
     34 H2         7.6179    9.2604    5.5363 H         1 RES1    0.0000
     35 H3         5.8293   10.3622    6.6153 H         1 RES1    0.0000
     36 H4         6.2988    8.7586    8.5271 H         1 RES1    0.0000
     37 H5         7.5942    8.4558    7.6284 H         1 RES1    0.0000
     38 H6        10.5103   10.5849    9.1968 H         1 RES1    0.0000
     39 H7         9.1594   10.8665   10.0547 H         1 RES1    0.0000
     40 H8         8.8897   11.8786    7.9923 H         1 RES1    0.0000
     41 H9         8.9785   14.3033    4.2643 H         1 RES1    0.0000
     42 H10       10.0132   13.5827    3.2873 H         1 RES1    0.0000
     43 H11        9.4242   13.2918    0.9457 H         1 RES1    0.0000
     44 H12        7.9578   13.7423   -0.8281 H         1 RES1    0.0000
     45 H13        5.8623   14.6507   -0.3921 H         1 RES1    0.0000
     46 H14        5.2234   15.1106    1.7801 H         1 RES1    0.0000
     47 H15        6.6471   14.5961    3.5570 H         1 RES1    0.0000
     48 H16        5.7805   12.3720    6.2640 H         1 RES1    0.0000
     49 H17        6.6905   12.0660    8.8455 H         1 RES1    0.0000
     50 H18        5.9847    9.1460   12.7115 H         1 RES1    0.0000
     51 H19        4.5706    8.9258   11.9210 H         1 RES1    0.0000
     52 H20        3.4547    7.4952   13.4015 H         1 RES1    0.0000
     53 H21        3.2170    5.4417   14.4696 H         1 RES1    0.0000
     54 H22        4.9582    3.8985   14.4053 H         1 RES1    0.0000
     55 H23        6.9357    4.3888   13.2463 H         1 RES1    0.0000
     56 H24        7.1863    6.4529   12.1986 H         1 RES1    0.0000
@<TRIPOS>BOND
     1    1    2 1
     2    2    3 1
     3    3    4 1
     4    4    5 1
     5    5    6 1
     6    6    7 1
     7    7    8 1
     8    8    9 1
     9    9   10 1
    10   10    1 1
    11   11    2 1
    12   12   11 2
    13   13   11 1
    14   14   13 1
    15   15   14 1
    16   16   15 ar
    17   17   16 ar
    18   18   17 ar
    19   19   18 ar
    20   20   15 ar
    21   21    4 1
    22   22    5 1
    23   23    7 1
    24   24   23 2
    25   25   23 1
    26   26   25 1
    27   27   26 1
    28   28   27 ar
    29   29   28 ar
    30   30   29 ar
    31   31   30 ar
    32   32   27 ar
    33   33    3 1
    34   34    3 1
    35   35    4 1
    36   36    6 1
    37   37    6 1
    38   38    9 1
    39   39    9 1
    40   40   10 1
    41   41   14 1
    42   42   14 1
    43   43   16 1
    44   44   17 1
    45   45   18 1
    46   46   19 1
    47   47   20 1
    48   48   21 1
    49   49   22 1
    50   50   26 1
    51   51   26 1
    52   52   28 1
    53   53   29 1
    54   54   30 1
    55   55   31 1
    56   56   32 1
    57    5   10 1
    58   19   20 ar
    59   31   32 ar
@<TRIPOS>SUBSTRUCTURE
     1 RES1 1

@<TRIPOS>CRYSIN
   6.1903   11.0001   16.5975  71.3193  81.7060  75.6980   2 1

