# MOL2 file generated by ConQuest
# Please check atom types

@<TRIPOS>MOLECULE
FELDUW
    20    20     1
SMALL
NO_CHARGES
****
Generated from CSD

@<TRIPOS>ATOM
      1 C1         3.2057    1.8799    0.5694 C.ar      1 RES1    0.0000
      2 O1         1.4364    3.4956   -2.8955 O.2       1 RES1    0.0000
      3 N1         0.9132    3.6749   -1.7963 N.pl3     1 RES1    0.0000
      4 O2        -0.1756    4.2303   -1.6518 O.2       1 RES1    0.0000
      5 C2         2.4488    2.1384   -0.5581 C.ar      1 RES1    0.0000
      6 N2         2.4172    1.1066   -1.5777 N.pl3     1 RES1    0.0000
      7 C3         3.1747    2.7240    1.6759 C.ar      1 RES1    0.0000
      8 O3         1.3621    0.9251   -2.1758 O.2       1 RES1    0.0000
      9 C4         2.3301    3.8688    1.6406 C.ar      1 RES1    0.0000
     10 O4         3.4221    0.4162   -1.7435 O.2       1 RES1    0.0000
     11 C5         1.6318    3.2697   -0.6031 C.ar      1 RES1    0.0000
     12 C6         1.5792    4.1133    0.4933 C.ar      1 RES1    0.0000
     13 N3         3.9272    2.4430    2.7732 N.3       1 RES1    0.0000
     14 N4         2.2224    4.6809    2.7411 N.3       1 RES1    0.0000
     15 H1         4.4314    1.7591    2.7107 H         1 RES1    0.0000
     16 H2         3.8773    2.9224    3.4807 H         1 RES1    0.0000
     17 H3         2.8524    4.7152    3.2318 H         1 RES1    0.0000
     18 H4         1.7141    5.4233    2.6844 H         1 RES1    0.0000
     19 H5         1.0519    4.8557    0.4794 H         1 RES1    0.0000
     20 H6         3.7241    1.0903    0.5721 H         1 RES1    0.0000
@<TRIPOS>BOND
     1    1    5 ar
     2    2    3 2
     3    3    4 2
     4    5    6 1
     5    6    8 2
     6    7    1 ar
     7    9    7 ar
     8   10    6 2
     9   11    3 1
    10   12    9 ar
    11   13    7 1
    12   14    9 1
    13   15   13 1
    14   16   13 1
    15   17   14 1
    16   18   14 1
    17   19   12 1
    18   20    1 1
    19    5   11 ar
    20   11   12 ar
@<TRIPOS>SUBSTRUCTURE
     1 RES1 1

@<TRIPOS>CRYSIN
   8.7780    5.6200   15.6350  90.0000  98.5040  90.0000 231 1

