# MOL2 file generated by ConQuest
# Please check atom types

@<TRIPOS>MOLECULE
FELPIW
    72    76     2
SMALL
NO_CHARGES
****
Generated from CSD

@<TRIPOS>ATOM
      1 O1         2.4686    9.5715   13.7446 O.3       1 RES1    0.0000
      2 N1         3.0556    9.2298   12.4837 N.2       1 RES1    0.0000
      3 C1         4.1408    8.5784   12.8411 C.2       1 RES1    0.0000
      4 C2         5.2940    7.9364   12.1320 C.3       1 RES1    0.0000
      5 N2         5.9781    7.3328   13.2832 N.am      1 RES1    0.0000
      6 C3         5.4820    7.6528   14.4899 C.2       1 RES1    0.0000
      7 O2         5.9416    7.3062   15.5946 O.2       1 RES1    0.0000
      8 C4         4.2933    8.4662   14.2243 C.2       1 RES1    0.0000
      9 C5         3.2206    9.0944   14.7729 C.2       1 RES1    0.0000
     10 C6         2.7415    9.3229   16.1094 C.2       1 RES1    0.0000
     11 C7         3.4678    9.0018   17.1760 C.2       1 RES1    0.0000
     12 C8         3.0957    9.1277   18.5708 C.ar      1 RES1    0.0000
     13 C9         3.9646    8.6490   19.5469 C.ar      1 RES1    0.0000
     14 C10        3.6506    8.7261   20.8849 C.ar      1 RES1    0.0000
     15 C11        2.4515    9.2901   21.2730 C.ar      1 RES1    0.0000
     16 C12        1.5714    9.7579   20.3115 C.ar      1 RES1    0.0000
     17 C13        1.8865    9.6864   18.9779 C.ar      1 RES1    0.0000
     18 C14        4.9561    6.9502   11.0304 C.3       1 RES1    0.0000
     19 C15        4.1677    7.6428    9.9128 C.3       1 RES1    0.0000
     20 C16        6.2327    6.3121   10.4614 C.3       1 RES1    0.0000
     21 O3        11.6682    3.2257   15.1348 O.3       2 RES2    0.0000
     22 N3        11.1962    3.7247   16.3997 N.2       2 RES2    0.0000
     23 C17       10.1473    4.4268   16.0540 C.2       2 RES2    0.0000
     24 C18        9.1767    5.3157   16.7893 C.3       2 RES2    0.0000
     25 N4         8.3338    5.7036   15.6367 N.am      2 RES2    0.0000
     26 C19        8.7022    5.2552   14.4300 C.2       2 RES2    0.0000
     27 O4         8.1532    5.4917   13.3524 O.2       2 RES2    0.0000
     28 C20        9.8739    4.4106   14.6868 C.2       2 RES2    0.0000
     29 C21       10.8632    3.6574   14.1236 C.2       2 RES2    0.0000
     30 C22       11.2095    3.2771   12.8017 C.2       2 RES2    0.0000
     31 C23       10.3862    3.4446   11.7702 C.2       2 RES2    0.0000
     32 C24       10.6276    3.0924   10.3695 C.ar      2 RES2    0.0000
     33 C25        9.6578    3.3811    9.4284 C.ar      2 RES2    0.0000
     34 C26        9.8491    3.0699    8.0934 C.ar      2 RES2    0.0000
     35 C27       11.0141    2.4559    7.6877 C.ar      2 RES2    0.0000
     36 C28       11.9944    2.1590    8.6084 C.ar      2 RES2    0.0000
     37 C29       11.8084    2.4783    9.9478 C.ar      2 RES2    0.0000
     38 C30        8.4132    4.6698   17.9303 C.3       2 RES2    0.0000
     39 C31        9.3873    4.2825   19.0392 C.3       2 RES2    0.0000
     40 H1         5.8766    8.6549   11.7527 H         1 RES1    0.0000
     41 H2         6.6161    6.7963   13.1752 H         1 RES1    0.0000
     42 H3         1.8840    9.7126   16.2320 H         1 RES1    0.0000
     43 H4         4.3326    8.6491   17.0038 H         1 RES1    0.0000
     44 H5         4.7915    8.2613   19.2843 H         1 RES1    0.0000
     45 H6         4.2550    8.3920   21.5371 H         1 RES1    0.0000
     46 H7         2.2317    9.3573   22.1951 H         1 RES1    0.0000
     47 H8         0.7399   10.1330   20.5785 H         1 RES1    0.0000
     48 H9         1.2775   10.0195   18.3301 H         1 RES1    0.0000
     49 H10        4.3860    6.2257   11.4185 H         1 RES1    0.0000
     50 H11        3.3678    8.0644   10.2907 H         1 RES1    0.0000
     51 H12        3.9023    6.9803    9.2416 H         1 RES1    0.0000
     52 H13        4.7300    8.3266    9.4926 H         1 RES1    0.0000
     53 H14        6.8402    7.0169   10.1535 H         1 RES1    0.0000
     54 H15        5.9993    5.7296    9.7085 H         1 RES1    0.0000
     55 H16        6.6727    5.7830   11.1588 H         1 RES1    0.0000
     56 H17        9.6609    6.1218   17.1307 H         2 RES2    0.0000
     57 H18        7.7058    6.2082   15.7578 H         2 RES2    0.0000
     58 H19       12.0623    2.8881   12.6471 H         2 RES2    0.0000
     59 H20        9.5441    3.8391   11.9657 H         2 RES2    0.0000
     60 H21        8.8491    3.7977    9.7012 H         2 RES2    0.0000
     61 H22        9.1767    3.2814    7.4572 H         2 RES2    0.0000
     62 H23       11.1408    2.2365    6.7729 H         2 RES2    0.0000
     63 H24       12.7981    1.7371    8.3283 H         2 RES2    0.0000
     64 H25       12.4883    2.2772   10.5810 H         2 RES2    0.0000
     65 H26        7.9648    3.8426   17.5918 H         2 RES2    0.0000
     66 H27       10.0727    3.6828   18.6773 H         2 RES2    0.0000
     67 H28        8.9005    3.8270   19.7570 H         2 RES2    0.0000
     68 H29        9.8153    5.0892   19.3952 H         2 RES2    0.0000
     69 H30        7.7725    6.4375   18.8159 H         2 RES2    0.0000
     70 H31        6.8543    5.1851   19.2040 H         2 RES2    0.0000
     71 H32        6.7177    5.8603   17.7596 H         2 RES2    0.0000
     72 C32        7.3428    5.6243   18.4774 C.3       2 RES2    0.0000
@<TRIPOS>BOND
     1    1    2 1
     2    2    3 2
     3    3    4 1
     4    4    5 1
     5    5    6 1
     6    6    7 2
     7    8    3 1
     8    9    1 1
     9   10    9 1
    10   11   10 2
    11   12   11 1
    12   13   12 ar
    13   14   13 ar
    14   15   14 ar
    15   16   15 ar
    16   17   12 ar
    17   18    4 1
    18   19   18 1
    19   20   18 1
    20   21   22 1
    21   22   23 2
    22   23   24 1
    23   24   25 1
    24   25   26 1
    25   26   27 2
    26   28   23 1
    27   29   21 1
    28   30   29 1
    29   31   30 2
    30   32   31 1
    31   33   32 ar
    32   34   33 ar
    33   35   34 ar
    34   36   35 ar
    35   37   32 ar
    36   38   24 1
    37   39   38 1
    38   40    4 1
    39   41    5 1
    40   42   10 1
    41   43   11 1
    42   44   13 1
    43   45   14 1
    44   46   15 1
    45   47   16 1
    46   48   17 1
    47   49   18 1
    48   50   19 1
    49   51   19 1
    50   52   19 1
    51   53   20 1
    52   54   20 1
    53   55   20 1
    54   56   24 1
    55   57   25 1
    56   58   30 1
    57   59   31 1
    58   60   33 1
    59   61   34 1
    60   62   35 1
    61   63   36 1
    62   64   37 1
    63   65   38 1
    64   66   39 1
    65   67   39 1
    66   68   39 1
    67   69   72 1
    68   70   72 1
    69   71   72 1
    70   72   38 1
    71    6    8 1
    72    8    9 2
    73   16   17 ar
    74   26   28 1
    75   28   29 2
    76   36   37 ar
@<TRIPOS>SUBSTRUCTURE
     1 RES1 1
     2 RES2 21

@<TRIPOS>CRYSIN
   5.7754    8.3008   14.7790  80.9610  88.0020  86.6410   1 1

