# MOL2 file generated by ConQuest
# Please check atom types

@<TRIPOS>MOLECULE
FELROD
    53    55     1
SMALL
NO_CHARGES
****
Generated from CSD

@<TRIPOS>ATOM
      1 O1         4.8166    0.6977   13.2586 O.3       1 RES1    0.0000
      2 O2         7.7217    0.7782   12.0985 O.3       1 RES1    0.0000
      3 O3         6.6649    1.7659   12.3270 O.3       1 RES1    0.0000
      4 O4         5.8211   -0.0358   11.3114 O.3       1 RES1    0.0000
      5 O5         2.2199    5.4690    8.7361 O.2       1 RES1    0.0000
      6 O6         0.6221    4.1401    9.2024 O.2       1 RES1    0.0000
      7 N1         1.7997    4.4634    9.2446 N.pl3     1 RES1    0.0000
      8 C1         5.4320    1.0772   12.0850 C.3       1 RES1    0.0000
      9 C2         5.3588   -0.4319   14.0426 C.3       1 RES1    0.0000
     10 C3         6.6415   -0.9992   13.3709 C.3       1 RES1    0.0000
     11 C4         6.9889   -0.4677   11.9967 C.3       1 RES1    0.0000
     12 C5         4.4925    1.9819   11.3231 C.ar      1 RES1    0.0000
     13 C6         4.9115    3.1932   10.8241 C.ar      1 RES1    0.0000
     14 C7         4.0270    4.0072   10.1447 C.ar      1 RES1    0.0000
     15 C8         2.7498    3.5842    9.9490 C.ar      1 RES1    0.0000
     16 C9         2.3053    2.3805   10.4115 C.ar      1 RES1    0.0000
     17 C10        3.1846    1.5909   11.1043 C.ar      1 RES1    0.0000
     18 C11        4.2042   -1.5116   13.9965 C.3       1 RES1    0.0000
     19 C12        2.8098   -0.9468   14.3113 C.3       1 RES1    0.0000
     20 C13        4.4475   -2.6898   14.9542 C.3       1 RES1    0.0000
     21 C14        4.0791   -2.1058   12.5840 C.3       1 RES1    0.0000
     22 C15        5.7506    0.1789   15.4570 C.3       1 RES1    0.0000
     23 C16        6.5328   -0.8152   16.3494 C.3       1 RES1    0.0000
     24 C17        4.5451    0.6645   16.2650 C.3       1 RES1    0.0000
     25 C18        6.6899    1.3762   15.2651 C.3       1 RES1    0.0000
     26 C19        7.8151   -1.3851   11.1465 C.3       1 RES1    0.0000
     27 H1         6.5638   -2.0189   13.2807 H         1 RES1    0.0000
     28 H2         7.3748   -0.7922   13.9140 H         1 RES1    0.0000
     29 H3         5.7817    3.4117   10.9393 H         1 RES1    0.0000
     30 H4         4.3131    4.7918    9.8262 H         1 RES1    0.0000
     31 H5         1.3950    2.1211   10.3060 H         1 RES1    0.0000
     32 H6         2.8552    0.7795   11.4383 H         1 RES1    0.0000
     33 H7         5.3244   -3.0923   14.7776 H         1 RES1    0.0000
     34 H8         3.8080   -3.3351   14.7584 H         1 RES1    0.0000
     35 H9         3.4055   -2.7217   12.6281 H         1 RES1    0.0000
     36 H10        4.8277   -2.6450   12.3595 H         1 RES1    0.0000
     37 H11        2.7579   -0.6772   15.2382 H         1 RES1    0.0000
     38 H12        2.1407   -1.6100   14.1827 H         1 RES1    0.0000
     39 H13        6.6911   -0.3578   17.1766 H         1 RES1    0.0000
     40 H14        7.3588   -1.1756   15.8524 H         1 RES1    0.0000
     41 H15        4.9163    1.2522   16.9655 H         1 RES1    0.0000
     42 H16        3.9174   -0.2172   16.6200 H         1 RES1    0.0000
     43 H17        6.1216    2.1339   14.8544 H         1 RES1    0.0000
     44 H18        7.5413    1.2522   14.8160 H         1 RES1    0.0000
     45 H19        8.1381   -0.9583   10.4019 H         1 RES1    0.0000
     46 H20        7.3717   -2.2234   11.0160 H         1 RES1    0.0000
     47 H21        4.2982   -2.4278   15.9291 H         1 RES1    0.0000
     48 H22        3.8855   -1.4056   11.9372 H         1 RES1    0.0000
     49 H23        2.6344   -0.1150   13.8756 H         1 RES1    0.0000
     50 H24        5.9064   -1.5461   16.6392 H         1 RES1    0.0000
     51 H25        4.0050    1.2522   15.6604 H         1 RES1    0.0000
     52 H26        6.9743    1.6484   16.1019 H         1 RES1    0.0000
     53 H27        8.6122   -1.6228   11.5918 H         1 RES1    0.0000
@<TRIPOS>BOND
     1    1    8 1
     2    2    3 1
     3    3    8 1
     4    4    8 1
     5    5    7 2
     6    6    7 2
     7    7   15 1
     8    8   12 1
     9    9    1 1
    10   10    9 1
    11   11    2 1
    12   12   13 ar
    13   13   14 ar
    14   14   15 ar
    15   15   16 ar
    16   16   17 ar
    17   17   12 ar
    18   18    9 1
    19   19   18 1
    20   20   18 1
    21   21   18 1
    22   22    9 1
    23   23   22 1
    24   24   22 1
    25   25   22 1
    26   26   11 1
    27   27   10 1
    28   28   10 1
    29   29   13 1
    30   30   14 1
    31   31   16 1
    32   32   17 1
    33   33   20 1
    34   34   20 1
    35   35   21 1
    36   36   21 1
    37   37   19 1
    38   38   19 1
    39   39   23 1
    40   40   23 1
    41   41   24 1
    42   42   24 1
    43   43   25 1
    44   44   25 1
    45   45   26 1
    46   46   26 1
    47   47   20 1
    48   48   21 1
    49   49   19 1
    50   50   23 1
    51   51   24 1
    52   52   25 1
    53   53   26 1
    54    4   11 1
    55   10   11 1
@<TRIPOS>SUBSTRUCTURE
     1 RES1 1

@<TRIPOS>CRYSIN
   7.6240   12.7780   19.2100  90.0000  92.5000  90.0000  14 1

