# MOL2 file generated by ConQuest
# Please check atom types

@<TRIPOS>MOLECULE
FELTUO
    36    37     1
SMALL
NO_CHARGES
****
Generated from CSD

@<TRIPOS>ATOM
      1 O1         1.7805    6.6909    0.4750 O.2       1 RES1    0.0000
      2 O2         0.2964    4.9720    0.5531 O.3       1 RES1    0.0000
      3 O3         5.2423    6.7518    3.9580 O.2       1 RES1    0.0000
      4 O4         5.7371    4.8930    4.9614 O.2       1 RES1    0.0000
      5 O5         2.1887    1.6031    5.3735 O.2       1 RES1    0.0000
      6 O6         0.4014    1.8209    4.1611 O.2       1 RES1    0.0000
      7 N1         5.0195    5.5843    4.2481 N.pl3     1 RES1    0.0000
      8 N2         1.5217    2.1694    4.5122 N.pl3     1 RES1    0.0000
      9 C1         1.3936    5.6718    0.9582 C.2       1 RES1    0.0000
     10 C2         2.0247    4.9789    2.1208 C.ar      1 RES1    0.0000
     11 C3         3.1993    5.5378    2.6068 C.ar      1 RES1    0.0000
     12 C4         3.7965    4.9661    3.7085 C.ar      1 RES1    0.0000
     13 C5         3.2902    3.8563    4.3399 C.ar      1 RES1    0.0000
     14 C6         2.1172    3.3326    3.8388 C.ar      1 RES1    0.0000
     15 C7         1.4687    3.8606    2.7341 C.ar      1 RES1    0.0000
     16 H1         3.6739    3.4912    5.0904 H         1 RES1    0.0000
     17 H2         3.5652    6.2884    2.2372 H         1 RES1    0.0000
     18 H3         0.6872    3.5125    2.4130 H         1 RES1    0.0000
     19 O1D       -1.7805    3.9855   -0.4750 O.2       1 RES1    0.0000
     20 O2D       -0.2964    5.7044   -0.5531 O.3       1 RES1    0.0000
     21 O3D       -5.2423    3.9246   -3.9580 O.2       1 RES1    0.0000
     22 O4D       -5.7371    5.7834   -4.9614 O.2       1 RES1    0.0000
     23 O5D       -2.1887    9.0733   -5.3735 O.2       1 RES1    0.0000
     24 O6D       -0.4014    8.8555   -4.1611 O.2       1 RES1    0.0000
     25 N1D       -5.0195    5.0921   -4.2481 N.pl3     1 RES1    0.0000
     26 N2D       -1.5217    8.5070   -4.5122 N.pl3     1 RES1    0.0000
     27 C1D       -1.3936    5.0046   -0.9582 C.2       1 RES1    0.0000
     28 C2D       -2.0247    5.6975   -2.1208 C.ar      1 RES1    0.0000
     29 C3D       -3.1993    5.1386   -2.6068 C.ar      1 RES1    0.0000
     30 C4D       -3.7965    5.7103   -3.7085 C.ar      1 RES1    0.0000
     31 C5D       -3.2902    6.8201   -4.3399 C.ar      1 RES1    0.0000
     32 C6D       -2.1172    7.3438   -3.8388 C.ar      1 RES1    0.0000
     33 C7D       -1.4687    6.8158   -2.7341 C.ar      1 RES1    0.0000
     34 H1D       -3.6739    7.1852   -5.0904 H         1 RES1    0.0000
     35 H2D       -3.5652    4.3880   -2.2372 H         1 RES1    0.0000
     36 H3D       -0.6872    7.1639   -2.4130 H         1 RES1    0.0000
@<TRIPOS>BOND
     1    1    9 2
     2    2    9 1
     3    3    7 2
     4    4    7 2
     5    5    8 2
     6    6    8 2
     7    7   12 1
     8    8   14 1
     9    9   10 1
    10   10   11 ar
    11   11   12 ar
    12   12   13 ar
    13   13   14 ar
    14   14   15 ar
    15   15   10 ar
    16   16   13 1
    17   17   11 1
    18   18   15 1
    19   19   27 2
    20   20    2 1
    21   21   25 2
    22   22   25 2
    23   23   26 2
    24   24   26 2
    25   25   30 1
    26   26   32 1
    27   27   20 1
    28   28   27 1
    29   29   28 ar
    30   30   29 ar
    31   31   30 ar
    32   32   31 ar
    33   33   28 ar
    34   34   31 1
    35   35   29 1
    36   36   33 1
    37   32   33 ar
@<TRIPOS>SUBSTRUCTURE
     1 RES1 1

@<TRIPOS>CRYSIN
  24.7537    5.3382   12.2617  90.0000  98.5410  90.0000  15 1

