# MOL2 file generated by ConQuest
# Please check atom types

@<TRIPOS>MOLECULE
FELYUQ
    50    50     2
SMALL
NO_CHARGES
****
Generated from CSD

@<TRIPOS>ATOM
      1 C1         6.1446    3.6383    3.8820 C.ar      1 RES1    0.0000
      2 C2         5.2316    2.7114    4.4014 C.ar      1 RES1    0.0000
      3 C3         3.8916    2.8105    4.0862 C.ar      1 RES1    0.0000
      4 C4         3.4193    3.8078    3.2251 C.ar      1 RES1    0.0000
      5 C5         4.3397    4.7178    2.7094 C.ar      1 RES1    0.0000
      6 C6         5.6792    4.6474    3.0228 C.ar      1 RES1    0.0000
      7 C7         1.9756    3.9493    2.8656 C.2       1 RES1    0.0000
      8 O1         1.6215    4.8169    2.0901 O.2       1 RES1    0.0000
      9 C8         0.9765    3.0215    3.4933 C.3       1 RES1    0.0000
     10 N1         7.5401    3.5798    4.1520 N.am      1 RES1    0.0000
     11 O2         8.3209    4.5771    3.5516 O.3       1 RES1    0.0000
     12 C9         8.1919    2.7808    5.0367 C.2       1 RES1    0.0000
     13 O3         7.5771    1.9590    5.7218 O.2       1 RES1    0.0000
     14 C10        9.6862    2.9223    5.1101 C.3       1 RES1    0.0000
     15 C11        5.3824    2.1928    8.5883 C.ar      2 RES2    0.0000
     16 C12        4.4881    3.1333    9.1266 C.ar      2 RES2    0.0000
     17 C13        3.1381    3.0545    8.8066 C.ar      2 RES2    0.0000
     18 C14        2.6462    2.0640    7.9540 C.ar      2 RES2    0.0000
     19 C15        3.5532    1.1379    7.4327 C.ar      2 RES2    0.0000
     20 C16        4.8977    1.1913    7.7413 C.ar      2 RES2    0.0000
     21 C17        1.2039    1.9479    7.5992 C.2       2 RES2    0.0000
     22 O4         0.8168    1.0413    6.8802 O.2       2 RES2    0.0000
     23 C18        0.2398    2.9528    8.1733 C.3       2 RES2    0.0000
     24 N2         6.7722    2.2352    8.8640 N.am      2 RES2    0.0000
     25 O5         7.5388    1.2311    8.2495 O.3       2 RES2    0.0000
     26 C19        7.4520    3.0232    9.7430 C.2       2 RES2    0.0000
     27 O6         6.8525    3.8611   10.4281 O.2       2 RES2    0.0000
     28 C20        8.9432    2.8588    9.8051 C.3       2 RES2    0.0000
     29 H1         5.5137    2.0505    4.9219 H         1 RES1    0.0000
     30 H2         3.3023    2.1691    4.4890 H         1 RES1    0.0000
     31 H3         4.0435    5.4566    2.2962 H         1 RES1    0.0000
     32 H4         6.2893    5.2533    2.6633 H         1 RES1    0.0000
     33 H5         0.9720    3.1350    4.4890 H         1 RES1    0.0000
     34 H6         0.1396    3.2875    3.1244 H         1 RES1    0.0000
     35 H7         1.1738    2.0759    3.2750 H         1 RES1    0.0000
     36 H8         8.3890    4.2534    2.6350 H         1 RES1    0.0000
     37 H9        10.0642    2.8554    4.1690 H         1 RES1    0.0000
     38 H10        9.8875    3.7790    5.5147 H         1 RES1    0.0000
     39 H11        9.5471    2.2453    5.7218 H         1 RES1    0.0000
     40 H12        4.7690    3.8298    9.6837 H         2 RES2    0.0000
     41 H13        2.5294    3.7535    9.1379 H         2 RES2    0.0000
     42 H14        3.2125    0.4745    6.8699 H         2 RES2    0.0000
     43 H15        5.5714    0.5423    7.4063 H         2 RES2    0.0000
     44 H16       -0.6145    2.8469    7.8016 H         2 RES2    0.0000
     45 H17        0.2258    2.9062    9.2602 H         2 RES2    0.0000
     46 H18        0.5672    3.9230    7.9145 H         2 RES2    0.0000
     47 H19        7.6129    1.5251    7.3028 H         2 RES2    0.0000
     48 H20        9.2669    3.4316   10.5213 H         2 RES2    0.0000
     49 H21        9.1772    1.9149    9.9284 H         2 RES2    0.0000
     50 H22        9.3211    3.1011    8.9214 H         2 RES2    0.0000
@<TRIPOS>BOND
     1    1    2 ar
     2    2    3 ar
     3    3    4 ar
     4    4    5 ar
     5    5    6 ar
     6    6    1 ar
     7    7    4 1
     8    8    7 2
     9    9    7 1
    10   10    1 1
    11   11   10 1
    12   12   10 1
    13   13   12 2
    14   14   12 1
    15   15   16 ar
    16   16   17 ar
    17   17   18 ar
    18   18   19 ar
    19   19   20 ar
    20   20   15 ar
    21   21   18 1
    22   22   21 2
    23   23   21 1
    24   24   15 1
    25   25   24 1
    26   26   24 1
    27   27   26 2
    28   28   26 1
    29   29    2 1
    30   30    3 1
    31   31    5 1
    32   32    6 1
    33   33    9 1
    34   34    9 1
    35   35    9 1
    36   36   11 1
    37   37   14 1
    38   38   14 1
    39   39   14 1
    40   40   16 1
    41   41   17 1
    42   42   19 1
    43   43   20 1
    44   44   23 1
    45   45   23 1
    46   46   23 1
    47   47   25 1
    48   48   28 1
    49   49   28 1
    50   50   28 1
@<TRIPOS>SUBSTRUCTURE
     1 RES1 1
     2 RES2 15

@<TRIPOS>CRYSIN
  23.5390    8.4730    9.5400  90.0000  99.4400  90.0000 231 1

