# MOL2 file generated by ConQuest
# Please check atom types

@<TRIPOS>MOLECULE
FEMGUZ
    36    40     1
SMALL
NO_CHARGES
****
Generated from CSD

@<TRIPOS>ATOM
      1 C1         0.9746    5.0661    2.7724 C.ar      1 RES1    0.0000
      2 C2         1.1337    3.6775    2.6769 C.ar      1 RES1    0.0000
      3 C3         2.3478    3.1595    2.9450 C.ar      1 RES1    0.0000
      4 C4         4.7597    3.4667    3.3946 C.ar      1 RES1    0.0000
      5 C5         5.8393    4.3146    3.5376 C.ar      1 RES1    0.0000
      6 C6         5.6424    5.6973    3.4880 C.ar      1 RES1    0.0000
      7 C7         4.2051    7.7087    3.2532 C.2       1 RES1    0.0000
      8 C8         2.7006    9.5891    4.0427 C.ar      1 RES1    0.0000
      9 C9         1.4110   10.0095    4.5035 C.ar      1 RES1    0.0000
     10 C10        0.3445    9.1092    4.4279 C.ar      1 RES1    0.0000
     11 C11        0.5250    7.8385    3.9635 C.ar      1 RES1    0.0000
     12 C12        1.7687    7.3729    3.5109 C.ar      1 RES1    0.0000
     13 C13        1.9442    5.9497    3.1398 C.ar      1 RES1    0.0000
     14 C14        3.2716    5.3936    3.2709 C.ar      1 RES1    0.0000
     15 C15        3.4717    3.9919    3.2154 C.ar      1 RES1    0.0000
     16 C16        4.3725    6.2463    3.3672 C.ar      1 RES1    0.0000
     17 C17        2.8729    8.2458    3.6028 C.ar      1 RES1    0.0000
     18 C18        3.7933   10.5061    4.2161 C.ar      1 RES1    0.0000
     19 C19        3.5620   11.7482    4.7516 C.ar      1 RES1    0.0000
     20 C20        2.2658   12.1698    5.1256 C.ar      1 RES1    0.0000
     21 C21        1.2404   11.3124    4.9901 C.ar      1 RES1    0.0000
     22 N1        -0.3790    5.5258    2.3554 N.pl3     1 RES1    0.0000
     23 O1         5.1403    8.4113    2.8917 O.2       1 RES1    0.0000
     24 O2        -1.3536    4.9017    2.7406 O.2       1 RES1    0.0000
     25 O3        -0.4446    6.4678    1.5621 O.2       1 RES1    0.0000
     26 H1         0.3117    3.0844    2.4221 H         1 RES1    0.0000
     27 H2         2.4446    2.1674    2.5110 H         1 RES1    0.0000
     28 H3         4.8565    2.4175    3.4146 H         1 RES1    0.0000
     29 H4         6.8089    3.9181    3.6813 H         1 RES1    0.0000
     30 H5         6.4972    6.3475    3.5405 H         1 RES1    0.0000
     31 H6        -0.6891    9.4557    4.7849 H         1 RES1    0.0000
     32 H7        -0.3117    7.2169    3.9553 H         1 RES1    0.0000
     33 H8         4.7252   10.1941    4.0294 H         1 RES1    0.0000
     34 H9         4.3150   12.4211    4.7775 H         1 RES1    0.0000
     35 H10        2.0181   13.0880    5.5849 H         1 RES1    0.0000
     36 H11        0.3117   11.5755    5.2664 H         1 RES1    0.0000
@<TRIPOS>BOND
     1    1    2 ar
     2    2    3 ar
     3    3   15 ar
     4    4    5 ar
     5    5    6 ar
     6    6   16 ar
     7    7   16 1
     8    8    9 ar
     9    9   10 ar
    10   10   11 ar
    11   11   12 ar
    12   12   13 1
    13   13    1 ar
    14   14   13 ar
    15   15    4 ar
    16   16   14 ar
    17   17    7 1
    18   18    8 ar
    19   19   18 ar
    20   20   19 ar
    21   21    9 ar
    22   22    1 1
    23   23    7 2
    24   24   22 2
    25   25   22 2
    26   26    2 1
    27   27    3 1
    28   28    4 1
    29   29    5 1
    30   30    6 1
    31   31   10 1
    32   32   11 1
    33   33   18 1
    34   34   19 1
    35   35   20 1
    36   36   21 1
    37    8   17 ar
    38   12   17 ar
    39   14   15 ar
    40   20   21 ar
@<TRIPOS>SUBSTRUCTURE
     1 RES1 1

@<TRIPOS>CRYSIN
  16.4070   11.9090    7.4070  90.0000  90.0000  90.0000  19 1

