# MOL2 file generated by ConQuest
# Please check atom types

@<TRIPOS>MOLECULE
FEMMOA
    30    31     1
SMALL
NO_CHARGES
****
Generated from CSD

@<TRIPOS>ATOM
      1 C1         4.0669    0.1420    6.0333 C.2       1 RES1    0.0000
      2 O1         3.2607    0.3988    4.9268 O.3       1 RES1    0.0000
      3 C2         1.6039    0.3057    5.1659 C.3       1 RES1    0.0000
      4 H1         1.2420    1.2119    5.2567 H         1 RES1    0.0000
      5 C3         1.4734   -0.4182    6.4974 C.3       1 RES1    0.0000
      6 H2         1.2699   -1.3577    6.3701 H         1 RES1    0.0000
      7 H3         0.7868   -0.0155    7.0506 H         1 RES1    0.0000
      8 C4         2.9904   -0.2126    7.1656 C.3       1 RES1    0.0000
      9 H4         3.2607   -1.0210    7.6501 H         1 RES1    0.0000
     10 O2         5.4293    0.2002    6.0597 O.2       1 RES1    0.0000
     11 C5         0.8785   -0.4166    4.0086 C.3       1 RES1    0.0000
     12 H5         0.9934    0.0830    3.1966 H         1 RES1    0.0000
     13 H6        -0.0575   -0.4865    4.2128 H         1 RES1    0.0000
     14 H7         1.2482   -1.2957    3.8980 H         1 RES1    0.0000
     15 O3         3.0370    0.9388    8.0466 O.3       1 RES1    0.0000
     16 C6         2.4886    0.7084    9.2829 C.2       1 RES1    0.0000
     17 O4         1.9830   -0.3538    9.6178 O.2       1 RES1    0.0000
     18 C7         2.5608    1.9039   10.1622 C.ar      1 RES1    0.0000
     19 C8         2.8311    3.1802    9.6699 C.ar      1 RES1    0.0000
     20 H8         2.9911    3.3036    8.7611 H         1 RES1    0.0000
     21 C9         2.8622    4.2563   10.5247 C.ar      1 RES1    0.0000
     22 H9         3.0315    5.1136   10.2078 H         1 RES1    0.0000
     23 C10        2.6354    4.0298   11.8696 C.ar      1 RES1    0.0000
     24 C11        2.3915    2.7744   12.3871 C.ar      1 RES1    0.0000
     25 H10        2.2540    2.6550   13.2980 H         1 RES1    0.0000
     26 C12        2.3558    1.6999   11.5228 C.ar      1 RES1    0.0000
     27 H11        2.1958    0.8433   11.8489 H         1 RES1    0.0000
     28 N1         2.6432    5.1796   12.7887 N.pl3     1 RES1    0.0000
     29 O5         3.1791    6.2316   12.3908 O.2       1 RES1    0.0000
     30 O6         2.1236    5.0035   13.9113 O.2       1 RES1    0.0000
@<TRIPOS>BOND
     1    1    2 1
     2    2    3 1
     3    3    4 1
     4    5    3 1
     5    6    5 1
     6    7    5 1
     7    8    1 1
     8    9    8 1
     9   10    1 2
    10   11    3 1
    11   12   11 1
    12   13   11 1
    13   14   11 1
    14   15    8 1
    15   16   15 1
    16   17   16 2
    17   18   16 1
    18   19   18 ar
    19   20   19 1
    20   21   19 ar
    21   22   21 1
    22   23   21 ar
    23   24   23 ar
    24   25   24 1
    25   26   18 ar
    26   27   26 1
    27   28   23 1
    28   29   28 2
    29   30   28 2
    30    5    8 1
    31   24   26 ar
@<TRIPOS>SUBSTRUCTURE
     1 RES1 1

@<TRIPOS>CRYSIN
   7.7672    7.7585   23.1470  90.0000  90.0000  90.0000  19 1

