# MOL2 file generated by ConQuest
# Please check atom types

@<TRIPOS>MOLECULE
FEMNES
    32    34     1
SMALL
NO_CHARGES
****
Generated from CSD

@<TRIPOS>ATOM
      1 O1        -1.0285    4.7822    4.5627 O.3       1 RES1    0.0000
      2 C1         0.3408    3.9755    2.0917 C.ar      1 RES1    0.0000
      3 N1        -0.3570    6.0291    4.4006 N.2       1 RES1    0.0000
      4 C2        -0.8627    8.3703    1.9306 C.ar      1 RES1    0.0000
      5 H1        -1.2825    7.5101    2.0044 H         1 RES1    0.0000
      6 C3        -1.7511    4.3249    3.3963 C.3       1 RES1    0.0000
      7 H2        -2.5079    3.8117    3.6890 H         1 RES1    0.0000
      8 H3        -2.0551    5.0839    2.8916 H         1 RES1    0.0000
      9 N2         0.7337    5.3060    2.3530 N.pl3     1 RES1    0.0000
     10 H4         1.5690    5.3489    1.9348 H         1 RES1    0.0000
     11 C4         0.3531    8.5727    2.5193 C.ar      1 RES1    0.0000
     12 C5         1.1006    7.5077    3.3081 C.3       1 RES1    0.0000
     13 H5         1.9602    7.3632    2.9061 H         1 RES1    0.0000
     14 H6         1.2161    7.8065    4.2132 H         1 RES1    0.0000
     15 C6         1.1740    3.1828    1.2961 C.ar      1 RES1    0.0000
     16 H7         1.9819    3.5732    0.8839 H         1 RES1    0.0000
     17 C7        -0.8949   10.6207    1.1256 C.ar      1 RES1    0.0000
     18 H8        -1.3245   11.3290    0.6396 H         1 RES1    0.0000
     19 C8        -0.3388    1.3493    1.4861 C.ar      1 RES1    0.0000
     20 H9        -0.5748    0.4409    1.2876 H         1 RES1    0.0000
     21 C9        -1.1787    2.1299    2.2546 C.ar      1 RES1    0.0000
     22 H10       -1.9970    1.7613    2.5948 H         1 RES1    0.0000
     23 C10       -0.8548    3.4647    2.5583 C.ar      1 RES1    0.0000
     24 C11        0.9358    9.8256    2.4243 C.ar      1 RES1    0.0000
     25 H11        1.7748    9.9822    2.8628 H         1 RES1    0.0000
     26 C12        0.4253    6.1633    3.3785 C.2       1 RES1    0.0000
     27 C13       -1.5027    9.3822    1.2257 C.ar      1 RES1    0.0000
     28 H12       -2.3596    9.2256    0.8236 H         1 RES1    0.0000
     29 C14        0.8212    1.8817    1.0077 C.ar      1 RES1    0.0000
     30 H13        1.4454    1.5252    0.2468 H         1 RES1    0.0000
     31 C15        0.3119   10.8399    1.7016 C.ar      1 RES1    0.0000
     32 H14        0.7447   11.6929    1.6133 H         1 RES1    0.0000
@<TRIPOS>BOND
     1    1    3 1
     2    2    9 1
     3    3   26 2
     4    4    5 1
     5    6    1 1
     6    7    6 1
     7    8    6 1
     8    9   10 1
     9   11    4 ar
    10   12   11 1
    11   13   12 1
    12   14   12 1
    13   15    2 ar
    14   16   15 1
    15   17   18 1
    16   19   20 1
    17   21   19 ar
    18   22   21 1
    19   23    2 ar
    20   24   11 ar
    21   25   24 1
    22   26    9 1
    23   27    4 ar
    24   28   27 1
    25   29   15 ar
    26   30   29 1
    27   31   17 ar
    28   32   31 1
    29    6   23 1
    30   12   26 1
    31   17   27 ar
    32   19   29 ar
    33   21   23 ar
    34   24   31 ar
@<TRIPOS>SUBSTRUCTURE
     1 RES1 1

@<TRIPOS>CRYSIN
   5.9170   24.0941    8.4880  90.0000  92.0890  90.0000 231 1

