# MOL2 file generated by ConQuest
# Please check atom types

@<TRIPOS>MOLECULE
FEMVEY
    16    15     1
SMALL
USER_CHARGES
****
Generated from CSD

@<TRIPOS>ATOM
      1 N1         9.8402    0.5529    5.5867 N.pl3     1 RES1    1.0000
      2 O1         9.3871    0.7111    4.4316 O.2       1 RES1   -1.0000
      3 C1        10.5563    1.6666    6.3031 C.3       1 RES1    0.0000
      4 C2        10.9770    2.6950    5.2733 C.3       1 RES1    0.0000
      5 C3         9.6995    2.2265    7.4137 C.3       1 RES1    0.0000
      6 N2        11.8482    1.0399    6.8456 N.pl3     1 RES1    0.0000
      7 O2        12.2032    1.3660    7.9568 O.2       1 RES1    0.0000
      8 O3        12.4687    0.3331    6.0912 O.2       1 RES1    0.0000
      9 N1B        9.6060   -0.5529    6.2847 N.pl3     1 RES1    1.0000
     10 O1B       10.0591   -0.7111    7.4398 O.2       1 RES1   -1.0000
     11 C1B        8.8900   -1.6666    5.5683 C.3       1 RES1    0.0000
     12 C2B        8.4692   -2.6950    6.5981 C.3       1 RES1    0.0000
     13 C3B        9.7467   -2.2265    4.4577 C.3       1 RES1    0.0000
     14 N2B        7.5980   -1.0399    5.0257 N.pl3     1 RES1    0.0000
     15 O2B        7.2430   -1.3660    3.9146 O.2       1 RES1    0.0000
     16 O3B        6.9775   -0.3331    5.7802 O.2       1 RES1    0.0000
@<TRIPOS>BOND
     1    1    2 1
     2    3    1 1
     3    4    3 1
     4    5    3 1
     5    6    3 1
     6    7    6 2
     7    8    6 2
     8    9    1 2
     9   10    9 1
    10   11    9 1
    11   12   11 1
    12   13   11 1
    13   14   11 1
    14   15   14 2
    15   16   14 2
@<TRIPOS>SUBSTRUCTURE
     1 RES1 1

@<TRIPOS>CRYSIN
  10.0560    8.7900    5.9450  90.0000  93.2100  90.0000 231 1

