# MOL2 file generated by ConQuest
# Please check atom types

@<TRIPOS>MOLECULE
FENCOQ
    18    18     1
SMALL
USER_CHARGES
****
Generated from CSD

@<TRIPOS>ATOM
      1 O1         1.6215    6.9376    4.2574 O.3       1 RES1    0.0000
      2 O2         1.6215    7.6652    2.0940 O.2       1 RES1   -1.0000
      3 O3         1.6215    1.2205    3.9095 O.3       1 RES1    0.0000
      4 N1         1.6215    6.6684    2.8528 N.pl3     1 RES1    1.0000
      5 N2         1.6215    5.7162    4.9096 N.2       1 RES1    0.0000
      6 N3         1.6215    2.5416    3.4100 N.2       1 RES1    0.0000
      7 C1         1.6215    5.3601    2.6756 C.2       1 RES1    0.0000
      8 C2         1.6215    4.7959    3.9762 C.2       1 RES1    0.0000
      9 C3         1.6215    4.7865    1.3121 C.3       1 RES1    0.0000
     10 C4         1.6215    3.3768    4.3832 C.2       1 RES1    0.0000
     11 C5         1.6215    3.0585    5.8469 C.3       1 RES1    0.0000
     12 H1         1.6215    0.7319    3.0608 H         1 RES1    0.0000
     13 H2         1.6215    5.4573    0.6060 H         1 RES1    0.0000
     14 H3         2.3979    4.2136    1.2261 H         1 RES1    0.0000
     15 H4         1.6215    3.8111    6.4760 H         1 RES1    0.0000
     16 H5         2.3084    2.4418    6.0895 H         1 RES1    0.0000
     17 H3A        0.8451    4.2136    1.2261 H         1 RES1    0.0000
     18 H5A        0.9346    2.4418    6.0895 H         1 RES1    0.0000
@<TRIPOS>BOND
     1    1    4 1
     2    2    4 1
     3    3    6 1
     4    4    7 2
     5    5    1 1
     6    6   10 2
     7    7    8 1
     8    8    5 2
     9    9    7 1
    10   10    8 1
    11   11   10 1
    12   12    3 1
    13   13    9 1
    14   14    9 1
    15   15   11 1
    16   16   11 1
    17   17    9 1
    18   18   11 1
@<TRIPOS>SUBSTRUCTURE
     1 RES1 1

@<TRIPOS>CRYSIN
   6.4860    8.6010   12.8390  90.0000  90.0000  90.0000  62 3

