# MOL2 file generated by ConQuest
# Please check atom types

@<TRIPOS>MOLECULE
FENCIK
    40    38     2
SMALL
NO_CHARGES
****
Generated from CSD

@<TRIPOS>ATOM
      1 O1        11.7251    7.6188   -1.0346 O.3       1 RES1    0.0000
      2 O2        10.6193    3.6253   -1.1484 O.3       1 RES1    0.0000
      3 O3         6.9892    6.9669    1.8869 O.3       1 RES1    0.0000
      4 N1        10.5849    6.7918   -1.0316 N.2       1 RES1    0.0000
      5 N2         9.4259    3.8966   -0.4651 N.2       1 RES1    0.0000
      6 N3         8.1585    6.6607    1.1713 N.2       1 RES1    0.0000
      7 C1        11.5706    5.9744    1.1082 C.3       1 RES1    0.0000
      8 C2        10.5643    6.0151    0.0050 C.2       1 RES1    0.0000
      9 C3         9.4179    5.0905    0.0596 C.2       1 RES1    0.0000
     10 C4         8.2086    5.4245    0.8100 C.2       1 RES1    0.0000
     11 C5         7.1771    4.3855    1.1131 C.3       1 RES1    0.0000
     12 H1        12.5115    6.4479    1.0933 H         1 RES1    0.0000
     13 H2        11.7633    4.9052    0.9939 H         1 RES1    0.0000
     14 H3        11.0172    6.1235    2.0374 H         1 RES1    0.0000
     15 H4         6.3893    4.7219    1.6896 H         1 RES1    0.0000
     16 H5         6.6935    4.0334    0.2485 H         1 RES1    0.0000
     17 H6         7.7798    3.6763    1.5405 H         1 RES1    0.0000
     18 H7        11.9015    8.1382   -1.7393 H         1 RES1    0.0000
     19 H8        10.5792    2.6832   -1.4411 H         1 RES1    0.0000
     20 H9         7.1472    7.7927    2.3853 H         1 RES1    0.0000
     21 O4        13.8074    1.0014   -1.3552 O.3       2 RES2    0.0000
     22 O5        11.8391   -2.1439   -3.4691 O.3       2 RES2    0.0000
     23 O6         8.2332    1.3907   -0.6689 O.3       2 RES2    0.0000
     24 N4        12.7181    0.1385   -1.2329 N.2       2 RES2    0.0000
     25 N5        10.6626   -1.8260   -2.7799 N.2       2 RES2    0.0000
     26 N6         9.4502    1.0048   -1.2647 N.2       2 RES2    0.0000
     27 C6        12.0715    1.1670   -3.3792 C.3       2 RES2    0.0000
     28 C7        11.9093    0.2160   -2.2263 C.2       2 RES2    0.0000
     29 C8        10.7304   -0.6706   -2.1766 C.2       2 RES2    0.0000
     30 C9         9.4926   -0.2646   -1.5206 C.2       2 RES2    0.0000
     31 C10        8.4121   -1.2388   -1.2125 C.3       2 RES2    0.0000
     32 H10       11.0871    1.2500   -3.7270 H         2 RES2    0.0000
     33 H11       12.5484    0.6071   -4.1743 H         2 RES2    0.0000
     34 H12       12.6910    2.0321   -3.2798 H         2 RES2    0.0000
     35 H13        7.6750   -0.8737   -0.4969 H         2 RES2    0.0000
     36 H14        8.9172   -2.0459   -0.8945 H         2 RES2    0.0000
     37 H15        7.8876   -1.5268   -2.0871 H         2 RES2    0.0000
     38 H16       14.6332    0.7204   -0.9442 H         2 RES2    0.0000
     39 H17       11.6769   -3.0496   -3.8761 H         2 RES2    0.0000
     40 H18        8.3369    2.2652   -0.2982 H         2 RES2    0.0000
@<TRIPOS>BOND
     1    1    4 1
     2    2    5 1
     3    3    6 1
     4    4    8 2
     5    5    9 2
     6    6   10 2
     7    7    8 1
     8    8    9 1
     9    9   10 1
    10   10   11 1
    11   11   15 1
    12   12    7 1
    13   13    7 1
    14   14    7 1
    15   16   11 1
    16   17   11 1
    17   18    1 1
    18   19    2 1
    19   20    3 1
    20   21   24 1
    21   22   25 1
    22   23   26 1
    23   24   28 2
    24   25   29 2
    25   26   30 2
    26   27   28 1
    27   28   29 1
    28   29   30 1
    29   30   31 1
    30   31   35 1
    31   32   27 1
    32   33   27 1
    33   34   27 1
    34   36   31 1
    35   37   31 1
    36   38   21 1
    37   39   22 1
    38   40   23 1
@<TRIPOS>SUBSTRUCTURE
     1 RES1 1
     2 RES2 21

@<TRIPOS>CRYSIN
  13.7760   10.8200    5.0830  81.8000 100.0000  98.4000   2 1

