# MOL2 file generated by ConQuest
# Please check atom types

@<TRIPOS>MOLECULE
FENHAH
    34    34     2
SMALL
NO_CHARGES
****
Generated from CSD

@<TRIPOS>ATOM
      1 C1        -1.7319    0.8390    0.0224 C.2       1 RES1    0.0000
      2 N1        -1.5174   -0.3030    0.7593 N.2       1 RES1    0.0000
      3 C2        -2.1868   -1.1885    0.0974 C.2       1 RES1    0.0000
      4 O1        -2.8043   -0.6885   -0.9858 O.3       1 RES1    0.0000
      5 N2        -2.4827    0.6801   -1.0198 N.2       1 RES1    0.0000
      6 C3        -1.1617    2.1716    0.3920 C.2       1 RES1    0.0000
      7 O2        -0.4714    2.2754    1.4025 O.2       1 RES1    0.0000
      8 N3        -1.4607    3.1567   -0.4314 N.am      1 RES1    0.0000
      9 C4        -1.0404    4.5232   -0.1879 C.3       1 RES1    0.0000
     10 C5        -2.3575   -2.6334    0.3564 C.3       1 RES1    0.0000
     11 H1        -1.9755    2.9639   -1.2185 H         1 RES1    0.0000
     12 H2        -1.5967    5.0868   -0.7291 H         1 RES1    0.0000
     13 H3        -0.1242    4.6228   -0.4569 H         1 RES1    0.0000
     14 H4        -1.1320    4.7711    0.7345 H         1 RES1    0.0000
     15 H5        -1.7716   -2.8940    1.0708 H         1 RES1    0.0000
     16 H6        -2.1657   -3.1588   -0.4229 H         1 RES1    0.0000
     17 H7        -3.2689   -2.7754    0.6224 H         1 RES1    0.0000
     18 C6         0.2236   16.1268    3.9965 C.2       2 RES2    0.0000
     19 N4        -0.2225   17.2475    3.3478 N.2       2 RES2    0.0000
     20 C7         0.3045   18.1988    4.0305 C.2       2 RES2    0.0000
     21 O3         1.0353   17.7602    5.0743 O.3       2 RES2    0.0000
     22 N5         0.9709   16.3598    5.0318 N.2       2 RES2    0.0000
     23 C8        -0.1004   14.7391    3.5450 C.2       2 RES2    0.0000
     24 O4        -0.8561   14.5717    2.5924 O.2       2 RES2    0.0000
     25 N6         0.4759   13.7688    4.2308 N.am      2 RES2    0.0000
     26 C9         0.3038   12.3747    3.8767 C.3       2 RES2    0.0000
     27 C10        0.2258   19.6606    3.8349 C.3       2 RES2    0.0000
     28 H8         1.0249   13.9934    4.9862 H         2 RES2    0.0000
     29 H9         0.7516   11.8260    4.5246 H         2 RES2    0.0000
     30 H10        0.6524   12.1862    3.0022 H         2 RES2    0.0000
     31 H11       -0.6368   12.1862    3.8929 H         2 RES2    0.0000
     32 H12       -0.2450   19.8004    3.0100 H         2 RES2    0.0000
     33 H13        1.0969   20.0610    3.7777 H         2 RES2    0.0000
     34 H14       -0.2643   20.0653    4.5548 H         2 RES2    0.0000
@<TRIPOS>BOND
     1    1    2 1
     2    2    3 2
     3    3    4 1
     4    4    5 1
     5    5    1 2
     6    6    1 1
     7    7    6 2
     8    8    6 1
     9    9    8 1
    10   10    3 1
    11   11    8 1
    12   12    9 1
    13   13    9 1
    14   14    9 1
    15   15   10 1
    16   16   10 1
    17   17   10 1
    18   18   19 1
    19   19   20 2
    20   20   21 1
    21   21   22 1
    22   22   18 2
    23   23   18 1
    24   24   23 2
    25   25   23 1
    26   26   25 1
    27   27   20 1
    28   28   25 1
    29   29   26 1
    30   30   26 1
    31   31   26 1
    32   32   27 1
    33   33   27 1
    34   34   27 1
@<TRIPOS>SUBSTRUCTURE
     1 RES1 1
     2 RES2 18

@<TRIPOS>CRYSIN
   7.8320   21.1860    8.0510  90.0000 106.1900  90.0000  14 2

