# MOL2 file generated by ConQuest
# Please check atom types

@<TRIPOS>MOLECULE
FENPIX01
    32    33     1
SMALL
NO_CHARGES
****
Generated from CSD

@<TRIPOS>ATOM
      1 N1         1.1616    6.1016   11.4898 N.pl3     1 RES1    0.0000
      2 N2         4.7928    2.9946   10.7185 N.pl3     1 RES1    0.0000
      3 N3         6.1607   -2.6684    4.9567 N.pl3     1 RES1    0.0000
      4 O1         0.0873    6.5637   11.1428 O.2       1 RES1    0.0000
      5 O2         1.8158    6.5535   12.4204 O.2       1 RES1    0.0000
      6 O3         5.3968    3.6729   11.5251 O.2       1 RES1    0.0000
      7 O4         5.2733    1.9748   10.2310 O.2       1 RES1    0.0000
      8 N4         3.1964    1.6885    8.6451 N.am      1 RES1    0.0000
      9 H1         3.9394    1.3740    8.9450 H         1 RES1    0.0000
     10 O5         1.5532    1.2019    7.1288 O.2       1 RES1    0.0000
     11 O6         7.3076   -2.3444    4.6978 O.2       1 RES1    0.0000
     12 O7         5.6818   -3.7656    4.7122 O.2       1 RES1    0.0000
     13 C1         1.6867    4.9606   10.7523 C.ar      1 RES1    0.0000
     14 C2         2.9418    4.5010   11.0420 C.ar      1 RES1    0.0000
     15 H2         3.4550    4.9140   11.6994 H         1 RES1    0.0000
     16 C3         3.4380    3.4163   10.3456 C.ar      1 RES1    0.0000
     17 C4         2.6792    2.7697    9.3379 C.ar      1 RES1    0.0000
     18 C5         1.4099    3.2922    9.0718 C.ar      1 RES1    0.0000
     19 H3         0.8869    2.8977    8.4120 H         1 RES1    0.0000
     20 C6         0.9181    4.3719    9.7611 C.ar      1 RES1    0.0000
     21 H4         0.0736    4.7062    9.5637 H         1 RES1    0.0000
     22 C7         2.6831    1.0485    7.5426 C.2       1 RES1    0.0000
     23 C8         3.6425    0.1006    6.8865 C.ar      1 RES1    0.0000
     24 C9         5.0221    0.2399    6.9628 C.ar      1 RES1    0.0000
     25 H5         5.3880    0.9417    7.4524 H         1 RES1    0.0000
     26 C10        5.8550   -0.6502    6.3196 C.ar      1 RES1    0.0000
     27 H6         6.7786   -0.5488    6.3554 H         1 RES1    0.0000
     28 C11        5.2848   -1.6941    5.6215 C.ar      1 RES1    0.0000
     29 C12        3.9218   -1.8534    5.5144 C.ar      1 RES1    0.0000
     30 H7         3.5611   -2.5651    5.0370 H         1 RES1    0.0000
     31 C13        3.1054   -0.9348    6.1303 C.ar      1 RES1    0.0000
     32 H8         2.1830   -1.0061    6.0399 H         1 RES1    0.0000
@<TRIPOS>BOND
     1    1    4 2
     2    2    6 2
     3    3   11 2
     4    5    1 2
     5    7    2 2
     6    8    9 1
     7   10   22 2
     8   12    3 2
     9   13    1 1
    10   14   13 ar
    11   15   14 1
    12   16    2 1
    13   17    8 1
    14   18   17 ar
    15   19   18 1
    16   20   13 ar
    17   21   20 1
    18   22    8 1
    19   23   22 1
    20   24   23 ar
    21   25   24 1
    22   26   24 ar
    23   27   26 1
    24   28    3 1
    25   29   28 ar
    26   30   29 1
    27   31   23 ar
    28   32   31 1
    29   14   16 ar
    30   16   17 ar
    31   18   20 ar
    32   26   28 ar
    33   29   31 ar
@<TRIPOS>SUBSTRUCTURE
     1 RES1 1

@<TRIPOS>CRYSIN
   7.0390   20.7870    9.4230  90.0000  92.0800  90.0000 231 1

