# MOL2 file generated by ConQuest
# Please check atom types

@<TRIPOS>MOLECULE
FENPIX
    25    26     1
SMALL
NO_CHARGES
****
Generated from CSD

@<TRIPOS>ATOM
      1 O1         5.1407    2.2718    9.1969 O.2       1 RES1    0.0000
      2 O2         1.4245   -0.8122    8.4113 O.2       1 RES1    0.0000
      3 O3         1.2982   -2.1003    6.7070 O.2       1 RES1    0.0000
      4 O4         4.8820   -2.9856    3.8388 O.2       1 RES1    0.0000
      5 O5         6.6131   -1.7153    3.8326 O.2       1 RES1    0.0000
      6 O6         1.0123    4.6888   14.1497 O.2       1 RES1    0.0000
      7 O7        -0.6112    4.6972   12.7364 O.2       1 RES1    0.0000
      8 N1         3.5039    0.7626    8.7043 N.am      1 RES1    0.0000
      9 N2         1.9124   -1.2956    7.3866 N.pl3     1 RES1    0.0000
     10 N3         5.5399   -2.0619    4.2961 N.pl3     1 RES1    0.0000
     11 N4         0.5376    4.4358   13.0607 N.pl3     1 RES1    0.0000
     12 C1         4.0160    0.0721    7.6215 C.ar      1 RES1    0.0000
     13 C2         3.2642   -0.9246    6.9689 C.ar      1 RES1    0.0000
     14 C3         3.7575   -1.6188    5.8902 C.ar      1 RES1    0.0000
     15 C4         5.0148   -1.3228    5.4309 C.ar      1 RES1    0.0000
     16 C5         5.7826   -0.3419    6.0211 C.ar      1 RES1    0.0000
     17 C6         5.2958    0.3494    7.1040 C.ar      1 RES1    0.0000
     18 C7         4.0121    1.8605    9.3507 C.2       1 RES1    0.0000
     19 C8         3.0564    2.5135   10.2922 C.ar      1 RES1    0.0000
     20 C9         3.5928    3.2695   11.3273 C.ar      1 RES1    0.0000
     21 C10        2.7730    3.8822   12.2439 C.ar      1 RES1    0.0000
     22 C11        1.4120    3.7716   12.0817 C.ar      1 RES1    0.0000
     23 C12        0.8478    3.0840   11.0384 C.ar      1 RES1    0.0000
     24 C13        1.6772    2.4395   10.1509 C.ar      1 RES1    0.0000
     25 H1         2.6566    0.5152    8.9163 H         1 RES1    0.0000
@<TRIPOS>BOND
     1    1   18 2
     2    2    9 2
     3    3    9 2
     4    4   10 2
     5    5   10 2
     6    6   11 2
     7    7   11 2
     8    8   12 1
     9    9   13 1
    10   10   15 1
    11   11   22 1
    12   12   13 ar
    13   13   14 ar
    14   14   15 ar
    15   15   16 ar
    16   16   17 ar
    17   17   12 ar
    18   18    8 1
    19   19   18 1
    20   20   19 ar
    21   21   20 ar
    22   22   21 ar
    23   23   22 ar
    24   24   19 ar
    25   25    8 1
    26   23   24 ar
@<TRIPOS>SUBSTRUCTURE
     1 RES1 1

