# MOL2 file generated by ConQuest
# Please check atom types

@<TRIPOS>MOLECULE
FENZUV
    24    25     1
SMALL
NO_CHARGES
****
Generated from CSD

@<TRIPOS>ATOM
      1 C1         4.4181   -2.8821    3.8151 C.ar      1 RES1    0.0000
      2 H1         4.4729   -3.5983    3.2237 H         1 RES1    0.0000
      3 C2         5.5961   -2.3169    4.2620 C.ar      1 RES1    0.0000
      4 H2         6.4167   -2.6419    3.9711 H         1 RES1    0.0000
      5 C3         5.5340   -1.2626    5.1471 C.ar      1 RES1    0.0000
      6 H3         6.3133   -0.8753    5.4736 H         1 RES1    0.0000
      7 C4         4.2823   -0.7824    5.5471 C.ar      1 RES1    0.0000
      8 C5         3.1576   -1.4271    5.0320 C.ar      1 RES1    0.0000
      9 H4         2.3221   -1.1176    5.2968 H         1 RES1    0.0000
     10 C6         4.1241    0.3468    6.4849 C.2       1 RES1    0.0000
     11 C7         3.0338    0.2902    7.4993 C.ar      1 RES1    0.0000
     12 C8         3.0374   -0.6974    8.4663 C.ar      1 RES1    0.0000
     13 H5         3.7084   -1.3407    8.4740 H         1 RES1    0.0000
     14 C9         2.0410   -0.7231    9.4194 C.ar      1 RES1    0.0000
     15 H6         2.0335   -1.3759   10.0820 H         1 RES1    0.0000
     16 C10        1.0550    0.2417    9.3683 C.ar      1 RES1    0.0000
     17 H7         0.3816    0.2210   10.0091 H         1 RES1    0.0000
     18 C11        2.0012    1.2189    7.5303 C.ar      1 RES1    0.0000
     19 H8         1.9899    1.8872    6.8831 H         1 RES1    0.0000
     20 N1         3.1986   -2.4585    4.1832 N.ar      1 RES1    0.0000
     21 N2         1.0224    1.2035    8.4421 N.ar      1 RES1    0.0000
     22 N3         4.9907    1.3012    6.3891 N.2       1 RES1    0.0000
     23 O1         4.7658    2.2903    7.3399 O.3       1 RES1    0.0000
     24 H9         5.4730    2.9301    7.1700 H         1 RES1    0.0000
@<TRIPOS>BOND
     1    1    2 1
     2    3    1 ar
     3    4    3 1
     4    5    3 ar
     5    6    5 1
     6    7    5 ar
     7    8    7 ar
     8    9    8 1
     9   10    7 1
    10   11   10 1
    11   12   11 ar
    12   13   12 1
    13   14   12 ar
    14   15   14 1
    15   16   14 ar
    16   17   16 1
    17   18   11 ar
    18   19   18 1
    19   20    1 ar
    20   21   16 ar
    21   22   10 2
    22   23   22 1
    23   24   23 1
    24    8   20 ar
    25   18   21 ar
@<TRIPOS>SUBSTRUCTURE
     1 RES1 1

@<TRIPOS>CRYSIN
  11.4954   10.6744   15.5060  90.0000  90.0000  90.0000  61 1

