# MOL2 file generated by ConQuest
# Please check atom types

@<TRIPOS>MOLECULE
FENZUW
    45    49     1
SMALL
NO_CHARGES
****
Generated from CSD

@<TRIPOS>ATOM
      1 N1         5.2130    4.7560    2.7037 N.2       1 RES1    0.0000
      2 O1         4.1978    4.0014    2.1508 O.3       1 RES1    0.0000
      3 O2         3.1966    5.2032    8.5459 O.2       1 RES1    0.0000
      4 N2         3.1164    3.8587    3.0008 N.2       1 RES1    0.0000
      5 C1         3.4529    4.5351    4.0815 C.2       1 RES1    0.0000
      6 N3         2.7079    5.7017    7.5373 N.pl3     1 RES1    0.0000
      7 O3         1.7356    6.4328    7.5162 O.2       1 RES1    0.0000
      8 C2         2.7088    4.6934    5.3070 C.2       1 RES1    0.0000
      9 N4         0.3105    4.1016    4.7903 N.3       1 RES1    0.0000
     10 C3         3.3765    5.4227    6.2500 C.2       1 RES1    0.0000
     11 C4         4.6919    5.9603    6.1052 C.2       1 RES1    0.0000
     12 C5         5.5204    6.7407    7.0910 C.3       1 RES1    0.0000
     13 H1         5.2140    7.6797    7.1575 H         1 RES1    0.0000
     14 H2         5.5001    6.3255    7.9890 H         1 RES1    0.0000
     15 N5         6.8585    6.6554    6.4920 N.3       1 RES1    0.0000
     16 C6         5.3815    5.8266    4.9413 C.2       1 RES1    0.0000
     17 C7         4.7602    5.0927    3.8948 C.2       1 RES1    0.0000
     18 C8         6.7074    6.5141    5.0333 C.3       1 RES1    0.0000
     19 H3         7.4311    5.9611    4.6448 H         1 RES1    0.0000
     20 H4         6.6909    7.3954    4.5830 H         1 RES1    0.0000
     21 C9         7.7494    7.7378    6.8979 C.3       1 RES1    0.0000
     22 H5         7.8000    7.7697    7.8763 H         1 RES1    0.0000
     23 H6         7.4025    8.5903    6.5600 H         1 RES1    0.0000
     24 H7         8.6432    7.5798    6.5296 H         1 RES1    0.0000
     25 C10        1.4320    4.0300    5.5934 C.2       1 RES1    0.0000
     26 C11       -0.7036    3.4159    5.4064 C.2       1 RES1    0.0000
     27 H8        -1.5890    3.3265    5.0751 H         1 RES1    0.0000
     28 C12       -0.2371    2.8810    6.5741 C.2       1 RES1    0.0000
     29 H9        -0.7304    2.3494    7.1878 H         1 RES1    0.0000
     30 C13        1.1138    3.2670    6.6967 C.2       1 RES1    0.0000
     31 H10        1.6994    3.0422    7.4109 H         1 RES1    0.0000
     32 C14        0.1251    4.9604    3.6197 C.3       1 RES1    0.0000
     33 H11       -0.7889    4.8310    3.2618 H         1 RES1    0.0000
     34 H12        0.7683    4.6942    2.9151 H         1 RES1    0.0000
     35 C15        0.3275    6.4200    3.9520 C.ar      1 RES1    0.0000
     36 C16        1.2196    7.1866    3.2138 C.ar      1 RES1    0.0000
     37 H13        1.6857    6.7943    2.4848 H         1 RES1    0.0000
     38 C17        1.4371    8.5174    3.5302 C.ar      1 RES1    0.0000
     39 H14        2.0524    9.0303    3.0194 H         1 RES1    0.0000
     40 C18        0.7630    9.1022    4.5874 C.ar      1 RES1    0.0000
     41 H15        0.9128   10.0147    4.8048 H         1 RES1    0.0000
     42 C19       -0.1327    8.3474    5.3271 C.ar      1 RES1    0.0000
     43 H16       -0.6015    8.7451    6.0509 H         1 RES1    0.0000
     44 C20       -0.3467    7.0173    5.0150 C.ar      1 RES1    0.0000
     45 H17       -0.9588    6.5055    5.5309 H         1 RES1    0.0000
@<TRIPOS>BOND
     1    1    2 1
     2    2    4 1
     3    3    6 2
     4    4    5 2
     5    5    8 1
     6    6    7 2
     7    8   10 2
     8    9   25 1
     9   10    6 1
    10   11   10 1
    11   12   11 1
    12   13   12 1
    13   14   12 1
    14   15   12 1
    15   16   11 2
    16   17    1 2
    17   18   15 1
    18   19   18 1
    19   20   18 1
    20   21   15 1
    21   22   21 1
    22   23   21 1
    23   24   21 1
    24   25    8 1
    25   26    9 1
    26   27   26 1
    27   28   26 2
    28   29   28 1
    29   30   25 2
    30   31   30 1
    31   32    9 1
    32   33   32 1
    33   34   32 1
    34   35   32 1
    35   36   35 ar
    36   37   36 1
    37   38   36 ar
    38   39   38 1
    39   40   38 ar
    40   41   40 1
    41   42   40 ar
    42   43   42 1
    43   44   35 ar
    44   45   44 1
    45    5   17 1
    46   16   17 1
    47   16   18 1
    48   28   30 1
    49   42   44 ar
@<TRIPOS>SUBSTRUCTURE
     1 RES1 1

@<TRIPOS>CRYSIN
  16.2477    8.9979   12.8559  90.0000 109.4650  90.0000  14 1

