# MOL2 file generated by ConQuest
# Please check atom types

@<TRIPOS>MOLECULE
FEPCIM
    14    15     1
SMALL
NO_CHARGES
****
Generated from CSD

@<TRIPOS>ATOM
      1 O1         5.9790    4.8517    0.2990 O.3       1 RES1    0.0000
      2 C1         5.1039    3.7651    0.0082 C.3       1 RES1    0.0000
      3 C2         5.8135    2.7044   -0.8181 C.2       1 RES1    0.0000
      4 N1         6.7474    3.1703   -1.6716 N.am      1 RES1    0.0000
      5 C3         7.1245    4.5246   -1.7722 C.ar      1 RES1    0.0000
      6 C4         7.8898    5.0148   -2.7915 C.ar      1 RES1    0.0000
      7 C5         8.2159    6.3541   -2.8295 C.ar      1 RES1    0.0000
      8 C6         7.7800    7.2156   -1.7749 C.ar      1 RES1    0.0000
      9 C7         6.9670    6.7296   -0.7638 C.ar      1 RES1    0.0000
     10 C8         6.7252    5.3846   -0.7747 C.ar      1 RES1    0.0000
     11 O2         4.0348    4.1909   -0.7828 O.3       1 RES1    0.0000
     12 O3         5.5892    1.4957   -0.6822 O.2       1 RES1    0.0000
     13 O4         7.4379    2.2803   -2.4680 O.3       1 RES1    0.0000
     14 C9         6.6424    1.8805   -3.6232 C.3       1 RES1    0.0000
@<TRIPOS>BOND
     1    1    2 1
     2    2    3 1
     3    3    4 1
     4    4    5 1
     5    5    6 ar
     6    6    7 ar
     7    7    8 ar
     8    8    9 ar
     9    9   10 ar
    10   10    1 1
    11   11    2 1
    12   12    3 2
    13   13    4 1
    14   14   13 1
    15    5   10 ar
@<TRIPOS>SUBSTRUCTURE
     1 RES1 1

@<TRIPOS>CRYSIN
  15.9100    8.3650   27.1810  90.0000  90.0000  90.0000  19 1

