# MOL2 file generated by ConQuest
# Please check atom types

@<TRIPOS>MOLECULE
FEPDOT
    59    60     1
SMALL
NO_CHARGES
****
Generated from CSD

@<TRIPOS>ATOM
      1 O1         5.0224    5.7547    4.1925 O.2       1 RES1    0.0000
      2 O2         3.2427   11.1240   11.6842 O.2       1 RES1    0.0000
      3 O3         6.4512    9.1413    8.0734 O.2       1 RES1    0.0000
      4 O4         1.8108    7.6388    7.9669 O.2       1 RES1    0.0000
      5 N1         5.4075    6.5606    5.0893 N.3       1 RES1    0.0000
      6 N2         2.8234   10.3362   10.8109 N.3       1 RES1    0.0000
      7 C1         3.8421    9.3261    7.2574 C.3       1 RES1    0.0000
      8 C2         4.6901    8.1287    6.8325 C.3       1 RES1    0.0000
      9 C3         6.1219    8.2746    7.2809 C.2       1 RES1    0.0000
     10 C4         7.1314    7.3386    6.6856 C.2       1 RES1    0.0000
     11 C5         6.6717    6.2275    5.7866 C.3       1 RES1    0.0000
     12 C6         4.6621    7.8285    5.3068 C.3       1 RES1    0.0000
     13 C7         3.3918    9.2592    8.7203 C.3       1 RES1    0.0000
     14 C8         2.1990    8.3645    8.8481 C.2       1 RES1    0.0000
     15 C9         1.4225    8.4594   10.1417 C.2       1 RES1    0.0000
     16 C10        1.9599    9.2325   11.2896 C.3       1 RES1    0.0000
     17 C11        3.0936   10.6256    9.3783 C.3       1 RES1    0.0000
     18 C12        5.3423    8.9420    4.5008 C.3       1 RES1    0.0000
     19 C13        3.2706    7.6109    4.7844 C.3       1 RES1    0.0000
     20 C14        6.3953    4.9973    6.6576 C.3       1 RES1    0.0000
     21 C15        7.7029    5.8495    4.7071 C.3       1 RES1    0.0000
     22 C16        8.4079    7.5112    7.0029 C.2       1 RES1    0.0000
     23 C17        4.2925   11.5336    9.3054 C.3       1 RES1    0.0000
     24 C18        1.8853   11.3221    8.7617 C.3       1 RES1    0.0000
     25 C19        0.8200    9.8743   12.1023 C.3       1 RES1    0.0000
     26 C20        2.8202    8.3050   12.1729 C.3       1 RES1    0.0000
     27 C21        0.2795    7.7883   10.2045 C.2       1 RES1    0.0000
     28 H1         4.3795   10.2110    6.9838 H         1 RES1    0.0000
     29 H2         3.0749    9.2750    6.7372 H         1 RES1    0.0000
     30 H3         4.3795    7.3179    7.1968 H         1 RES1    0.0000
     31 H4         4.2242    8.8617    9.3155 H         1 RES1    0.0000
     32 H5         6.3673    9.2993    4.8315 H         1 RES1    0.0000
     33 H6         5.2181    8.7523    3.5087 H         1 RES1    0.0000
     34 H7         5.0007    9.9315    4.8203 H         1 RES1    0.0000
     35 H8         3.1681    7.4030    3.7778 H         1 RES1    0.0000
     36 H9         2.8265    8.4363    4.9436 H         1 RES1    0.0000
     37 H10        2.8265    7.0748    5.2911 H         1 RES1    0.0000
     38 H11        5.6529    5.0569    6.9278 H         1 RES1    0.0000
     39 H12        7.1749    4.8381    7.2417 H         1 RES1    0.0000
     40 H13        6.0567    4.1817    5.9637 H         1 RES1    0.0000
     41 H14        7.7961    6.6615    4.2710 H         1 RES1    0.0000
     42 H15        7.4233    4.8624    4.2038 H         1 RES1    0.0000
     43 H16        8.6347    5.5918    5.0893 H         1 RES1    0.0000
     44 H17        8.5104    8.2539    7.5892 H         1 RES1    0.0000
     45 H18        9.1938    6.9168    6.6363 H         1 RES1    0.0000
     46 H19        5.0938   11.1227    9.5397 H         1 RES1    0.0000
     47 H20        4.2242   12.3870    9.9881 H         1 RES1    0.0000
     48 H21        4.2552   11.9493    8.4299 H         1 RES1    0.0000
     49 H22        1.0250   11.3294    9.3267 H         1 RES1    0.0000
     50 H23        1.8325   12.5450    8.6765 H         1 RES1    0.0000
     51 H24        1.5219   11.1835    7.8246 H         1 RES1    0.0000
     52 H25        0.5901    9.4574   13.0372 H         1 RES1    0.0000
     53 H26        1.0871   10.9404   12.5328 H         1 RES1    0.0000
     54 H27       -0.0621   10.1259   11.6696 H         1 RES1    0.0000
     55 H28        3.4477    7.7555   11.5575 H         1 RES1    0.0000
     56 H29        3.4477    8.7402   12.8130 H         1 RES1    0.0000
     57 H30        2.3295    7.5975   12.7121 H         1 RES1    0.0000
     58 H31       -0.4038    7.8528   10.9858 H         1 RES1    0.0000
     59 H32       -0.0311    7.1234    9.4837 H         1 RES1    0.0000
@<TRIPOS>BOND
     1    1    5 1
     2    2    6 1
     3    3    9 2
     4    4   14 2
     5    5   11 1
     6    6   16 1
     7    7    8 1
     8    8    9 1
     9    9   10 1
    10   10   11 1
    11   11   20 1
    12   12    5 1
    13   13    7 1
    14   14   13 1
    15   15   14 1
    16   16   15 1
    17   17    6 1
    18   18   12 1
    19   19   12 1
    20   20   38 1
    21   21   11 1
    22   22   10 2
    23   23   17 1
    24   24   17 1
    25   25   16 1
    26   26   16 1
    27   27   15 2
    28   28    7 1
    29   29    7 1
    30   30    8 1
    31   31   13 1
    32   32   18 1
    33   33   18 1
    34   34   18 1
    35   35   19 1
    36   36   19 1
    37   37   19 1
    38   39   20 1
    39   40   20 1
    40   41   21 1
    41   42   21 1
    42   43   21 1
    43   44   22 1
    44   45   22 1
    45   46   23 1
    46   47   23 1
    47   48   23 1
    48   49   24 1
    49   50   24 1
    50   51   24 1
    51   52   25 1
    52   53   25 1
    53   54   25 1
    54   55   26 1
    55   56   26 1
    56   57   26 1
    57   58   27 1
    58   59   27 1
    59    8   12 1
    60   13   17 1
@<TRIPOS>SUBSTRUCTURE
     1 RES1 1

@<TRIPOS>CRYSIN
  31.0600   12.1560   11.2100  90.0000  90.0000  90.0000  45 1

