# MOL2 file generated by ConQuest
# Please check atom types

@<TRIPOS>MOLECULE
FEPFAJ01
    22    22     1
SMALL
NO_CHARGES
****
Generated from CSD

@<TRIPOS>ATOM
      1 C1         3.5817    5.5286    8.9846 C.ar      1 RES1    0.0000
      2 C2         2.7601    6.6456    8.8755 C.ar      1 RES1    0.0000
      3 H1         2.8814    7.3806    9.4644 H         1 RES1    0.0000
      4 C3         3.3908    4.4589    8.1236 C.ar      1 RES1    0.0000
      5 H2         3.9451    3.6908    8.1939 H         1 RES1    0.0000
      6 C4         5.0026    6.7442   10.6272 C.1       1 RES1    0.0000
      7 C5         4.6532    5.5046    9.9904 C.2       1 RES1    0.0000
      8 N1         5.3112    4.4297   10.2275 N.2       1 RES1    0.0000
      9 O1         6.2836    4.6374   11.1694 O.3       1 RES1    0.0000
     10 H3         6.6783    3.8269   11.2225 H         1 RES1    0.0000
     11 N2         5.2957    7.7532   11.0658 N.1       1 RES1    0.0000
     12 C1D        1.5793    5.6220    7.0567 C.ar      1 RES1    0.0000
     13 C2D        2.4009    4.5050    7.1658 C.ar      1 RES1    0.0000
     14 H1D        2.2796    3.7700    6.5769 H         1 RES1    0.0000
     15 C3D        1.7702    6.6917    7.9177 C.ar      1 RES1    0.0000
     16 H2D        1.2159    7.4598    7.8474 H         1 RES1    0.0000
     17 C4D        0.1584    4.4064    5.4141 C.1       1 RES1    0.0000
     18 C5D        0.5078    5.6460    6.0509 C.2       1 RES1    0.0000
     19 N1D       -0.1502    6.7209    5.8138 N.2       1 RES1    0.0000
     20 O1D       -1.1226    6.5132    4.8719 O.3       1 RES1    0.0000
     21 H3D       -1.5173    7.3237    4.8188 H         1 RES1    0.0000
     22 N2D       -0.1347    3.3974    4.9755 N.1       1 RES1    0.0000
@<TRIPOS>BOND
     1    1    2 ar
     2    2    3 1
     3    4    1 ar
     4    5    4 1
     5    6    7 1
     6    7    1 1
     7    8    7 2
     8    9    8 1
     9   10    9 1
    10   11    6 3
    11   12   13 ar
    12   13    4 ar
    13   14   13 1
    14   15    2 ar
    15   16   15 1
    16   17   18 1
    17   18   12 1
    18   19   18 2
    19   20   19 1
    20   21   20 1
    21   22   17 3
    22   12   15 ar
@<TRIPOS>SUBSTRUCTURE
     1 RES1 1

@<TRIPOS>CRYSIN
   5.1610   11.1506   16.0413  90.0000  90.0000  90.0000  61 1

