# MOL2 file generated by ConQuest
# Please check atom types

@<TRIPOS>MOLECULE
FEPFIP
    37    38     1
SMALL
NO_CHARGES
****
Generated from CSD

@<TRIPOS>ATOM
      1 O1        -7.9021   -4.9876   -3.5198 O.2       1 RES1    0.0000
      2 O2       -10.7516   -9.2505   -2.3143 O.2       1 RES1    0.0000
      3 O3        -9.6647  -11.0987   -2.2497 O.2       1 RES1    0.0000
      4 O4        -4.4544   -3.3106   -1.9189 O.3       1 RES1    0.0000
      5 N1        -6.8554   -4.8615   -1.5377 N.am      1 RES1    0.0000
      6 N2        -9.7049   -9.8773   -2.3121 N.pl3     1 RES1    0.0000
      7 N3        -4.8921   -7.0485   -2.6317 N.3       1 RES1    0.0000
      8 C1        -6.6576   -3.0245   -0.0795 C.3       1 RES1    0.0000
      9 C2        -6.1778   -4.2554    0.6117 C.3       1 RES1    0.0000
     10 C3        -6.4598   -5.4336   -0.2319 C.3       1 RES1    0.0000
     11 C4        -7.3881   -5.5484   -2.5633 C.2       1 RES1    0.0000
     12 C5        -7.2901   -7.0710   -2.4503 C.ar      1 RES1    0.0000
     13 C6        -8.4809   -7.7580   -2.3998 C.ar      1 RES1    0.0000
     14 C7        -8.4397   -9.1414   -2.3589 C.ar      1 RES1    0.0000
     15 C8        -7.2549   -9.8377   -2.3805 C.ar      1 RES1    0.0000
     16 C9        -6.0867   -9.1564   -2.4592 C.ar      1 RES1    0.0000
     17 C10       -6.0564   -7.7335   -2.5247 C.ar      1 RES1    0.0000
     18 C11       -3.5966   -7.7260   -2.7357 C.3       1 RES1    0.0000
     19 C12       -6.8280   -3.3915   -1.5392 C.3       1 RES1    0.0000
     20 C13       -5.6950   -2.9060   -2.4340 C.3       1 RES1    0.0000
     21 H1        -6.0201   -2.3300    0.0171 H         1 RES1    0.0000
     22 H2        -7.4879   -2.7497    0.2936 H         1 RES1    0.0000
     23 H3        -5.2436   -4.1839    0.7610 H         1 RES1    0.0000
     24 H4        -6.6272   -4.3439    1.4440 H         1 RES1    0.0000
     25 H5        -5.6843   -5.9775   -0.3233 H         1 RES1    0.0000
     26 H6        -7.1658   -5.9531    0.1353 H         1 RES1    0.0000
     27 H7        -9.3102   -7.2969   -2.3998 H         1 RES1    0.0000
     28 H8        -7.2529  -10.7863   -2.3396 H         1 RES1    0.0000
     29 H9        -5.2681   -9.6382   -2.4719 H         1 RES1    0.0000
     30 H10       -4.9185   -6.0980   -2.6361 H         1 RES1    0.0000
     31 H11       -3.4546   -8.2587   -1.9613 H         1 RES1    0.0000
     32 H12       -3.5907   -8.2775   -3.5072 H         1 RES1    0.0000
     33 H13       -2.9063   -7.0767   -2.8041 H         1 RES1    0.0000
     34 H14       -7.6593   -3.0565   -1.8573 H         1 RES1    0.0000
     35 H15       -5.8125   -3.2730   -3.3043 H         1 RES1    0.0000
     36 H16       -5.7254   -1.9593   -2.4845 H         1 RES1    0.0000
     37 H17       -3.8639   -3.0659   -2.6666 H         1 RES1    0.0000
@<TRIPOS>BOND
     1    1   11 2
     2    2    6 2
     3    3    6 2
     4    4   20 1
     5    5   10 1
     6    6   14 1
     7    7   17 1
     8    8    9 1
     9    9   10 1
    10   10   25 1
    11   11    5 1
    12   12   11 1
    13   13   12 ar
    14   14   13 ar
    15   15   14 ar
    16   16   15 ar
    17   17   12 ar
    18   18    7 1
    19   19    5 1
    20   20   19 1
    21   21    8 1
    22   22    8 1
    23   23    9 1
    24   24    9 1
    25   26   10 1
    26   27   13 1
    27   28   15 1
    28   29   16 1
    29   30    7 1
    30   31   18 1
    31   32   18 1
    32   33   18 1
    33   34   19 1
    34   35   20 1
    35   36   20 1
    36   37    4 1
    37    8   19 1
    38   16   17 ar
@<TRIPOS>SUBSTRUCTURE
     1 RES1 1

@<TRIPOS>CRYSIN
   9.7920   18.8210    7.4320  90.0000  90.0000  90.0000  19 1

