# MOL2 file generated by ConQuest
# Please check atom types

@<TRIPOS>MOLECULE
FEPGAI
    49    51     1
SMALL
NO_CHARGES
****
Generated from CSD

@<TRIPOS>ATOM
      1 C1         7.5348   15.1391    2.0271 C.3       1 RES1    0.0000
      2 O1         8.8067   15.3615    2.6021 O.3       1 RES1    0.0000
      3 C2         9.8317   15.3606    1.6646 C.3       1 RES1    0.0000
      4 C3        11.1150   15.7110    2.3521 C.3       1 RES1    0.0000
      5 C4        11.7242   14.3804    2.7362 C.3       1 RES1    0.0000
      6 O2        13.1090   14.3974    2.2899 O.3       1 RES1    0.0000
      7 C5        10.9130   13.3383    1.9804 C.3       1 RES1    0.0000
      8 O3        10.0492   14.0708    1.0967 O.3       1 RES1    0.0000
      9 C6        10.1216   12.3907    2.8424 C.3       1 RES1    0.0000
     10 O4         9.5879   11.3611    1.9702 O.3       1 RES1    0.0000
     11 C7         7.2352    8.0290   -0.7104 C.ar      1 RES1    0.0000
     12 C8         8.5666    8.2720   -0.4890 C.ar      1 RES1    0.0000
     13 C9         8.9181    9.3086    0.3603 C.ar      1 RES1    0.0000
     14 C10        7.9229   10.0764    0.9556 C.ar      1 RES1    0.0000
     15 C11        6.5968    9.8044    0.7064 C.ar      1 RES1    0.0000
     16 C12        6.2317    8.7733   -0.1261 C.ar      1 RES1    0.0000
     17 N1         6.8600    6.9040   -1.6007 N.pl3     1 RES1    0.0000
     18 O5         5.6887    6.6640   -1.7528 O.2       1 RES1    0.0000
     19 O6         7.7418    6.2876   -2.1510 O.2       1 RES1    0.0000
     20 C13        8.2713   11.1921    1.8966 C.2       1 RES1    0.0000
     21 O7         7.4521   11.8160    2.5038 O.2       1 RES1    0.0000
     22 C14       17.8010   13.5742    1.1315 C.ar      1 RES1    0.0000
     23 C15       17.4330   12.5111    1.9336 C.ar      1 RES1    0.0000
     24 C16       16.1657   12.4926    2.4407 C.ar      1 RES1    0.0000
     25 C17       15.2634   13.5095    2.1686 C.ar      1 RES1    0.0000
     26 C18       15.6721   14.5614    1.3634 C.ar      1 RES1    0.0000
     27 C19       16.9366   14.5994    0.8493 C.ar      1 RES1    0.0000
     28 N2        19.1552   13.5982    0.5653 N.pl3     1 RES1    0.0000
     29 O8        19.9031   12.6952    0.8616 O.2       1 RES1    0.0000
     30 O9        19.4536   14.4694   -0.2139 O.2       1 RES1    0.0000
     31 C20       13.8889   13.4194    2.7269 C.2       1 RES1    0.0000
     32 O10       13.5247   12.5514    3.4783 O.2       1 RES1    0.0000
     33 H1         6.9387   15.2146    2.7957 H         1 RES1    0.0000
     34 H2         7.4852   14.3292    1.5654 H         1 RES1    0.0000
     35 H3         7.3037   15.9185    1.5434 H         1 RES1    0.0000
     36 H4         9.6166   15.9359    0.9304 H         1 RES1    0.0000
     37 H5        10.9651   16.2310    3.0823 H         1 RES1    0.0000
     38 H6        11.7755   16.1545    1.7859 H         1 RES1    0.0000
     39 H7        11.7206   14.2462    3.6379 H         1 RES1    0.0000
     40 H8        11.4969   12.8165    1.4508 H         1 RES1    0.0000
     41 H9        10.7330   11.9421    3.4615 H         1 RES1    0.0000
     42 H10        9.3951   12.8078    3.2852 H         1 RES1    0.0000
     43 H11        9.1861    7.8281   -0.9348 H         1 RES1    0.0000
     44 H12        9.8424    9.5375    0.5424 H         1 RES1    0.0000
     45 H13        5.9342   10.3245    1.1465 H         1 RES1    0.0000
     46 H14        5.2926    8.5866   -0.2381 H         1 RES1    0.0000
     47 H15       18.0304   11.9071    2.1519 H         1 RES1    0.0000
     48 H16       15.8716   11.8350    2.9677 H         1 RES1    0.0000
     49 H17       15.0549   15.1730    1.1597 H         1 RES1    0.0000
@<TRIPOS>BOND
     1    1    2 1
     2    2    3 1
     3    3    4 1
     4    4    5 1
     5    5    6 1
     6    6   31 1
     7    7    5 1
     8    8    3 1
     9    9    7 1
    10   10    9 1
    11   11   12 ar
    12   12   13 ar
    13   13   14 ar
    14   14   15 ar
    15   15   16 ar
    16   16   11 ar
    17   17   11 1
    18   18   17 2
    19   19   17 2
    20   20   10 1
    21   21   20 2
    22   22   23 ar
    23   23   24 ar
    24   24   25 ar
    25   25   26 ar
    26   26   27 ar
    27   27   22 ar
    28   28   22 1
    29   29   28 2
    30   30   28 2
    31   31   25 1
    32   32   31 2
    33   33    1 1
    34   34    1 1
    35   35    1 1
    36   36    3 1
    37   37    4 1
    38   38    4 1
    39   39    5 1
    40   40    7 1
    41   41    9 1
    42   42    9 1
    43   43   12 1
    44   44   13 1
    45   45   15 1
    46   46   16 1
    47   47   23 1
    48   48   24 1
    49   49   26 1
    50    7    8 1
    51   14   20 1
@<TRIPOS>SUBSTRUCTURE
     1 RES1 1

@<TRIPOS>CRYSIN
  21.1030   21.8600    4.4096  90.0000  90.0000  90.0000  19 1

