# MOL2 file generated by ConQuest
# Please check atom types

@<TRIPOS>MOLECULE
FEPJIW
    46    48     2
SMALL
USER_CHARGES
****
Generated from CSD

@<TRIPOS>ATOM
      1 O1        -1.6460    2.0900    5.2231 O.2       1 RES1   -1.0000
      2 O2        -0.8305    3.6241    6.7076 O.3       1 RES1    0.0000
      3 O3        -2.7355    2.1495   11.8585 O.3       1 RES1    0.0000
      4 O4        -2.4790    3.0730   14.4222 O.2       1 RES1    0.0000
      5 O5        -1.1174    4.7070   13.6673 O.3       1 RES1    0.0000
      6 N1        -1.6119    2.4519    6.4080 N.pl3     1 RES1    1.0000
      7 N2        -0.9144    3.8295    8.0609 N.2       1 RES1    0.0000
      8 N3        -2.7039    1.8951   10.4910 N.2       1 RES1    0.0000
      9 C1        -2.1453    1.9996    7.5241 C.2       1 RES1    0.0000
     10 C2        -1.6870    2.8766    8.5383 C.2       1 RES1    0.0000
     11 C3        -3.0246    0.8058    7.4977 C.3       1 RES1    0.0000
     12 H1        -3.7179    0.9258    6.8157 H         1 RES1    0.0000
     13 H2        -3.4458    0.6900    8.3755 H         1 RES1    0.0000
     14 H3        -2.4904    0.0118    7.2843 H         1 RES1    0.0000
     15 C4        -1.9415    2.8386    9.9805 C.2       1 RES1    0.0000
     16 C5        -1.4487    3.7329   10.9628 C.2       1 RES1    0.0000
     17 H4        -0.8616    4.5032   10.8682 H         1 RES1    0.0000
     18 C6        -1.9796    3.2498   12.1057 C.2       1 RES1    0.0000
     19 C7        -1.9036    3.6499   13.5390 C.2       1 RES1    0.0000
     20 C8        -0.9431    5.1933   15.0230 C.3       1 RES1    0.0000
     21 H5        -0.4335    4.5371   15.5422 H         1 RES1    0.0000
     22 H6        -1.8206    5.3276   15.4366 H         1 RES1    0.0000
     23 H7        -0.4562    6.0438   15.0043 H         1 RES1    0.0000
     24 O6        -1.6015    0.2735   -1.0592 O.2       2 RES2   -1.0000
     25 O7        -1.5554    0.6588    1.2010 O.3       2 RES2    0.0000
     26 O8         1.6909    5.2510    2.0247 O.3       2 RES2    0.0000
     27 O9         2.5001    6.7516    4.1807 O.2       2 RES2    0.0000
     28 O10        1.1519    5.5103    5.5013 O.3       2 RES2    0.0000
     29 N4        -1.1593    0.9927   -0.1504 N.pl3     2 RES2    1.0000
     30 N5        -0.9689    1.5808    2.0303 N.2       2 RES2    0.0000
     31 N6         1.1606    4.3149    1.1388 N.2       2 RES2    0.0000
     32 C9        -0.3816    2.0558   -0.1045 C.2       2 RES2    0.0000
     33 C10       -0.2804    2.3963    1.2661 C.2       2 RES2    0.0000
     34 C11        0.1833    2.6408   -1.3519 C.3       2 RES2    0.0000
     35 H8         0.3778    3.5905   -1.2089 H         2 RES2    0.0000
     36 H9        -0.4662    2.5469   -2.0801 H         2 RES2    0.0000
     37 H10        1.0105    2.1701   -1.5884 H         2 RES2    0.0000
     38 C12        0.4507    3.5011    1.8810 C.2       2 RES2    0.0000
     39 C13        0.4826    3.8456    3.2572 C.2       2 RES2    0.0000
     40 H11        0.0352    3.4074    3.9931 H         2 RES2    0.0000
     41 C14        1.2624    4.9407    3.2781 C.2       2 RES2    0.0000
     42 C15        1.7198    5.8524    4.3550 C.2       2 RES2    0.0000
     43 C16        1.5377    6.3012    6.6551 C.3       2 RES2    0.0000
     44 H12        1.2514    7.2293    6.5253 H         2 RES2    0.0000
     45 H13        2.5120    6.2719    6.7596 H         2 RES2    0.0000
     46 H14        1.1118    5.9374    7.4581 H         2 RES2    0.0000
@<TRIPOS>BOND
     1    1    6 1
     2    2    6 1
     3    3    8 1
     4    4   19 2
     5    5   19 1
     6    6    9 2
     7    7    2 1
     8    8   15 2
     9    9   10 1
    10   10    7 2
    11   11    9 1
    12   12   11 1
    13   13   11 1
    14   14   11 1
    15   15   10 1
    16   16   15 1
    17   17   16 1
    18   18    3 1
    19   19   18 1
    20   20    5 1
    21   21   20 1
    22   22   20 1
    23   23   20 1
    24   24   29 1
    25   25   29 1
    26   26   31 1
    27   27   42 2
    28   28   42 1
    29   29   32 2
    30   30   25 1
    31   31   38 2
    32   32   33 1
    33   33   30 2
    34   34   32 1
    35   35   34 1
    36   36   34 1
    37   37   34 1
    38   38   33 1
    39   39   38 1
    40   40   39 1
    41   41   26 1
    42   42   41 1
    43   43   28 1
    44   44   43 1
    45   45   43 1
    46   46   43 1
    47   16   18 2
    48   39   41 2
@<TRIPOS>SUBSTRUCTURE
     1 RES1 1
     2 RES2 24

@<TRIPOS>CRYSIN
   8.1539   11.1458   12.0169 107.1960  98.5080 111.1810   2 1

