# MOL2 file generated by ConQuest
# Please check atom types

@<TRIPOS>MOLECULE
FEPMUJ
   180   188     4
SMALL
NO_CHARGES
****
Generated from CSD

@<TRIPOS>ATOM
      1 O1         6.0791   -1.9026  -16.3494 O.2       1 RES1    0.0000
      2 O2         9.2302   -1.6021  -16.7800 O.3       1 RES1    0.0000
      3 O3        10.4083   -2.2552  -14.9744 O.2       1 RES1    0.0000
      4 O4         6.2496   -5.9748  -16.4031 O.2       1 RES1    0.0000
      5 O5         8.1630   -6.5297  -17.2387 O.2       1 RES1    0.0000
      6 N1         7.4069   -5.7136  -16.7421 N.pl3     1 RES1    0.0000
      7 C1         7.9775   -1.9673  -13.4222 C.3       1 RES1    0.0000
      8 C2         7.6109   -3.8515  -15.1115 C.3       1 RES1    0.0000
      9 C3         8.2562   -4.7958  -14.1022 C.ar      1 RES1    0.0000
     10 C4         6.9915    0.0023  -15.2906 C.ar      1 RES1    0.0000
     11 C5         6.3757    0.9016  -16.1679 C.ar      1 RES1    0.0000
     12 C6         6.9223   -1.4530  -15.6050 C.2       1 RES1    0.0000
     13 C7         7.5193   -5.2293  -13.0194 C.ar      1 RES1    0.0000
     14 C8         6.3836    2.2690  -15.9006 C.ar      1 RES1    0.0000
     15 C9         7.9814   -2.3372  -14.9218 C.3       1 RES1    0.0000
     16 C10        6.9833    2.7279  -14.7459 C.ar      1 RES1    0.0000
     17 C11        7.6299    0.4589  -14.1161 C.ar      1 RES1    0.0000
     18 C12        7.6014    1.8321  -13.8590 C.ar      1 RES1    0.0000
     19 C13        8.0657   -6.0719  -12.0657 C.ar      1 RES1    0.0000
     20 C14       10.1122   -6.1182  -13.2904 C.ar      1 RES1    0.0000
     21 C15        9.3627   -2.0552  -15.5229 C.2       1 RES1    0.0000
     22 C16        9.5635   -5.2559  -14.2388 C.ar      1 RES1    0.0000
     23 C17        9.3832   -6.5204  -12.1902 C.ar      1 RES1    0.0000
     24 C18       10.4683   -1.3605  -17.4980 C.3       1 RES1    0.0000
     25 C19        7.8911   -4.3104  -16.5539 C.3       1 RES1    0.0000
     26 C20        8.3252   -0.4878  -13.1808 C.3       1 RES1    0.0000
     27 H1         5.9531    0.5768  -16.9548 H         1 RES1    0.0000
     28 H2         6.6190   -4.9426  -12.9213 H         1 RES1    0.0000
     29 H3         5.9723    2.8759  -16.5031 H         1 RES1    0.0000
     30 H4         6.9833    3.6584  -14.5518 H         1 RES1    0.0000
     31 H5         8.0047    2.1615  -13.0656 H         1 RES1    0.0000
     32 H6         7.5437   -6.3563  -11.3255 H         1 RES1    0.0000
     33 H7        11.0022   -6.4337  -13.3997 H         1 RES1    0.0000
     34 H8        10.0866   -4.9738  -14.9795 H         1 RES1    0.0000
     35 H9         9.7671   -7.0891  -11.5340 H         1 RES1    0.0000
     36 H10        7.1135   -2.1384  -13.0683 H         1 RES1    0.0000
     37 H11        8.6173   -2.5071  -12.9721 H         1 RES1    0.0000
     38 H12        8.0749   -0.2635  -12.2931 H         1 RES1    0.0000
     39 H13        9.2642   -0.3803  -13.2821 H         1 RES1    0.0000
     40 H14        6.6720   -3.9173  -14.9822 H         1 RES1    0.0000
     41 H15        8.8244   -4.2722  -16.7276 H         1 RES1    0.0000
     42 H16        7.4343   -3.7370  -17.1580 H         1 RES1    0.0000
     43 H17       10.7479   -0.4635  -17.3504 H         1 RES1    0.0000
     44 H18       10.3231   -1.4992  -18.4250 H         1 RES1    0.0000
     45 H19       11.1366   -1.9569  -17.1820 H         1 RES1    0.0000
     46 O6        11.6697   -8.6600  -20.5912 O.2       2 RES2    0.0000
     47 O7        10.8070   -8.9790  -17.4424 O.3       2 RES2    0.0000
     48 O8         9.9824   -4.1624  -19.1967 O.2       2 RES2    0.0000
     49 O9        12.3149   -8.0069  -16.1131 O.2       2 RES2    0.0000
     50 O10       11.4538   -4.6375  -20.6909 O.2       2 RES2    0.0000
     51 N2        10.7919   -4.9218  -19.6802 N.pl3     2 RES2    0.0000
     52 C21       12.3093   -9.0380  -19.6081 C.2       2 RES2    0.0000
     53 C22       13.2091   -5.5483  -18.1203 C.ar      2 RES2    0.0000
     54 C23       14.4846   -5.0952  -18.5028 C.ar      2 RES2    0.0000
     55 C24       15.1811   -4.1751  -17.7343 C.ar      2 RES2    0.0000
     56 C25       13.7947  -10.7973  -18.6305 C.ar      2 RES2    0.0000
     57 C26       12.6540   -5.0178  -16.9463 C.ar      2 RES2    0.0000
     58 C27       14.1880  -12.1520  -18.5894 C.ar      2 RES2    0.0000
     59 C28       13.5460  -13.1033  -19.3637 C.ar      2 RES2    0.0000
     60 C29       12.7295   -8.0670  -18.4830 C.3       2 RES2    0.0000
     61 C30       14.5976   -3.6688  -16.5755 C.ar      2 RES2    0.0000
     62 C31       11.9334   -8.3456  -17.1986 C.2       2 RES2    0.0000
     63 C32       12.4899   -6.5782  -18.9615 C.3       2 RES2    0.0000
     64 C33       14.2265   -8.3387  -18.2352 C.3       2 RES2    0.0000
     65 C34       12.7458  -10.4540  -19.4945 C.ar      2 RES2    0.0000
     66 C35       13.3380   -4.0630  -16.1994 C.ar      2 RES2    0.0000
     67 C36       12.1220  -11.4006  -20.2937 C.ar      2 RES2    0.0000
     68 C37       10.9951   -6.2731  -19.0598 C.3       2 RES2    0.0000
     69 C38       14.4798   -9.7801  -17.7771 C.3       2 RES2    0.0000
     70 C39       12.5255  -12.7426  -20.2319 C.ar      2 RES2    0.0000
     71 C40        9.9825   -9.2495  -16.2786 C.3       2 RES2    0.0000
     72 H20       14.8748   -5.4258  -19.3044 H         2 RES2    0.0000
     73 H21       16.0519   -3.8989  -17.9946 H         2 RES2    0.0000
     74 H22       11.7923   -5.3067  -16.6688 H         2 RES2    0.0000
     75 H23       14.9039  -12.4132  -18.0214 H         2 RES2    0.0000
     76 H24       13.8131  -14.0141  -19.3071 H         2 RES2    0.0000
     77 H25       15.0703   -3.0377  -16.0460 H         2 RES2    0.0000
     78 H26       12.9319   -3.6943  -15.4232 H         2 RES2    0.0000
     79 H27       11.4266  -11.1429  -20.8868 H         2 RES2    0.0000
     80 H28       12.0972  -13.3980  -20.7692 H         2 RES2    0.0000
     81 H29       14.7121   -8.1815  -19.0371 H         2 RES2    0.0000
     82 H30       14.5309   -7.7445  -17.5589 H         2 RES2    0.0000
     83 H31       10.6163   -6.2765  -18.1898 H         2 RES2    0.0000
     84 H32       10.5679   -6.9331  -19.5931 H         2 RES2    0.0000
     85 H33       14.1669   -9.8725  -16.8853 H         2 RES2    0.0000
     86 H34       15.4142   -9.9442  -17.8022 H         2 RES2    0.0000
     87 H35       10.2188  -10.0968  -15.9204 H         2 RES2    0.0000
     88 H36        9.0675   -9.2553  -16.5352 H         2 RES2    0.0000
     89 H37       10.1278   -8.5768  -15.6237 H         2 RES2    0.0000
     90 H38       12.8448   -6.5100  -19.8390 H         2 RES2    0.0000
     91 O11       14.8340  -12.0110  -23.0546 O.3       3 RES3    0.0000
     92 O12       11.6105  -11.5648  -23.5841 O.2       3 RES3    0.0000
     93 O13       12.3186   -7.3770  -23.3481 O.2       3 RES3    0.0000
     94 O14       14.0562   -7.3088  -22.0429 O.2       3 RES3    0.0000
     95 O15       16.0066  -11.3671  -24.8538 O.2       3 RES3    0.0000
     96 N3        13.3153   -7.8775  -22.8435 N.pl3     3 RES3    0.0000
     97 C41       13.2864   -9.6471  -24.6250 C.3       3 RES3    0.0000
     98 C42       13.9483   -8.6935  -25.6162 C.ar      3 RES3    0.0000
     99 C43       13.6064  -11.5070  -26.4042 C.3       3 RES3    0.0000
    100 C44       11.8881  -15.7457  -24.0631 C.ar      3 RES3    0.0000
    101 C45       13.2481  -13.9378  -25.7167 C.ar      3 RES3    0.0000
    102 C46       15.8241   -7.3758  -26.4018 C.ar      3 RES3    0.0000
    103 C47       13.6093  -11.1695  -24.9001 C.3       3 RES3    0.0000
    104 C48       12.5384  -13.4813  -24.6245 C.ar      3 RES3    0.0000
    105 C49       11.8345  -14.3817  -23.8065 C.ar      3 RES3    0.0000
    106 C50       12.6250  -16.1953  -25.1425 C.ar      3 RES3    0.0000
    107 C51       13.1746   -8.1780  -26.6554 C.ar      3 RES3    0.0000
    108 C52       14.9640  -11.5382  -24.2941 C.2       3 RES3    0.0000
    109 C53       13.3039  -15.3053  -25.9738 C.ar      3 RES3    0.0000
    110 C54       15.0572   -6.8730  -27.4434 C.ar      3 RES3    0.0000
    111 C55       15.2645   -8.2658  -25.4849 C.ar      3 RES3    0.0000
    112 C56       13.6269   -9.3050  -23.1792 C.3       3 RES3    0.0000
    113 C57       13.9612  -12.9854  -26.6477 C.3       3 RES3    0.0000
    114 C58       12.4951  -12.0341  -24.2740 C.2       3 RES3    0.0000
    115 C59       16.0796  -12.2814  -22.3385 C.3       3 RES3    0.0000
    116 C60       13.7285   -7.2868  -27.5709 C.ar      3 RES3    0.0000
    117 H39       11.4207  -16.3583  -23.5090 H         3 RES3    0.0000
    118 H40       16.7266   -7.0949  -26.2996 H         3 RES3    0.0000
    119 H41       11.3307  -14.0581  -23.0680 H         3 RES3    0.0000
    120 H42       12.6717  -17.1270  -25.3240 H         3 RES3    0.0000
    121 H43       12.2641   -8.4358  -26.7434 H         3 RES3    0.0000
    122 H44       13.8055  -15.6347  -26.7113 H         3 RES3    0.0000
    123 H45       15.4360   -6.2719  -28.0745 H         3 RES3    0.0000
    124 H46       15.7963   -8.5976  -24.7707 H         3 RES3    0.0000
    125 H47       13.1967   -6.9516  -28.2830 H         3 RES3    0.0000
    126 H48       12.7438  -11.3348  -26.7621 H         3 RES3    0.0000
    127 H49       14.2454  -10.9568  -26.8423 H         3 RES3    0.0000
    128 H50       14.5555   -9.4506  -23.0386 H         3 RES3    0.0000
    129 H51       13.1277   -9.8725  -22.6029 H         3 RES3    0.0000
    130 H52       13.7284  -13.2027  -27.5426 H         3 RES3    0.0000
    131 H53       14.8978  -13.0917  -26.5295 H         3 RES3    0.0000
    132 H54       12.3464   -9.5396  -24.7172 H         3 RES3    0.0000
    133 H55       16.3536  -13.1761  -22.5013 H         3 RES3    0.0000
    134 H56       15.9474  -12.1543  -21.4054 H         3 RES3    0.0000
    135 H57       16.7515  -11.6838  -22.6457 H         3 RES3    0.0000
    136 O16        6.6417   -4.6571  -19.3547 O.2       4 RES4    0.0000
    137 O17        4.7636   -4.4109  -21.7809 O.3       4 RES4    0.0000
    138 O18        5.1632   -9.4530  -20.3870 O.2       4 RES4    0.0000
    139 O19        6.9281   -8.8299  -19.3004 O.2       4 RES4    0.0000
    140 O20        5.5485   -5.4362  -23.6168 O.2       4 RES4    0.0000
    141 N4         5.9713   -8.6161  -20.0376 N.pl3     4 RES4    0.0000
    142 C61        6.9399   -4.2618  -20.4626 C.2       4 RES4    0.0000
    143 C62        7.3298   -2.8412  -20.6834 C.ar      4 RES4    0.0000
    144 C63        6.9892   -5.2328  -21.6647 C.3       4 RES4    0.0000
    145 C64        9.4892   -9.0449  -23.0054 C.ar      4 RES4    0.0000
    146 C65        7.6305   -7.6983  -22.1864 C.ar      4 RES4    0.0000
    147 C66        7.1186   -6.7169  -21.1448 C.3       4 RES4    0.0000
    148 C67        7.3117   -9.2911  -23.9832 C.ar      4 RES4    0.0000
    149 C68        7.4978   -0.6057  -19.7936 C.ar      4 RES4    0.0000
    150 C69        7.0942   -1.9176  -19.6642 C.ar      4 RES4    0.0000
    151 C70        8.1807   -4.8629  -22.5460 C.3       4 RES4    0.0000
    152 C71        8.9820   -8.0809  -22.1282 C.ar      4 RES4    0.0000
    153 C72        8.1366   -3.3995  -23.0164 C.3       4 RES4    0.0000
    154 C73        7.9464   -2.4517  -21.8868 C.ar      4 RES4    0.0000
    155 C74        8.6427   -9.6529  -23.9121 C.ar      4 RES4    0.0000
    156 C75        6.8010   -8.3063  -23.1094 C.ar      4 RES4    0.0000
    157 C76        5.7050   -5.0501  -22.4928 C.2       4 RES4    0.0000
    158 C77        8.1325   -0.1930  -20.9780 C.ar      4 RES4    0.0000
    159 C78        3.5066   -4.1555  -22.4647 C.3       4 RES4    0.0000
    160 C79        8.3670   -1.1201  -21.9913 C.ar      4 RES4    0.0000
    161 C80        5.8066   -7.2163  -20.5268 C.3       4 RES4    0.0000
    162 H58       10.4065   -9.2888  -22.9637 H         4 RES4    0.0000
    163 H59        6.7344   -9.7015  -24.6157 H         4 RES4    0.0000
    164 H60        7.3418    0.0173  -19.0932 H         4 RES4    0.0000
    165 H61        6.6608   -2.1974  -18.8660 H         4 RES4    0.0000
    166 H62        9.5649   -7.6694  -21.5016 H         4 RES4    0.0000
    167 H63        8.9817  -10.3210  -24.4954 H         4 RES4    0.0000
    168 H64        5.8882   -8.0497  -23.1642 H         4 RES4    0.0000
    169 H65        8.4042    0.7109  -21.0846 H         4 RES4    0.0000
    170 H66        8.8219   -0.8392  -22.7766 H         4 RES4    0.0000
    171 H67        8.9797   -4.9946  -22.0496 H         4 RES4    0.0000
    172 H68        8.1844   -5.4293  -23.3086 H         4 RES4    0.0000
    173 H69        8.9506   -3.1914  -23.4609 H         4 RES4    0.0000
    174 H70        7.4116   -3.3013  -23.6213 H         4 RES4    0.0000
    175 H71        5.1180   -7.1978  -21.1809 H         4 RES4    0.0000
    176 H72        5.5711   -6.6510  -19.8016 H         4 RES4    0.0000
    177 H73        7.7594   -6.7008  -20.4431 H         4 RES4    0.0000
    178 H74        3.5488   -3.3186  -22.9103 H         4 RES4    0.0000
    179 H75        2.7959   -4.1439  -21.8331 H         4 RES4    0.0000
    180 H76        3.3568   -4.8455  -23.1001 H         4 RES4    0.0000
@<TRIPOS>BOND
     1    1   12 2
     2    2   21 1
     3    3   21 2
     4    4    6 2
     5    5    6 2
     6    6   25 1
     7    7   15 1
     8    8    9 1
     9    9   13 ar
    10   10   11 ar
    11   11   14 ar
    12   12   10 1
    13   13   19 ar
    14   14   16 ar
    15   15    8 1
    16   16   18 ar
    17   17   10 ar
    18   18   17 ar
    19   19   23 ar
    20   20   22 ar
    21   21   15 1
    22   22    9 ar
    23   23   20 ar
    24   24    2 1
    25   25    8 1
    26   26    7 1
    27   27   11 1
    28   28   13 1
    29   29   14 1
    30   30   16 1
    31   31   18 1
    32   32   19 1
    33   33   20 1
    34   34   22 1
    35   35   23 1
    36   36    7 1
    37   37    7 1
    38   38   26 1
    39   39   26 1
    40   40    8 1
    41   41   25 1
    42   42   25 1
    43   43   24 1
    44   44   24 1
    45   45   24 1
    46   46   52 2
    47   47   62 1
    48   48   51 2
    49   49   62 2
    50   50   51 2
    51   51   68 1
    52   52   60 1
    53   53   54 ar
    54   54   55 ar
    55   55   61 ar
    56   56   58 ar
    57   57   53 ar
    58   58   59 ar
    59   59   70 ar
    60   60   62 1
    61   61   66 ar
    62   63   53 1
    63   64   60 1
    64   65   52 1
    65   66   57 ar
    66   67   65 ar
    67   68   63 1
    68   69   56 1
    69   70   67 ar
    70   71   47 1
    71   72   54 1
    72   73   55 1
    73   74   57 1
    74   75   58 1
    75   76   59 1
    76   77   61 1
    77   78   66 1
    78   79   67 1
    79   80   70 1
    80   81   64 1
    81   82   64 1
    82   83   68 1
    83   84   68 1
    84   85   69 1
    85   86   69 1
    86   87   71 1
    87   88   71 1
    88   89   71 1
    89   90   63 1
    90   91  108 1
    91   92  114 2
    92   93   96 2
    93   94   96 2
    94   95  108 2
    95   96  112 1
    96   97   98 1
    97   98  107 ar
    98   99  103 1
    99  100  105 ar
   100  101  104 ar
   101  102  110 ar
   102  103   97 1
   103  104  105 ar
   104  105  119 1
   105  106  100 ar
   106  107  116 ar
   107  108  103 1
   108  109  101 ar
   109  110  116 ar
   110  111   98 ar
   111  112   97 1
   112  113   99 1
   113  114  103 1
   114  115   91 1
   115  116  125 1
   116  117  100 1
   117  118  102 1
   118  120  106 1
   119  121  107 1
   120  122  109 1
   121  123  110 1
   122  124  111 1
   123  126   99 1
   124  127   99 1
   125  128  112 1
   126  129  112 1
   127  130  113 1
   128  131  113 1
   129  132   97 1
   130  133  115 1
   131  134  115 1
   132  135  115 1
   133  136  142 2
   134  137  157 1
   135  138  141 2
   136  139  141 2
   137  140  157 2
   138  141  161 1
   139  142  143 1
   140  143  150 ar
   141  144  142 1
   142  145  152 ar
   143  146  147 1
   144  147  144 1
   145  148  155 ar
   146  149  150 ar
   147  150  165 1
   148  151  144 1
   149  152  146 ar
   150  153  151 1
   151  154  143 ar
   152  155  145 ar
   153  156  146 ar
   154  157  144 1
   155  158  149 ar
   156  159  137 1
   157  160  154 ar
   158  161  147 1
   159  162  145 1
   160  163  148 1
   161  164  149 1
   162  166  152 1
   163  167  155 1
   164  168  156 1
   165  169  158 1
   166  170  160 1
   167  171  151 1
   168  172  151 1
   169  173  153 1
   170  174  153 1
   171  175  161 1
   172  176  161 1
   173  177  147 1
   174  178  159 1
   175  179  159 1
   176  180  159 1
   177   12   15 1
   178   17   26 1
   179   56   65 ar
   180   60   63 1
   181   64   69 1
   182  101  113 1
   183  102  111 ar
   184  104  114 1
   185  106  109 ar
   186  148  156 ar
   187  153  154 1
   188  158  160 ar
@<TRIPOS>SUBSTRUCTURE
     1 RES1 1
     2 RES2 46
     3 RES3 91
     4 RES4 136

@<TRIPOS>CRYSIN
  11.3670   11.5590   26.7300  90.0000  90.0200  90.0000   4 1

