# MOL2 file generated by ConQuest
# Please check atom types

@<TRIPOS>MOLECULE
FEPMOD
    41    42     1
SMALL
NO_CHARGES
****
Generated from CSD

@<TRIPOS>ATOM
      1 O1         5.9868   -0.6956   -0.7664 O.2       1 RES1    0.0000
      2 O2         4.8709    1.0506   -1.6260 O.3       1 RES1    0.0000
      3 O3         3.6873    2.5783    3.3628 O.2       1 RES1    0.0000
      4 O4         5.9208    3.8756    0.0352 O.2       1 RES1    0.0000
      5 O5         2.0665    1.5116    2.4039 O.2       1 RES1    0.0000
      6 N1         3.1891    1.9970    2.4035 N.pl3     1 RES1    0.0000
      7 C1         5.5760    0.3828    2.4010 C.ar      1 RES1    0.0000
      8 C2         6.3355    1.5077    0.1864 C.3       1 RES1    0.0000
      9 C3         3.9993    1.8836    1.1427 C.3       1 RES1    0.0000
     10 C4         4.7353   -0.7225    2.2739 C.ar      1 RES1    0.0000
     11 C5         5.4591    1.5892    1.4843 C.3       1 RES1    0.0000
     12 C6         7.7767    1.0810    0.5370 C.3       1 RES1    0.0000
     13 C7         6.5645   -0.6663    4.3533 C.ar      1 RES1    0.0000
     14 C8         6.4902    0.3898    3.4558 C.ar      1 RES1    0.0000
     15 C9         6.4435    2.9070   -0.4643 C.2       1 RES1    0.0000
     16 C10        4.7764   -1.7616    3.1902 C.ar      1 RES1    0.0000
     17 C11        8.7621    2.5344   -1.2710 C.3       1 RES1    0.0000
     18 C12        5.7418    0.4790   -0.7781 C.2       1 RES1    0.0000
     19 C13        7.3554    2.9988   -1.6723 C.3       1 RES1    0.0000
     20 C14        5.6856   -1.7348    4.2339 C.ar      1 RES1    0.0000
     21 C15        8.7122    1.1386   -0.6719 C.3       1 RES1    0.0000
     22 C16        4.2460    0.1461   -2.5722 C.3       1 RES1    0.0000
     23 H1         4.1650   -2.5210    3.1795 H         1 RES1    0.0000
     24 H2         5.7437   -2.4619    4.8952 H         1 RES1    0.0000
     25 H3         7.2562   -0.6422    5.0815 H         1 RES1    0.0000
     26 H4         4.0870   -0.7482    1.5375 H         1 RES1    0.0000
     27 H5         7.0869    1.2009    3.6062 H         1 RES1    0.0000
     28 H6         7.7674    0.1093    0.9130 H         1 RES1    0.0000
     29 H7         8.1024    1.6658    1.2318 H         1 RES1    0.0000
     30 H8         8.3906    0.4761   -1.3527 H         1 RES1    0.0000
     31 H9         9.5755    0.8507   -0.3907 H         1 RES1    0.0000
     32 H10        9.1638    3.1521   -0.5934 H         1 RES1    0.0000
     33 H11        9.3225    2.5467   -2.0802 H         1 RES1    0.0000
     34 H12        7.3354    3.9281   -1.9102 H         1 RES1    0.0000
     35 H13        7.0386    2.3894   -2.4186 H         1 RES1    0.0000
     36 H14        5.8041    2.3616    1.9878 H         1 RES1    0.0000
     37 H15        3.8644    2.8009    0.7029 H         1 RES1    0.0000
     38 H16        3.5508    1.1362    0.6588 H         1 RES1    0.0000
     39 H17        3.7149   -0.6121   -2.0892 H         1 RES1    0.0000
     40 H18        4.9621   -0.2832   -3.1043 H         1 RES1    0.0000
     41 H19        3.6334    0.6623   -3.1893 H         1 RES1    0.0000
@<TRIPOS>BOND
     1    1   18 2
     2    2   18 1
     3    3    6 2
     4    4   15 2
     5    5    6 2
     6    6    9 1
     7    7   10 ar
     8    8   11 1
     9    9   11 1
    10   10   16 ar
    11   11    7 1
    12   12    8 1
    13   13   14 ar
    14   14    7 ar
    15   15    8 1
    16   16   20 ar
    17   17   19 1
    18   18    8 1
    19   19   15 1
    20   20   13 ar
    21   21   12 1
    22   22    2 1
    23   23   16 1
    24   24   20 1
    25   25   13 1
    26   26   10 1
    27   27   14 1
    28   28   12 1
    29   29   12 1
    30   30   21 1
    31   31   21 1
    32   32   17 1
    33   33   17 1
    34   34   19 1
    35   35   19 1
    36   36   11 1
    37   37    9 1
    38   38    9 1
    39   39   22 1
    40   40   22 1
    41   41   22 1
    42   17   21 1
@<TRIPOS>SUBSTRUCTURE
     1 RES1 1

@<TRIPOS>CRYSIN
   8.3400   11.1500    8.5380  90.0000 106.8000  90.0000   4 1

