# MOL2 file generated by ConQuest
# Please check atom types

@<TRIPOS>MOLECULE
FEPXEF
    45    47     1
SMALL
NO_CHARGES
****
Generated from CSD

@<TRIPOS>ATOM
      1 C1         4.5519    5.3514    4.8740 C.ar      1 RES1    0.0000
      2 H1         5.1584    5.7469    5.4883 H         1 RES1    0.0000
      3 C2         4.3379    3.9716    4.8983 C.ar      1 RES1    0.0000
      4 H2         4.7972    3.4327    5.5312 H         1 RES1    0.0000
      5 C3         3.4570    3.3856    4.0018 C.ar      1 RES1    0.0000
      6 H3         3.3216    2.4451    4.0126 H         1 RES1    0.0000
      7 C4         2.7711    4.1779    3.0859 C.ar      1 RES1    0.0000
      8 H4         2.1606    3.7786    2.4764 H         1 RES1    0.0000
      9 C5         2.9780    5.5534    3.0613 C.ar      1 RES1    0.0000
     10 H5         2.5052    6.0910    2.4364 H         1 RES1    0.0000
     11 C6         3.8788    6.1509    3.9514 C.ar      1 RES1    0.0000
     12 C7         4.0538    7.6493    3.8853 C.3       1 RES1    0.0000
     13 H6         3.1709    8.0879    4.0516 H         1 RES1    0.0000
     14 C8         5.0863    8.2382    4.8322 C.3       1 RES1    0.0000
     15 H7         5.9605    7.7965    4.6905 H         1 RES1    0.0000
     16 H8         4.8088    8.0823    5.7692 H         1 RES1    0.0000
     17 C9         5.2175    9.7390    4.5752 C.3       1 RES1    0.0000
     18 H9         4.3883   10.1951    4.8651 H         1 RES1    0.0000
     19 H10        5.9678   10.0989    5.1109 H         1 RES1    0.0000
     20 C10        5.4644   10.0294    3.1032 C.3       1 RES1    0.0000
     21 H11        5.3750   11.0120    2.9387 H         1 RES1    0.0000
     22 C11        7.2255   10.0882    1.5209 C.3       1 RES1    0.0000
     23 H12        6.6636    9.7057    0.8144 H         1 RES1    0.0000
     24 H13        8.1557    9.8125    1.3831 H         1 RES1    0.0000
     25 H14        7.1668   11.0664    1.4923 H         1 RES1    0.0000
     26 C12        3.2915    9.8243    1.8438 C.2       1 RES1    0.0000
     27 C13        2.2840   11.8715    1.1688 C.3       1 RES1    0.0000
     28 H15        1.4306   11.7497    1.6552 H         1 RES1    0.0000
     29 H16        2.1755   11.5310    0.2458 H         1 RES1    0.0000
     30 C14        2.6809   13.3204    1.1534 C.ar      1 RES1    0.0000
     31 C15        1.9372   14.2833    1.8266 C.ar      1 RES1    0.0000
     32 H17        1.1521   14.0312    2.2979 H         1 RES1    0.0000
     33 C16        2.3399   15.6160    1.8124 C.ar      1 RES1    0.0000
     34 H18        1.8236   16.2722    2.2667 H         1 RES1    0.0000
     35 C17        3.4899   15.9875    1.1386 C.ar      1 RES1    0.0000
     36 H19        3.7755   16.8934    1.1470 H         1 RES1    0.0000
     37 C18        4.2260   15.0285    0.4492 C.ar      1 RES1    0.0000
     38 H20        5.0099   15.2817   -0.0244 H         1 RES1    0.0000
     39 C19        3.8179   13.7069    0.4527 C.ar      1 RES1    0.0000
     40 H21        4.3188   13.0580   -0.0273 H         1 RES1    0.0000
     41 N1         4.4952    9.3045    2.2692 N.am      1 RES1    0.0000
     42 O1         4.4689    7.9198    2.5046 O.3       1 RES1    0.0000
     43 O2         6.7742    9.6213    2.7939 O.3       1 RES1    0.0000
     44 O3         3.3639   11.1726    1.8487 O.3       1 RES1    0.0000
     45 O4         2.3394    9.1772    1.4783 O.2       1 RES1    0.0000
@<TRIPOS>BOND
     1    1    2 1
     2    3    1 ar
     3    4    3 1
     4    5    3 ar
     5    6    5 1
     6    7    5 ar
     7    8    7 1
     8    9    7 ar
     9   10    9 1
    10   11    1 ar
    11   12   11 1
    12   13   12 1
    13   14   12 1
    14   15   14 1
    15   16   14 1
    16   17   14 1
    17   18   17 1
    18   19   17 1
    19   20   17 1
    20   21   20 1
    21   22   23 1
    22   24   22 1
    23   25   22 1
    24   26   41 1
    25   27   28 1
    26   29   27 1
    27   30   27 1
    28   31   30 ar
    29   32   31 1
    30   33   31 ar
    31   34   33 1
    32   35   33 ar
    33   36   35 1
    34   37   35 ar
    35   38   37 1
    36   39   30 ar
    37   40   39 1
    38   41   20 1
    39   42   12 1
    40   43   20 1
    41   44   26 1
    42   45   26 2
    43    9   11 ar
    44   22   43 1
    45   27   44 1
    46   37   39 ar
    47   41   42 1
@<TRIPOS>SUBSTRUCTURE
     1 RES1 1

@<TRIPOS>CRYSIN
   8.7455   10.3654   10.5100  68.3410  84.6090  67.6090   2 1

