# MOL2 file generated by ConQuest
# Please check atom types

@<TRIPOS>MOLECULE
FEPYEG
    29    27     2
SMALL
NO_CHARGES
****
Generated from CSD

@<TRIPOS>ATOM
      1 C1         2.2010   13.1350    0.9662 C.2       1 RES1    0.0000
      2 H1         2.4836   13.4732    1.8079 H         1 RES1    0.0000
      3 N1         1.9097   13.8762   -0.1492 N.3       1 RES1    0.0000
      4 C2         1.5349   13.0882   -1.1826 C.2       1 RES1    0.0000
      5 H2         1.2881   13.3829   -2.0516 H         1 RES1    0.0000
      6 C3         1.2764   10.5560   -1.4185 C.2       1 RES1    0.0000
      7 C4         1.4130    9.3998   -0.6575 C.2       1 RES1    0.0000
      8 C5         1.8716    9.3935    0.6840 C.2       1 RES1    0.0000
      9 H3         1.9755    8.5701    1.1464 H         1 RES1    0.0000
     10 C6         2.1609   10.5639    1.3085 C.2       1 RES1    0.0000
     11 C7         2.0086   11.8097    0.6414 C.2       1 RES1    0.0000
     12 C8         1.5768   11.7606   -0.7411 C.2       1 RES1    0.0000
     13 C9         2.0014   15.3391   -0.1972 C.3       1 RES1    0.0000
     14 H4         2.3993   15.6132   -1.0492 H         1 RES1    0.0000
     15 H5         2.5613   15.6561    0.5416 H         1 RES1    0.0000
     16 H6         1.1045   15.7249   -0.1162 H         1 RES1    0.0000
     17 C10        0.8954   10.6108   -2.8729 C.3       1 RES1    0.0000
     18 H7         1.4426    9.9742   -3.3785 H         1 RES1    0.0000
     19 H8         1.0463   11.5160   -3.2169 H         1 RES1    0.0000
     20 H9        -0.0517   10.3783   -2.9720 H         1 RES1    0.0000
     21 N2         1.1005    8.0801   -1.2014 N.pl3     1 RES1    0.0000
     22 O1         0.4796    8.0042   -2.2589 O.2       1 RES1    0.0000
     23 O2         1.4541    7.0868   -0.5693 O.2       1 RES1    0.0000
     24 N3         2.6627   10.5139    2.6745 N.pl3     1 RES1    0.0000
     25 O3         2.9024    9.4103    3.1788 O.2       1 RES1    0.0000
     26 O4         2.8449   11.5817    3.2497 O.2       1 RES1    0.0000
     27 H10        1.6439   15.7159    0.6338 Du        2 SUP2    0.0000
     28 H11        1.4819   15.6741   -0.9583 Du        2 SUP2    0.0000
     29 H12        2.9393   15.6041   -0.2992 Du        2 SUP2    0.0000
@<TRIPOS>BOND
     1    1    2 1
     2    3    1 1
     3    4    3 1
     4    5    4 1
     5    6    7 2
     6    7    8 1
     7    8    9 1
     8   10    8 2
     9   11    1 2
    10   12    4 2
    11   13    3 1
    12   14   13 1
    13   15   13 1
    14   16   13 1
    15   17    6 1
    16   18   17 1
    17   19   17 1
    18   20   17 1
    19   21    7 1
    20   22   21 2
    21   23   21 2
    22   24   10 1
    23   25   24 2
    24   26   24 2
    25    6   12 1
    26   10   11 1
    27   11   12 1
@<TRIPOS>SUBSTRUCTURE
     1 RES1 1
     2 SUP2 27

@<TRIPOS>CRYSIN
   7.0511   11.2869   12.6559  90.0000  93.9860  90.0000  14 1

