# MOL2 file generated by ConQuest
# Please check atom types

@<TRIPOS>MOLECULE
FERQAU
    36    37     1
SMALL
NO_CHARGES
****
Generated from CSD

@<TRIPOS>ATOM
      1 C1        -0.8305    1.3842    6.6447 C.2       1 RES1    0.0000
      2 N1        -0.3859    1.8123    5.3847 N.3       1 RES1    0.0000
      3 O1         0.3845    1.1742    4.6096 O.2       1 RES1    0.0000
      4 C2        -0.9033    3.1885    5.1267 C.3       1 RES1    0.0000
      5 C3        -2.1289    3.1545    6.0663 C.3       1 RES1    0.0000
      6 N2        -1.7461    2.1583    7.1199 N.2       1 RES1    0.0000
      7 C4         0.1846    4.1526    5.5882 C.3       1 RES1    0.0000
      8 C5        -1.1857    3.3725    3.6456 C.3       1 RES1    0.0000
      9 C6        -3.3719    2.5804    5.4022 C.3       1 RES1    0.0000
     10 C7        -2.4666    4.4787    6.7226 C.3       1 RES1    0.0000
     11 C8        -0.2544    0.2200    7.3419 C.ar      1 RES1    0.0000
     12 C9         1.0577   -0.2020    7.1267 C.ar      1 RES1    0.0000
     13 C10        1.5869   -1.2162    7.8882 C.ar      1 RES1    0.0000
     14 C11        0.8327   -1.8283    8.8726 C.ar      1 RES1    0.0000
     15 C12       -0.4785   -1.4442    9.0732 C.ar      1 RES1    0.0000
     16 C13       -1.0209   -0.4221    8.3049 C.ar      1 RES1    0.0000
     17 C14       -1.2780   -2.0963   10.1511 C.2       1 RES1    0.0000
     18 O2        -0.8053   -2.8652   10.9437 O.2       1 RES1    0.0000
     19 O3        -2.5534   -1.7383   10.1375 O.3       1 RES1    0.0000
     20 H1        -3.0403   -2.2283   10.8668 H         1 RES1    0.0000
     21 H2        -0.1022    5.0468    5.4422 H         1 RES1    0.0000
     22 H3         0.3535    4.0226    6.5133 H         1 RES1    0.0000
     23 H4         0.9810    3.9926    5.0955 H         1 RES1    0.0000
     24 H5        -1.5131    4.2506    3.4918 H         1 RES1    0.0000
     25 H6        -0.3842    3.2425    3.1520 H         1 RES1    0.0000
     26 H7        -1.8355    2.7384    3.3652 H         1 RES1    0.0000
     27 H8        -3.6664    3.1705    4.7187 H         1 RES1    0.0000
     28 H9        -3.1668    1.7343    5.0225 H         1 RES1    0.0000
     29 H10       -4.0586    2.4784    6.0507 H         1 RES1    0.0000
     30 H11       -2.7105    5.1088    6.0546 H         1 RES1    0.0000
     31 H12       -3.1941    4.3567    7.3224 H         1 RES1    0.0000
     32 H13       -1.7119    4.7967    7.1997 H         1 RES1    0.0000
     33 H14        1.5858    0.2120    6.4539 H         1 RES1    0.0000
     34 H15        2.4799   -1.5022    7.7353 H         1 RES1    0.0000
     35 H16        1.2163   -2.5104    9.4111 H         1 RES1    0.0000
     36 H17       -1.9253   -0.1620    8.4383 H         1 RES1    0.0000
@<TRIPOS>BOND
     1    1    2 1
     2    2    3 1
     3    4    2 1
     4    5    4 1
     5    6    1 2
     6    7    4 1
     7    8    4 1
     8    9    5 1
     9   10    5 1
    10   11    1 1
    11   12   11 ar
    12   13   12 ar
    13   14   13 ar
    14   15   14 ar
    15   16   11 ar
    16   17   15 1
    17   18   17 2
    18   19   17 1
    19   20   19 1
    20   21    7 1
    21   22    7 1
    22   23    7 1
    23   24    8 1
    24   25    8 1
    25   26    8 1
    26   27    9 1
    27   28    9 1
    28   29    9 1
    29   30   10 1
    30   31   10 1
    31   32   10 1
    32   33   12 1
    33   34   13 1
    34   35   14 1
    35   36   16 1
    36    5    6 1
    37   15   16 ar
@<TRIPOS>SUBSTRUCTURE
     1 RES1 1

@<TRIPOS>CRYSIN
   6.9160   20.0030   10.1650  90.0000 106.6800  90.0000 231 1

