# MOL2 file generated by ConQuest
# Please check atom types

@<TRIPOS>MOLECULE
FERQEY
    72    74     2
SMALL
USER_CHARGES
****
Generated from CSD

@<TRIPOS>ATOM
      1 C1         3.9933    1.0449    8.8260 C.2       1 RES1    0.0000
      2 N1         4.5541    1.2077    7.6447 N.pl3     1 RES1    1.0000
      3 O1         5.0847    2.3140    7.2156 O.2       1 RES1   -1.0000
      4 C2         4.3577    0.0292    6.7387 C.3       1 RES1    0.0000
      5 C3         3.9677   -1.0718    7.7795 C.3       1 RES1    0.0000
      6 N2         3.5121   -0.2096    8.9261 N.3       1 RES1    0.0000
      7 O2         2.8797   -0.6787    9.9262 O.2       1 RES1    0.0000
      8 C4         5.6350   -0.2380    5.9662 C.3       1 RES1    0.0000
      9 C5         3.2287    0.4177    5.7864 C.3       1 RES1    0.0000
     10 C6         5.1597   -1.8603    8.2970 C.3       1 RES1    0.0000
     11 C7         2.8449   -1.9892    7.3591 C.3       1 RES1    0.0000
     12 C8         4.0189    2.0438    9.9059 C.ar      1 RES1    0.0000
     13 C9         2.8950    2.7777   10.2973 C.ar      1 RES1    0.0000
     14 C10        3.0234    3.7151   11.3163 C.ar      1 RES1    0.0000
     15 C11        4.2347    3.9201   11.9280 C.ar      1 RES1    0.0000
     16 C12        5.3300    3.1693   11.5714 C.ar      1 RES1    0.0000
     17 C13        5.2274    2.2380   10.5596 C.ar      1 RES1    0.0000
     18 C14        1.5861    2.5604    9.6059 C.2       1 RES1    0.0000
     19 O3         1.4702    2.0737    8.5202 O.co2     1 RES1    0.0000
     20 O4         0.5573    2.9566   10.3408 O.co2     1 RES1    0.0000
     21 C15        9.8447    0.8315   10.5046 C.2       2 RES2    0.0000
     22 N3        10.1291   -0.4576   10.3973 N.pl3     2 RES2    1.0000
     23 O5        10.8573   -0.9866    9.4609 O.2       2 RES2   -1.0000
     24 C16        9.3524   -1.3036   11.3569 C.3       2 RES2    0.0000
     25 C17        8.9018   -0.2288   12.3875 C.3       2 RES2    0.0000
     26 N4         9.0511    1.0219   11.5743 N.3       2 RES2    0.0000
     27 O6         8.5680    2.1459   11.9352 O.2       2 RES2    0.0000
     28 C18       10.2320   -2.4092   11.8888 C.3       2 RES2    0.0000
     29 C19        8.2127   -1.8956   10.5379 C.3       2 RES2    0.0000
     30 C20        9.8537   -0.0921   13.5674 C.3       2 RES2    0.0000
     31 C21        7.4802   -0.3539   12.8774 C.3       2 RES2    0.0000
     32 C22       10.3981    1.8871    9.6523 C.ar      2 RES2    0.0000
     33 C23        9.6160    2.5635    8.7057 C.ar      2 RES2    0.0000
     34 C24       10.1936    3.5754    7.9563 C.ar      2 RES2    0.0000
     35 C25       11.5363    3.9071    8.1259 C.ar      2 RES2    0.0000
     36 C26       12.2890    3.2460    9.0522 C.ar      2 RES2    0.0000
     37 C27       11.7278    2.2372    9.8146 C.ar      2 RES2    0.0000
     38 C28        8.2071    2.1428    8.4782 C.2       2 RES2    0.0000
     39 O7         7.4741    3.0641    7.8839 O.co2     2 RES2    0.0000
     40 O8         7.7773    1.0587    8.7883 O.co2     2 RES2    0.0000
     41 H1         5.5088   -0.9850    5.3936 H         1 RES1    0.0000
     42 H2         5.8563    0.5259    5.4472 H         1 RES1    0.0000
     43 H3         6.3401   -0.4230    6.5764 H         1 RES1    0.0000
     44 H4         3.0601   -0.2987    5.1863 H         1 RES1    0.0000
     45 H5         2.4429    0.6027    6.2865 H         1 RES1    0.0000
     46 H6         3.4797    1.1908    5.2950 H         1 RES1    0.0000
     47 H7         4.8625   -2.5113    8.9217 H         1 RES1    0.0000
     48 H8         5.5932   -2.2940    7.5693 H         1 RES1    0.0000
     49 H9         5.7724   -1.2691    8.7202 H         1 RES1    0.0000
     50 H10        2.6782   -2.6219    8.0477 H         1 RES1    0.0000
     51 H11        2.0612   -1.4779    7.2011 H         1 RES1    0.0000
     52 H12        3.0932   -2.4461    6.5634 H         1 RES1    0.0000
     53 H13        2.2658    4.2173   11.5931 H         1 RES1    0.0000
     54 H14        4.3173    4.5850   12.6005 H         1 RES1    0.0000
     55 H15        6.1578    3.2921   12.0236 H         1 RES1    0.0000
     56 H16        5.9876    1.7274   10.3074 H         1 RES1    0.0000
     57 H17       10.4495   -3.0080   11.1844 H         2 RES2    0.0000
     58 H18       11.0312   -2.0361   12.2440 H         2 RES2    0.0000
     59 H19        9.7687   -2.8791   12.5730 H         2 RES2    0.0000
     60 H20        7.6768   -2.4484   11.0945 H         2 RES2    0.0000
     61 H21        7.6808   -1.1939   10.1828 H         2 RES2    0.0000
     62 H22        8.5699   -2.4138    9.8262 H         2 RES2    0.0000
     63 H23        9.7945   -0.8668   14.1138 H         2 RES2    0.0000
     64 H24       10.7444    0.0015   13.2470 H         2 RES2    0.0000
     65 H25        9.6203    0.6749   14.0761 H         2 RES2    0.0000
     66 H26        7.3926   -1.1478   13.3920 H         2 RES2    0.0000
     67 H27        7.2633    0.3977   13.4152 H         2 RES2    0.0000
     68 H28        6.8905   -0.3916   12.1324 H         2 RES2    0.0000
     69 H29        9.6691    4.0483    7.3214 H         2 RES2    0.0000
     70 H30       11.9262    4.5927    7.5969 H         2 RES2    0.0000
     71 H31       13.2010    3.4794    9.1739 H         2 RES2    0.0000
     72 H32       12.2610    1.7804   10.4538 H         2 RES2    0.0000
@<TRIPOS>BOND
     1    1    2 2
     2    2    3 1
     3    4    2 1
     4    5    4 1
     5    6    1 1
     6    7    6 1
     7    8    4 1
     8    9    4 1
     9   10    5 1
    10   11    5 1
    11   12    1 1
    12   13   12 ar
    13   14   13 ar
    14   15   14 ar
    15   16   15 ar
    16   17   12 ar
    17   18   13 1
    18   19   18 2
    19   20   18 1
    20   21   22 2
    21   22   23 1
    22   24   22 1
    23   25   24 1
    24   26   21 1
    25   27   26 1
    26   28   24 1
    27   29   24 1
    28   30   25 1
    29   31   25 1
    30   32   21 1
    31   33   32 ar
    32   34   33 ar
    33   35   34 ar
    34   36   35 ar
    35   37   32 ar
    36   38   33 1
    37   39   38 2
    38   40   38 1
    39   41    8 1
    40   42    8 1
    41   43    8 1
    42   44    9 1
    43   45    9 1
    44   46    9 1
    45   47   10 1
    46   48   10 1
    47   49   10 1
    48   50   11 1
    49   51   11 1
    50   52   11 1
    51   53   14 1
    52   54   15 1
    53   55   16 1
    54   56   17 1
    55   57   28 1
    56   58   28 1
    57   59   28 1
    58   60   29 1
    59   61   29 1
    60   62   29 1
    61   63   30 1
    62   64   30 1
    63   65   30 1
    64   66   31 1
    65   67   31 1
    66   68   31 1
    67   69   34 1
    68   70   35 1
    69   71   36 1
    70   72   37 1
    71    5    6 1
    72   16   17 ar
    73   25   26 1
    74   36   37 ar
@<TRIPOS>SUBSTRUCTURE
     1 RES1 1
     2 RES2 21

@<TRIPOS>CRYSIN
  25.4580    7.6775   15.1702  90.0000 107.1580  90.0000   9 1

