# MOL2 file generated by ConQuest
# Please check atom types

@<TRIPOS>MOLECULE
FERYOS
   106   114     2
SMALL
NO_CHARGES
****
Generated from CSD

@<TRIPOS>ATOM
      1 O1         1.4918    5.2792    2.7194 O.3       1 RES1    0.0000
      2 N1         1.6186    6.1204    1.5704 N.3       1 RES1    0.0000
      3 C1         4.9502    5.1569   -0.7819 C.ar      1 RES1    0.0000
      4 H1         5.6814    4.9437   -1.3152 H         1 RES1    0.0000
      5 C2         4.0868    6.1462   -1.1646 C.ar      1 RES1    0.0000
      6 H2         4.2318    6.6025   -1.9624 H         1 RES1    0.0000
      7 C3         2.9991    6.4724   -0.3718 C.ar      1 RES1    0.0000
      8 H3         2.4111    7.1395   -0.6425 H         1 RES1    0.0000
      9 C4         2.7887    5.8021    0.8278 C.ar      1 RES1    0.0000
     10 C5         1.4968    7.5221    2.0532 C.3       1 RES1    0.0000
     11 H4         1.4869    8.0952    1.2570 H         1 RES1    0.0000
     12 C6         0.1658    7.6922    2.7247 C.2       1 RES1    0.0000
     13 H5         0.0303    8.4934    3.1775 H         1 RES1    0.0000
     14 C7        -0.8424    6.8252    2.7434 C.2       1 RES1    0.0000
     15 C8        -2.1314    7.0070    3.4238 C.ar      1 RES1    0.0000
     16 C9        -2.9543    5.9103    3.1926 C.ar      1 RES1    0.0000
     17 C10       -4.2143    5.8648    3.7650 C.ar      1 RES1    0.0000
     18 H6        -4.7706    5.1357    3.6081 H         1 RES1    0.0000
     19 C11       -4.6378    6.8918    4.5591 C.ar      1 RES1    0.0000
     20 H7        -5.4822    6.8573    4.9467 H         1 RES1    0.0000
     21 C12        3.6629    4.8010    1.1991 C.ar      1 RES1    0.0000
     22 H8         3.5306    4.3408    1.9973 H         1 RES1    0.0000
     23 C13        4.7342    4.4811    0.3890 C.ar      1 RES1    0.0000
     24 H9         5.3137    3.7999    0.6425 H         1 RES1    0.0000
     25 C14       -0.8589    5.4501    2.0904 C.3       1 RES1    0.0000
     26 H10       -0.7038    5.5638    1.1290 H         1 RES1    0.0000
     27 C15        0.2352    4.5344    2.6509 C.3       1 RES1    0.0000
     28 C16        0.4457    3.3295    1.7529 C.3       1 RES1    0.0000
     29 H11        0.7567    3.6211    0.8939 H         1 RES1    0.0000
     30 H12       -0.3835    2.8583    1.6481 H         1 RES1    0.0000
     31 H13        1.0972    2.7454    2.1486 H         1 RES1    0.0000
     32 C17        0.0223    4.1362    4.0937 C.3       1 RES1    0.0000
     33 H14        0.8137    3.7097    4.4275 H         1 RES1    0.0000
     34 H15       -0.7191    3.5278    4.1529 H         1 RES1    0.0000
     35 H16       -0.1651    4.9186    4.6184 H         1 RES1    0.0000
     36 C18       -2.2970    4.9154    2.2922 C.3       1 RES1    0.0000
     37 H17       -2.7644    4.8574    1.4433 H         1 RES1    0.0000
     38 H18       -2.2830    4.0366    2.7026 H         1 RES1    0.0000
     39 C19       -2.5723    8.0575    4.2232 C.ar      1 RES1    0.0000
     40 H19       -2.0336    8.8007    4.3717 H         1 RES1    0.0000
     41 C20       -3.8266    7.9729    4.7905 C.ar      1 RES1    0.0000
     42 H20       -4.1268    8.6604    5.3401 H         1 RES1    0.0000
     43 C21        2.6524    7.9933    2.9168 C.ar      1 RES1    0.0000
     44 C22        2.8096    7.5503    4.2155 C.ar      1 RES1    0.0000
     45 H21        2.1923    6.9529    4.5742 H         1 RES1    0.0000
     46 C23        3.8723    7.9823    4.9897 C.ar      1 RES1    0.0000
     47 H22        3.9703    7.6679    5.8592 H         1 RES1    0.0000
     48 C24        4.7773    8.8689    4.4783 C.ar      1 RES1    0.0000
     49 H23        5.4912    9.1598    5.0002 H         1 RES1    0.0000
     50 C25        4.6340    9.3260    3.2071 C.ar      1 RES1    0.0000
     51 H24        5.2452    9.9359    2.8632 H         1 RES1    0.0000
     52 C26        3.5842    8.8878    2.4233 C.ar      1 RES1    0.0000
     53 H25        3.5041    9.1998    1.5503 H         1 RES1    0.0000
     54 O2        -2.5853    5.2706    8.9284 O.3       2 RES2    0.0000
     55 N2        -2.4825    6.1212   10.0714 N.3       2 RES2    0.0000
     56 C27        0.8405    5.1828   12.4607 C.ar      2 RES2    0.0000
     57 H26        1.5661    4.9734   13.0033 H         2 RES2    0.0000
     58 C28       -0.0387    6.1753   12.8273 C.ar      2 RES2    0.0000
     59 H27        0.0953    6.6386   13.6225 H         2 RES2    0.0000
     60 C29       -1.1172    6.4904   12.0284 C.ar      2 RES2    0.0000
     61 H28       -1.7116    7.1552   12.2910 H         2 RES2    0.0000
     62 C30       -1.3157    5.8138   10.8275 C.ar      2 RES2    0.0000
     63 C31       -2.6057    7.5127    9.5756 C.3       2 RES2    0.0000
     64 H29       -2.6383    8.0920   10.3659 H         2 RES2    0.0000
     65 C32       -3.9254    7.6750    8.8670 C.2       2 RES2    0.0000
     66 H30       -4.0489    8.4707    8.4012 H         2 RES2    0.0000
     67 C33       -4.9288    6.8087    8.8344 C.2       2 RES2    0.0000
     68 C34       -6.2211    6.9992    8.1528 C.ar      2 RES2    0.0000
     69 C35       -6.6672    8.0419    7.3636 C.ar      2 RES2    0.0000
     70 H31       -6.1157    8.7733    7.1977 H         2 RES2    0.0000
     71 C36       -7.9355    7.9886    6.8213 C.ar      2 RES2    0.0000
     72 H32       -8.2377    8.6824    6.2805 H         2 RES2    0.0000
     73 C37       -8.7611    6.9075    7.0799 C.ar      2 RES2    0.0000
     74 H33       -9.6168    6.8824    6.7158 H         2 RES2    0.0000
     75 C38        0.6355    4.5101   11.2916 C.ar      2 RES2    0.0000
     76 H34        1.2241    3.8343   11.0433 H         2 RES2    0.0000
     77 C39       -0.4337    4.8167   10.4683 C.ar      2 RES2    0.0000
     78 H35       -0.5585    4.3494    9.6745 H         2 RES2    0.0000
     79 C40       -3.8364    4.5234    8.9701 C.3       2 RES2    0.0000
     80 C41       -4.9495    5.4415    9.4952 C.3       2 RES2    0.0000
     81 H36       -4.8129    5.5669   10.4566 H         2 RES2    0.0000
     82 C42       -1.4295    7.9870    8.7331 C.ar      2 RES2    0.0000
     83 C43       -1.2306    7.5190    7.4507 C.ar      2 RES2    0.0000
     84 H37       -1.8309    6.9106    7.0836 H         2 RES2    0.0000
     85 C44       -0.1513    7.9462    6.7114 C.ar      2 RES2    0.0000
     86 H38       -0.0158    7.6060    5.8568 H         2 RES2    0.0000
     87 C45        0.7207    8.8627    7.2200 C.ar      2 RES2    0.0000
     88 H39        1.4412    9.1559    6.7088 H         2 RES2    0.0000
     89 C46        0.5334    9.3503    8.4847 C.ar      2 RES2    0.0000
     90 H40        1.1233    9.9790    8.8341 H         2 RES2    0.0000
     91 C47       -0.5331    8.9081    9.2410 C.ar      2 RES2    0.0000
     92 H41       -0.6507    9.2343   10.1051 H         2 RES2    0.0000
     93 C48       -8.3300    5.8766    7.8665 C.ar      2 RES2    0.0000
     94 H42       -8.8921    5.1577    8.0427 H         2 RES2    0.0000
     95 C49       -7.0513    5.9048    8.4005 C.ar      2 RES2    0.0000
     96 C50       -6.3847    4.8888    9.2797 C.3       2 RES2    0.0000
     97 H43       -6.3590    4.0217    8.8458 H         2 RES2    0.0000
     98 H44       -6.8533    4.8041   10.1261 H         2 RES2    0.0000
     99 C51       -3.6514    3.3154    9.8726 C.3       2 RES2    0.0000
    100 H45       -2.9943    2.7290    9.4906 H         2 RES2    0.0000
    101 H46       -4.4866    2.8489    9.9585 H         2 RES2    0.0000
    102 H47       -3.3573    3.6054   10.7383 H         2 RES2    0.0000
    103 C52       -4.0148    4.1221    7.5175 C.3       2 RES2    0.0000
    104 H48       -4.1724    4.9060    6.9858 H         2 RES2    0.0000
    105 H49       -4.7638    3.5263    7.4398 H         2 RES2    0.0000
    106 H50       -3.2205    3.6807    7.2070 H         2 RES2    0.0000
@<TRIPOS>BOND
     1    1    2 1
     2    2    9 1
     3    3    4 1
     4    5    3 ar
     5    6    5 1
     6    7    5 ar
     7    8    7 1
     8    9    7 ar
     9   10    2 1
    10   11   10 1
    11   12   10 1
    12   13   12 1
    13   14   12 2
    14   15   14 1
    15   16   15 ar
    16   17   16 ar
    17   18   17 1
    18   19   17 ar
    19   20   19 1
    20   21    9 ar
    21   22   21 1
    22   23    3 ar
    23   24   23 1
    24   25   14 1
    25   26   25 1
    26   27    1 1
    27   28   27 1
    28   29   28 1
    29   30   28 1
    30   31   28 1
    31   32   27 1
    32   33   32 1
    33   34   32 1
    34   35   32 1
    35   36   16 1
    36   37   36 1
    37   38   36 1
    38   39   15 ar
    39   40   39 1
    40   41   19 ar
    41   42   41 1
    42   43   10 1
    43   44   43 ar
    44   45   44 1
    45   46   44 ar
    46   47   46 1
    47   48   46 ar
    48   49   48 1
    49   50   48 ar
    50   51   50 1
    51   52   43 ar
    52   53   52 1
    53   54   55 1
    54   55   62 1
    55   56   57 1
    56   58   56 ar
    57   59   58 1
    58   60   58 ar
    59   61   60 1
    60   62   60 ar
    61   63   55 1
    62   64   63 1
    63   65   63 1
    64   66   65 1
    65   67   65 2
    66   68   67 1
    67   69   68 ar
    68   70   69 1
    69   71   69 ar
    70   72   71 1
    71   73   71 ar
    72   74   73 1
    73   75   56 ar
    74   76   75 1
    75   77   62 ar
    76   78   77 1
    77   79   54 1
    78   80   67 1
    79   81   80 1
    80   82   63 1
    81   83   82 ar
    82   84   83 1
    83   85   83 ar
    84   86   85 1
    85   87   85 ar
    86   88   87 1
    87   89   87 ar
    88   90   89 1
    89   91   82 ar
    90   92   91 1
    91   93   73 ar
    92   94   93 1
    93   95   68 ar
    94   96   80 1
    95   97   96 1
    96   98   96 1
    97   99   79 1
    98  100   99 1
    99  101   99 1
   100  102   99 1
   101  103   79 1
   102  104  103 1
   103  105  103 1
   104  106  103 1
   105   21   23 ar
   106   25   27 1
   107   25   36 1
   108   39   41 ar
   109   50   52 ar
   110   75   77 ar
   111   79   80 1
   112   89   91 ar
   113   93   95 ar
   114   95   96 1
@<TRIPOS>SUBSTRUCTURE
     1 RES1 1
     2 RES2 54

@<TRIPOS>CRYSIN
  22.6270    7.8396   24.6690  90.0000 109.3300  90.0000 231 1

