# MOL2 file generated by ConQuest
# Please check atom types

@<TRIPOS>MOLECULE
FESNEW14
    22    20     2
SMALL
NO_CHARGES
****
Generated from CSD

@<TRIPOS>ATOM
      1 C1        -0.9367    4.3143    6.5525 C.ar      1 RES1    0.0000
      2 C2        -0.6616    3.3192    7.5002 C.ar      1 RES1    0.0000
      3 C3        -0.1125    2.1098    7.1438 C.ar      1 RES1    0.0000
      4 H1         0.0836    1.4714    7.7536 H         1 RES1    0.0000
      5 C4         0.1610    1.8788    5.8120 C.ar      1 RES1    0.0000
      6 C5        -0.0887    2.8309    4.8517 C.ar      1 RES1    0.0000
      7 H2         0.0895    2.5843    3.9461 H         1 RES1    0.0000
      8 C6        -0.6334    4.0343    5.2163 C.ar      1 RES1    0.0000
      9 H3        -0.7768    4.6891    4.5250 H         1 RES1    0.0000
     10 C7        -1.7183    6.5017    6.0086 C.3       1 RES1    0.0000
     11 H4        -0.9087    6.7568    5.5627 H         1 RES1    0.0000
     12 H5        -2.1031    7.1841    6.4696 H         1 RES1    0.0000
     13 H6        -2.2725    6.1853    5.3148 H         1 RES1    0.0000
     14 N1        -0.9416    3.5105    8.9308 N.pl3     1 RES1    0.0000
     15 N2         0.7567    0.6030    5.4335 N.pl3     1 RES1    0.0000
     16 O1        -1.4532    5.4769    6.9684 O.3       1 RES1    0.0000
     17 O2        -1.9367    4.2014    9.1762 O.2       1 RES1    0.0000
     18 O3        -0.1910    2.9800    9.7151 O.2       1 RES1    0.0000
     19 O4         0.8901   -0.2529    6.2834 O.2       1 RES1    0.0000
     20 O5         1.0954    0.4373    4.2834 O.2       1 RES1    0.0000
     21 O6        -1.4528    4.4844    9.3702 Du        2 SUP2    0.0000
     22 O7        -0.6026    2.6557    9.7028 Du        2 SUP2    0.0000
@<TRIPOS>BOND
     1    1    2 ar
     2    2    3 ar
     3    3    4 1
     4    5    3 ar
     5    6    5 ar
     6    7    6 1
     7    8    1 ar
     8    9    8 1
     9   10   11 1
    10   12   10 1
    11   13   10 1
    12   14    2 1
    13   15    5 1
    14   16    1 1
    15   17   14 2
    16   18   14 2
    17   19   15 2
    18   20   15 2
    19    6    8 ar
    20   10   16 1
@<TRIPOS>SUBSTRUCTURE
     1 RES1 1
     2 SUP2 21

@<TRIPOS>CRYSIN
   3.9291   13.7390   15.4430  90.0000  94.4540  90.0000 231 1

