# MOL2 file generated by ConQuest
# Please check atom types

@<TRIPOS>MOLECULE
FESNIA
    40    40     2
SMALL
NO_CHARGES
****
Generated from CSD

@<TRIPOS>ATOM
      1 O1         2.5444    4.0024    1.1274 O.3       1 RES1    0.0000
      2 O2         2.0911    6.0479    2.6411 O.2       1 RES1    0.0000
      3 O3         3.1400    7.8274    2.2406 O.2       1 RES1    0.0000
      4 O4         3.9251    2.2381   -0.6968 O.2       1 RES1    0.0000
      5 O5         2.6882    2.8811   -2.3346 O.2       1 RES1    0.0000
      6 N1         2.7854    6.7103    1.9414 N.pl3     1 RES1    0.0000
      7 N2         3.3727    3.0923   -1.3357 N.pl3     1 RES1    0.0000
      8 C1         3.1558    4.8342    0.2949 C.ar      1 RES1    0.0000
      9 C2         3.2688    6.2151    0.6187 C.ar      1 RES1    0.0000
     10 C3         3.8239    7.1030   -0.2443 C.ar      1 RES1    0.0000
     11 C4         4.2177    6.6865   -1.4788 C.ar      1 RES1    0.0000
     12 C5         4.0303    5.4001   -1.8691 C.ar      1 RES1    0.0000
     13 C6         3.5073    4.4889   -0.9555 C.ar      1 RES1    0.0000
     14 C7         3.2725    3.4180    2.2378 C.3       1 RES1    0.0000
     15 H1         3.6501    8.0771   -0.0289 H         1 RES1    0.0000
     16 H2         4.7826    7.2830   -2.0816 H         1 RES1    0.0000
     17 H3         4.2139    5.0502   -2.9345 H         1 RES1    0.0000
     18 H4         3.3681    4.1282    3.0357 H         1 RES1    0.0000
     19 H5         4.2734    3.1318    1.8937 H         1 RES1    0.0000
     20 H6         2.9243    2.4874    2.7611 H         1 RES1    0.0000
     21 O6         0.9949    1.5706    8.3439 O.3       2 RES2    0.0000
     22 O7         2.3484    3.2229    6.5557 O.2       2 RES2    0.0000
     23 O8         1.1456    2.6176    4.9019 O.2       2 RES2    0.0000
     24 O9         0.5363   -0.5701    9.8747 O.2       2 RES2    0.0000
     25 O10        1.6085   -2.3773    9.4801 O.2       2 RES2    0.0000
     26 N3         1.8405    2.3748    5.8763 N.pl3     2 RES2    0.0000
     27 N4         1.2522   -1.2549    9.1837 N.pl3     2 RES2    0.0000
     28 C8         1.5846    0.6214    7.5719 C.ar      2 RES2    0.0000
     29 C9         1.9780    0.9541    6.2897 C.ar      2 RES2    0.0000
     30 C10        2.4801    0.1113    5.3645 C.ar      2 RES2    0.0000
     31 C11        2.6813   -1.2269    5.7650 C.ar      2 RES2    0.0000
     32 C12        2.2662   -1.6256    7.0009 C.ar      2 RES2    0.0000
     33 C13        1.7218   -0.7430    7.8596 C.ar      2 RES2    0.0000
     34 C14        1.7484    2.0546    9.4613 C.3       2 RES2    0.0000
     35 H7         2.6540    0.4118    4.3078 H         2 RES2    0.0000
     36 H8         3.1549   -1.8885    5.1318 H         2 RES2    0.0000
     37 H9         2.3626   -2.6529    7.3435 H         2 RES2    0.0000
     38 H10        2.7765    2.2397    9.1794 H         2 RES2    0.0000
     39 H11        1.7435    1.3105   10.2636 H         2 RES2    0.0000
     40 H12        1.3848    2.8840    9.8299 H         2 RES2    0.0000
@<TRIPOS>BOND
     1    1    8 1
     2    2    6 2
     3    3    6 2
     4    4    7 2
     5    5    7 2
     6    6    9 1
     7    7   13 1
     8    8    9 ar
     9    9   10 ar
    10   10   11 ar
    11   11   12 ar
    12   12   13 ar
    13   13    8 ar
    14   14    1 1
    15   15   10 1
    16   16   11 1
    17   17   12 1
    18   18   14 1
    19   19   14 1
    20   20   14 1
    21   21   28 1
    22   22   26 2
    23   23   26 2
    24   24   27 2
    25   25   27 2
    26   26   29 1
    27   27   33 1
    28   28   29 ar
    29   29   30 ar
    30   30   31 ar
    31   31   32 ar
    32   32   33 ar
    33   33   28 ar
    34   34   21 1
    35   35   30 1
    36   36   31 1
    37   37   32 1
    38   38   34 1
    39   39   34 1
    40   40   34 1
@<TRIPOS>SUBSTRUCTURE
     1 RES1 1
     2 RES2 21

@<TRIPOS>CRYSIN
   3.8540    7.7360   14.4760  89.2500  86.9700  75.5900   1 1

