# MOL2 file generated by ConQuest
# Please check atom types

@<TRIPOS>MOLECULE
FESNEW01
    28    28     2
SMALL
NO_CHARGES
****
Generated from CSD

@<TRIPOS>ATOM
      1 C1         5.9280    1.9046   -0.9778 C.ar      1 RES1    0.0000
      2 C2         6.8725    2.3462   -0.0559 C.ar      1 RES1    0.0000
      3 C3         8.1889    1.9683   -0.1257 C.ar      1 RES1    0.0000
      4 C4         8.5614    1.1303   -1.1658 C.ar      1 RES1    0.0000
      5 C5         7.6584    0.6520   -2.1144 C.ar      1 RES1    0.0000
      6 C6         6.3558    1.0518   -1.9937 C.ar      1 RES1    0.0000
      7 C7         3.6384    1.9229   -1.8312 C.3       1 RES1    0.0000
      8 O1         4.6341    2.3104   -0.8115 O.3       1 RES1    0.0000
      9 N1         6.5010    3.2365    1.0400 N.pl3     1 RES1    0.0000
     10 N2         9.9965    0.7480   -1.2102 N.pl3     1 RES1    0.0000
     11 O2         7.2990    3.7166    1.5925 O.2       1 RES1    0.0000
     12 O3         5.4280    3.5054    1.3347 O.2       1 RES1    0.0000
     13 O4        10.7807    1.1399   -0.3937 O.2       1 RES1    0.0000
     14 O5        10.2926   -0.0271   -2.1525 O.2       1 RES1    0.0000
     15 C8        15.2666    1.7221    0.9537 C.ar      2 RES2    0.0000
     16 C9        14.4694    2.6797    0.2933 C.ar      2 RES2    0.0000
     17 C10       13.2030    3.0393    0.6896 C.ar      2 RES2    0.0000
     18 C11       12.6837    2.4030    1.8020 C.ar      2 RES2    0.0000
     19 C12       13.3904    1.4175    2.4865 C.ar      2 RES2    0.0000
     20 C13       14.6770    1.1033    2.0864 C.ar      2 RES2    0.0000
     21 C14       17.4090    0.7140    1.3690 C.3       2 RES2    0.0000
     22 O6        16.4847    1.4498    0.4991 O.3       2 RES2    0.0000
     23 N3        15.0059    3.3727   -0.9156 N.pl3     2 RES2    0.0000
     24 N4        11.3501    2.7355    2.2426 N.pl3     2 RES2    0.0000
     25 O7        15.7471    2.7460   -1.6598 O.2       2 RES2    0.0000
     26 O8        14.6543    4.4943   -1.1112 O.2       2 RES2    0.0000
     27 O9        10.7652    3.6939    1.7385 O.2       2 RES2    0.0000
     28 O10       10.8536    2.0625    3.1328 O.2       2 RES2    0.0000
@<TRIPOS>BOND
     1    1    2 ar
     2    2    3 ar
     3    3    4 ar
     4    4    5 ar
     5    5    6 ar
     6    6    1 ar
     7    7    8 1
     8    8    1 1
     9    9    2 1
    10   10    4 1
    11   11    9 2
    12   12    9 2
    13   13   10 2
    14   14   10 2
    15   15   16 ar
    16   16   17 ar
    17   17   18 ar
    18   18   19 ar
    19   19   20 ar
    20   20   15 ar
    21   21   22 1
    22   22   15 1
    23   23   16 1
    24   24   18 1
    25   25   23 2
    26   26   23 2
    27   27   24 2
    28   28   24 2
@<TRIPOS>SUBSTRUCTURE
     1 RES1 1
     2 RES2 15

