# MOL2 file generated by ConQuest
# Please check atom types

@<TRIPOS>MOLECULE
FESNEW20
    20    20     1
SMALL
NO_CHARGES
****
Generated from CSD

@<TRIPOS>ATOM
      1 C1         2.1586    2.5207    1.1124 C.ar      1 RES1    0.0000
      2 C2         1.9663    3.5519    0.1644 C.ar      1 RES1    0.0000
      3 C3         1.4275    4.7710    0.5185 C.ar      1 RES1    0.0000
      4 H1         1.3267    5.4382   -0.1206 H         1 RES1    0.0000
      5 C4         1.0747    4.9768    1.8393 C.ar      1 RES1    0.0000
      6 C5         1.2301    3.9911    2.8016 C.ar      1 RES1    0.0000
      7 H2         1.0089    4.1619    3.7033 H         1 RES1    0.0000
      8 C6         1.7659    2.7727    2.4367 C.ar      1 RES1    0.0000
      9 H3         1.8509    2.1079    3.1003 H         1 RES1    0.0000
     10 C7         2.8574    0.3022    1.6739 C.3       1 RES1    0.0000
     11 H4         3.4270    0.5953    2.4042 H         1 RES1    0.0000
     12 H5         3.2936   -0.4172    1.1922 H         1 RES1    0.0000
     13 H6         2.0129    0.0055    2.0165 H         1 RES1    0.0000
     14 N1         2.3164    3.3831   -1.2555 N.pl3     1 RES1    0.0000
     15 N2         0.5020    6.2689    2.2146 N.pl3     1 RES1    0.0000
     16 O1         2.6789    1.3534    0.7028 O.3       1 RES1    0.0000
     17 O2         3.1522    2.5424   -1.5563 O.2       1 RES1    0.0000
     18 O3         1.7655    4.1044   -2.0635 O.2       1 RES1    0.0000
     19 O4         0.5347    7.1761    1.3925 O.2       1 RES1    0.0000
     20 O5         0.0068    6.3823    3.3342 O.2       1 RES1    0.0000
@<TRIPOS>BOND
     1    1    2 ar
     2    2    3 ar
     3    3    4 1
     4    5    3 ar
     5    6    5 ar
     6    7    6 1
     7    8    1 ar
     8    9    8 1
     9   10   11 1
    10   12   10 1
    11   13   10 1
    12   14    2 1
    13   15    5 1
    14   16    1 1
    15   17   14 2
    16   18   14 2
    17   19   15 2
    18   20   15 2
    19    6    8 ar
    20   10   16 1
@<TRIPOS>SUBSTRUCTURE
     1 RES1 1

@<TRIPOS>CRYSIN
   3.8278   13.8130   15.3640  90.0000  96.5120  90.0000 231 1

