# MOL2 file generated by ConQuest
# Please check atom types

@<TRIPOS>MOLECULE
FESNEW06
    43    40     3
SMALL
NO_CHARGES
****
Generated from CSD

@<TRIPOS>ATOM
      1 C1         5.9694    5.3950    0.4537 C.ar      1 RES1    0.0000
      2 C2         6.8228    6.0725    1.3458 C.ar      1 RES1    0.0000
      3 C3         7.0410    5.6446    2.6353 C.ar      1 RES1    0.0000
      4 H1         7.6425    6.1037    3.2102 H         1 RES1    0.0000
      5 C4         6.3571    4.5285    3.0639 C.ar      1 RES1    0.0000
      6 C5         5.5007    3.8321    2.2248 C.ar      1 RES1    0.0000
      7 H2         5.0342    3.0690    2.5463 H         1 RES1    0.0000
      8 C6         5.3292    4.2505    0.9249 C.ar      1 RES1    0.0000
      9 H3         4.7680    3.7529    0.3418 H         1 RES1    0.0000
     10 C7         5.2193    5.0167   -1.7739 C.3       1 RES1    0.0000
     11 H4         5.6787    4.1506   -1.7958 H         1 RES1    0.0000
     12 H5         5.2790    5.4413   -2.6557 H         1 RES1    0.0000
     13 H6         4.2771    4.8802   -1.5405 H         1 RES1    0.0000
     14 O1         5.8400    5.8642   -0.7906 O.3       1 RES1    0.0000
     15 O2         6.9861    8.0439    0.1392 O.2       1 RES1    0.0000
     16 O3         8.6476    7.4656    1.3880 O.2       1 RES1    0.0000
     17 O4         7.3671    4.6130    5.1401 O.2       1 RES1    0.0000
     18 O5         5.7888    3.1770    4.8338 O.2       1 RES1    0.0000
     19 N1         7.5399    7.2788    0.9214 N.pl3     1 RES1    0.0000
     20 N2         6.5187    4.0773    4.4399 N.pl3     1 RES1    0.0000
     21 C8         7.0553    0.9641   -2.0934 C.ar      2 RES2    0.0000
     22 C9         6.4805    0.0427   -1.2030 C.ar      2 RES2    0.0000
     23 C10        6.6646    0.1281    0.1601 C.ar      2 RES2    0.0000
     24 H7         6.2579   -0.5003    0.7460 H         2 RES2    0.0000
     25 C11        7.4494    1.1416    0.6530 C.ar      2 RES2    0.0000
     26 C12        8.0330    2.0760   -0.1806 C.ar      2 RES2    0.0000
     27 H8         8.5672    2.7726    0.1823 H         2 RES2    0.0000
     28 C13        7.8340    1.9896   -1.5411 C.ar      2 RES2    0.0000
     29 H9         8.2313    2.6358   -2.1133 H         2 RES2    0.0000
     30 C14        7.3413    1.8142   -4.2981 C.3       2 RES2    0.0000
     31 H10        6.9579    2.6852   -4.0640 H         2 RES2    0.0000
     32 H11        7.0930    1.5845   -5.2172 H         2 RES2    0.0000
     33 H12        8.3181    1.8568   -4.2251 H         2 RES2    0.0000
     34 O6         6.8355    0.8106   -3.3995 O.3       2 RES2    0.0000
     35 O7         5.6572   -1.3895   -2.7939 O.2       2 RES2    0.0000
     36 O8         4.6655   -1.3287   -0.8912 O.2       2 RES2    0.0000
     37 N3         5.5517   -0.9398   -1.6697 N.pl3     2 RES2    0.0000
     38 O9         7.1599    0.3748    2.8078 O.2       2 RES2    0.0000
     39 O10        8.3818    2.1213    2.5220 O.2       2 RES2    0.0000
     40 N4         7.6758    1.2202    2.0914 N.pl3     2 RES2    0.0000
     41 O11        5.2257   -1.2007   -2.7195 Du        3 SUP3    0.0000
     42 O12        5.8659   -2.2203   -1.0088 Du        3 SUP3    0.0000
     43 N5         5.7885   -1.2476   -1.6985 Du        3 SUP3    0.0000
@<TRIPOS>BOND
     1    1    2 ar
     2    2    3 ar
     3    3    4 1
     4    5    3 ar
     5    6    5 ar
     6    7    6 1
     7    8    1 ar
     8    9    8 1
     9   10   11 1
    10   12   10 1
    11   13   10 1
    12   14    1 1
    13   15   19 2
    14   16   19 2
    15   17   20 2
    16   18   20 2
    17   19    2 1
    18   20    5 1
    19   21   22 ar
    20   22   23 ar
    21   23   24 1
    22   25   23 ar
    23   26   25 ar
    24   27   26 1
    25   28   21 ar
    26   29   28 1
    27   30   31 1
    28   32   30 1
    29   33   30 1
    30   34   21 1
    31   35   37 2
    32   36   37 2
    33   37   22 1
    34   38   40 2
    35   39   40 2
    36   40   25 1
    37    6    8 ar
    38   10   14 1
    39   26   28 ar
    40   30   34 1
@<TRIPOS>SUBSTRUCTURE
     1 RES1 1
     2 RES2 21
     3 SUP3 41

@<TRIPOS>CRYSIN
   8.6650   12.6660   15.3160  90.0000  97.2770  90.0000 231 1

