# MOL2 file generated by ConQuest
# Please check atom types

@<TRIPOS>MOLECULE
FESNEW11
    24    20     2
SMALL
NO_CHARGES
****
Generated from CSD

@<TRIPOS>ATOM
      1 C1         0.4266    4.2021    6.5427 C.ar      1 RES1    0.0000
      2 C2        -0.0792    3.3037    7.5021 C.ar      1 RES1    0.0000
      3 C3        -0.6143    2.0857    7.1473 C.ar      1 RES1    0.0000
      4 H1        -0.9305    1.5052    7.7541 H         1 RES1    0.0000
      5 C4        -0.6421    1.7412    5.8114 C.ar      1 RES1    0.0000
      6 C5        -0.1552    2.5945    4.8390 C.ar      1 RES1    0.0000
      7 H2        -0.2027    2.2854    3.8863 H         1 RES1    0.0000
      8 C6         0.3750    3.8093    5.2048 C.ar      1 RES1    0.0000
      9 H3         0.6658    4.3492    4.5201 H         1 RES1    0.0000
     10 C7         1.4221    6.2987    5.9856 C.3       1 RES1    0.0000
     11 H4         1.7227    6.9896    6.4617 H         1 RES1    0.0000
     12 H5         0.6957    6.5974    5.3224 H         1 RES1    0.0000
     13 H6         2.1356    5.8600    5.3688 H         1 RES1    0.0000
     14 N1        -0.0611    3.6196    8.9345 N.pl3     1 RES1    0.0000
     15 N2        -1.2237    0.4664    5.4286 N.pl3     1 RES1    0.0000
     16 O1         0.9140    5.3765    6.9649 O.3       1 RES1    0.0000
     17 O2         0.0960    4.7221    9.3772 O.2       1 RES1    0.0000
     18 O3        -0.2492    2.6775    9.7748 O.2       1 RES1    0.0000
     19 O4        -1.8669   -0.1280    6.2113 O.2       1 RES1    0.0000
     20 O5        -1.1208    0.1032    4.2712 O.2       1 RES1    0.0000
     21 O6         0.9374    4.2048    9.2860 Du        2 SUP2    0.0000
     22 O7        -1.0249    3.2994    9.5241 Du        2 SUP2    0.0000
     23 O8        -1.3804   -0.4265    6.3844 Du        2 SUP2    0.0000
     24 O9        -1.3992    0.2642    4.2542 Du        2 SUP2    0.0000
@<TRIPOS>BOND
     1    1    2 ar
     2    2    3 ar
     3    3    4 1
     4    5    3 ar
     5    6    5 ar
     6    7    6 1
     7    8    1 ar
     8    9    8 1
     9   10   11 1
    10   12   10 1
    11   13   10 1
    12   14    2 1
    13   15    5 1
    14   16    1 1
    15   17   14 2
    16   18   14 2
    17   19   15 2
    18   20   15 2
    19    6    8 ar
    20   10   16 1
@<TRIPOS>SUBSTRUCTURE
     1 RES1 1
     2 SUP2 21

@<TRIPOS>CRYSIN
   3.9800   13.7590   15.4610  90.0000  90.9940  90.0000 231 1

