# MOL2 file generated by ConQuest
# Please check atom types

@<TRIPOS>MOLECULE
FESNEW15
    20    20     1
SMALL
NO_CHARGES
****
Generated from CSD

@<TRIPOS>ATOM
      1 C1         0.2225    4.3437   14.2190 C.ar      1 RES1    0.0000
      2 C2         0.4654    3.3320   15.1630 C.ar      1 RES1    0.0000
      3 C3         1.0132    2.1216   14.8109 C.ar      1 RES1    0.0000
      4 H1         1.1551    1.4731   15.4490 H         1 RES1    0.0000
      5 C4         1.3212    1.9021   13.4859 C.ar      1 RES1    0.0000
      6 C5         1.1078    2.8669   12.5227 C.ar      1 RES1    0.0000
      7 H2         1.3367    2.6899   11.6029 H         1 RES1    0.0000
      8 C6         0.5635    4.0747   12.8883 C.ar      1 RES1    0.0000
      9 H3         0.4348    4.7293   12.2247 H         1 RES1    0.0000
     10 C7        -0.5276    6.5469   13.6698 C.3       1 RES1    0.0000
     11 H4        -0.8846    7.2386   14.1424 H         1 RES1    0.0000
     12 H5        -1.0992    6.2423   12.9202 H         1 RES1    0.0000
     13 H6         0.2662    6.8156   13.2396 H         1 RES1    0.0000
     14 N1         0.1546    3.5156   16.5892 N.pl3     1 RES1    0.0000
     15 N2         1.9103    0.6186   13.1050 N.pl3     1 RES1    0.0000
     16 O1        -0.2967    5.5094   14.6336 O.3       1 RES1    0.0000
     17 O2        -0.6640    4.3421   16.9073 O.2       1 RES1    0.0000
     18 O3         0.7008    2.8081   17.3902 O.2       1 RES1    0.0000
     19 O4         1.9873   -0.2569   13.9465 O.2       1 RES1    0.0000
     20 O5         2.3130    0.4740   11.9677 O.2       1 RES1    0.0000
@<TRIPOS>BOND
     1    1    2 ar
     2    2    3 ar
     3    3    4 1
     4    5    3 ar
     5    6    5 ar
     6    7    6 1
     7    8    1 ar
     8    9    8 1
     9   10   11 1
    10   12   10 1
    11   13   10 1
    12   14    2 1
    13   15    5 1
    14   16    1 1
    15   17   14 2
    16   18   14 2
    17   19   15 2
    18   20   15 2
    19    6    8 ar
    20   10   16 1
@<TRIPOS>SUBSTRUCTURE
     1 RES1 1

@<TRIPOS>CRYSIN
   3.9080   13.7800   15.4200  90.0000  95.3100  90.0000 231 1

