# MOL2 file generated by ConQuest
# Please check atom types

@<TRIPOS>MOLECULE
FESNEW
    40    40     2
SMALL
NO_CHARGES
****
Generated from CSD

@<TRIPOS>ATOM
      1 C1         7.1215    7.2810    0.4705 C.ar      1 RES1    0.0000
      2 C2         6.2791    6.6171    1.3732 C.ar      1 RES1    0.0000
      3 C3         6.0974    7.0041    2.6654 C.ar      1 RES1    0.0000
      4 C4         6.7952    8.1307    3.0809 C.ar      1 RES1    0.0000
      5 C5         7.6529    8.7984    2.2484 C.ar      1 RES1    0.0000
      6 C6         7.7920    8.3862    0.9470 C.ar      1 RES1    0.0000
      7 C7         7.8377    7.6641   -1.7673 C.3       1 RES1    0.0000
      8 N1         5.5433    5.4108    0.9502 N.pl3     1 RES1    0.0000
      9 N2         6.6555    8.5619    4.4764 N.pl3     1 RES1    0.0000
     10 O1         7.2071    6.8321   -0.7815 O.3       1 RES1    0.0000
     11 O2         6.0350    4.6862    0.1469 O.2       1 RES1    0.0000
     12 O3         4.4711    5.2312    1.4343 O.2       1 RES1    0.0000
     13 O4         5.8059    8.0460    5.1690 O.2       1 RES1    0.0000
     14 O5         7.4011    9.4344    4.8644 O.2       1 RES1    0.0000
     15 H1         5.4175    6.4869    3.3604 H         1 RES1    0.0000
     16 H2         8.2780    9.6228    2.6272 H         1 RES1    0.0000
     17 H3         8.4428    8.8894    0.2749 H         1 RES1    0.0000
     18 H4         7.4898    7.1950   -2.7189 H         1 RES1    0.0000
     19 H5         7.5064    8.6871   -1.8024 H         1 RES1    0.0000
     20 H6         8.9187    7.6249   -1.8024 H         1 RES1    0.0000
     21 C8         2.7798    0.9648    2.0743 C.ar      2 RES2    0.0000
     22 C9         2.2084    0.0569    1.1853 C.ar      2 RES2    0.0000
     23 C10        2.3796    0.1492   -0.1741 C.ar      2 RES2    0.0000
     24 C11        3.1485    1.1646   -0.6507 C.ar      2 RES2    0.0000
     25 C12        3.7373    2.0940    0.1757 C.ar      2 RES2    0.0000
     26 C13        3.5403    1.9941    1.5382 C.ar      2 RES2    0.0000
     27 C14        3.0748    1.8044    4.2861 C.3       2 RES2    0.0000
     28 N3         1.3742   -1.0382    1.6532 N.pl3     2 RES2    0.0000
     29 N4         3.3597    1.2468   -2.1114 N.pl3     2 RES2    0.0000
     30 O6         2.5664    0.7941    3.3840 O.3       2 RES2    0.0000
     31 O7         0.3890   -1.3037    0.8951 O.2       2 RES2    0.0000
     32 O8         1.4402   -1.4137    2.7999 O.2       2 RES2    0.0000
     33 O9         2.8506    0.4046   -2.8151 O.2       2 RES2    0.0000
     34 O10        4.0553    2.1509   -2.5237 O.2       2 RES2    0.0000
     35 H7         1.8781   -0.5564   -0.8554 H         2 RES2    0.0000
     36 H8         4.3007    2.9083   -0.2291 H         2 RES2    0.0000
     37 H9         4.0854    2.6428    2.1996 H         2 RES2    0.0000
     38 H10        2.8716    1.3910    5.2545 H         2 RES2    0.0000
     39 H11        2.5502    2.7819    4.2922 H         2 RES2    0.0000
     40 H12        4.1467    2.0232    4.2922 H         2 RES2    0.0000
@<TRIPOS>BOND
     1    1    2 ar
     2    2    3 ar
     3    3    4 ar
     4    4    5 ar
     5    5    6 ar
     6    6    1 ar
     7    7   10 1
     8    8    2 1
     9    9    4 1
    10   10    1 1
    11   11    8 2
    12   12    8 2
    13   13    9 2
    14   14    9 2
    15   15    3 1
    16   16    5 1
    17   17    6 1
    18   18    7 1
    19   19    7 1
    20   20    7 1
    21   21   22 ar
    22   22   23 ar
    23   23   24 ar
    24   24   25 ar
    25   25   26 ar
    26   26   21 ar
    27   27   30 1
    28   28   22 1
    29   29   24 1
    30   30   21 1
    31   31   28 2
    32   32   28 2
    33   33   29 2
    34   34   29 2
    35   35   23 1
    36   36   25 1
    37   37   26 1
    38   38   27 1
    39   39   27 1
    40   40   27 1
@<TRIPOS>SUBSTRUCTURE
     1 RES1 1
     2 RES2 21

@<TRIPOS>CRYSIN
   8.7720   12.6450   15.4290  90.0000  81.8900  90.0000 231 1

