# MOL2 file generated by ConQuest
# Please check atom types

@<TRIPOS>MOLECULE
FESNEW05
    43    40     3
SMALL
NO_CHARGES
****
Generated from CSD

@<TRIPOS>ATOM
      1 C1         4.9876    5.3886    8.0421 C.ar      1 RES1    0.0000
      2 C2         5.8431    6.0706    8.9351 C.ar      1 RES1    0.0000
      3 C3         6.0653    5.6405   10.2236 C.ar      1 RES1    0.0000
      4 H1         6.6674    6.0979   10.7989 H         1 RES1    0.0000
      5 C4         5.3832    4.5225   10.6491 C.ar      1 RES1    0.0000
      6 C5         4.5348    3.8205    9.8140 C.ar      1 RES1    0.0000
      7 H2         4.0784    3.0515   10.1352 H         1 RES1    0.0000
      8 C6         4.3539    4.2416    8.5131 C.ar      1 RES1    0.0000
      9 H3         3.7906    3.7432    7.9317 H         1 RES1    0.0000
     10 C7         4.2364    5.0090    5.8133 C.3       1 RES1    0.0000
     11 H4         4.6945    4.1428    5.7981 H         1 RES1    0.0000
     12 H5         4.3030    5.4289    4.9309 H         1 RES1    0.0000
     13 H6         3.2930    4.8750    6.0411 H         1 RES1    0.0000
     14 O1         4.8528    5.8624    6.7996 O.3       1 RES1    0.0000
     15 O2         5.9928    8.0432    7.7310 O.2       1 RES1    0.0000
     16 O3         7.6642    7.4622    8.9691 O.2       1 RES1    0.0000
     17 O4         6.3981    4.6104   12.7310 O.2       1 RES1    0.0000
     18 O5         4.8240    3.1672   12.4230 O.2       1 RES1    0.0000
     19 N1         6.5520    7.2780    8.5076 N.pl3     1 RES1    0.0000
     20 N2         5.5502    4.0699   12.0294 N.pl3     1 RES1    0.0000
     21 C8         6.0712    0.9622    5.4937 C.ar      2 RES2    0.0000
     22 C9         5.4927    0.0421    6.3887 C.ar      2 RES2    0.0000
     23 C10        5.6751    0.1247    7.7501 C.ar      2 RES2    0.0000
     24 H7         5.2656   -0.5033    8.3342 H         2 RES2    0.0000
     25 C11        6.4621    1.1349    8.2449 C.ar      2 RES2    0.0000
     26 C12        7.0458    2.0672    7.4128 C.ar      2 RES2    0.0000
     27 H8         7.5809    2.7632    7.7768 H         2 RES2    0.0000
     28 C13        6.8485    1.9833    6.0506 C.ar      2 RES2    0.0000
     29 H9         7.2470    2.6304    5.4807 H         2 RES2    0.0000
     30 C14        6.3564    1.8165    3.2921 C.3       2 RES2    0.0000
     31 H10        5.9779    2.6885    3.5323 H         2 RES2    0.0000
     32 H11        6.1035    1.5921    2.3721 H         2 RES2    0.0000
     33 H12        7.3332    1.8539    3.3622 H         2 RES2    0.0000
     34 O6         5.8497    0.8110    4.1880 O.3       2 RES2    0.0000
     35 O7         4.6734   -1.3885    4.7897 O.2       2 RES2    0.0000
     36 O8         3.6814   -1.3290    6.6979 O.2       2 RES2    0.0000
     37 N3         4.5369   -1.0281    5.9545 N.pl3     2 RES2    0.0000
     38 O9         6.1698    0.3640   10.4019 O.2       2 RES2    0.0000
     39 O10        7.3934    2.1138   10.1164 O.2       2 RES2    0.0000
     40 N4         6.6874    1.2101    9.6856 N.pl3     2 RES2    0.0000
     41 O11        4.2243   -1.1875    4.8641 Du        3 SUP3    0.0000
     42 O12        4.8866   -2.2295    6.5832 Du        3 SUP3    0.0000
     43 N5         4.8894   -1.0926    5.8041 Du        3 SUP3    0.0000
@<TRIPOS>BOND
     1    1    2 ar
     2    2    3 ar
     3    3    4 1
     4    5    3 ar
     5    6    5 ar
     6    7    6 1
     7    8    1 ar
     8    9    8 1
     9   10   11 1
    10   12   10 1
    11   13   10 1
    12   14    1 1
    13   15   19 2
    14   16   19 2
    15   17   20 2
    16   18   20 2
    17   19    2 1
    18   20    5 1
    19   21   22 ar
    20   22   23 ar
    21   23   24 1
    22   25   23 ar
    23   26   25 ar
    24   27   26 1
    25   28   21 ar
    26   29   28 1
    27   30   31 1
    28   32   30 1
    29   33   30 1
    30   34   21 1
    31   35   37 2
    32   36   37 2
    33   37   22 1
    34   38   40 2
    35   39   40 2
    36   40   25 1
    37    6    8 ar
    38   10   14 1
    39   26   28 ar
    40   30   34 1
@<TRIPOS>SUBSTRUCTURE
     1 RES1 1
     2 RES2 21
     3 SUP3 41

@<TRIPOS>CRYSIN
   8.6230   12.6460   15.3050  90.0000  97.1450  90.0000 231 1

