# MOL2 file generated by ConQuest
# Please check atom types

@<TRIPOS>MOLECULE
FESNEW07
    43    40     3
SMALL
NO_CHARGES
****
Generated from CSD

@<TRIPOS>ATOM
      1 C1         4.9976    5.3930    8.0628 C.ar      1 RES1    0.0000
      2 C2         5.8496    6.0729    8.9550 C.ar      1 RES1    0.0000
      3 C3         6.0609    5.6452   10.2431 C.ar      1 RES1    0.0000
      4 H1         6.6568    6.0970   10.8127 H         1 RES1    0.0000
      5 C4         5.3704    4.5317   10.6732 C.ar      1 RES1    0.0000
      6 C5         4.5185    3.8379    9.8336 C.ar      1 RES1    0.0000
      7 H2         4.0567    3.0821   10.1496 H         1 RES1    0.0000
      8 C6         4.3487    4.2565    8.5344 C.ar      1 RES1    0.0000
      9 H3         3.7875    3.7690    7.9582 H         1 RES1    0.0000
     10 C7         4.2516    5.0142    5.8350 C.3       1 RES1    0.0000
     11 H4         4.6940    4.1517    5.8215 H         1 RES1    0.0000
     12 H5         4.3220    5.4278    4.9607 H         1 RES1    0.0000
     13 H6         3.3158    4.8943    6.0603 H         1 RES1    0.0000
     14 O1         4.8770    5.8585    6.8178 O.3       1 RES1    0.0000
     15 O2         6.0265    8.0381    7.7428 O.2       1 RES1    0.0000
     16 O3         7.6723    7.4641    9.0026 O.2       1 RES1    0.0000
     17 O4         6.3814    4.6102   12.7506 O.2       1 RES1    0.0000
     18 O5         4.7995    3.1861   12.4417 O.2       1 RES1    0.0000
     19 N1         6.5721    7.2751    8.5327 N.pl3     1 RES1    0.0000
     20 N2         5.5342    4.0826   12.0519 N.pl3     1 RES1    0.0000
     21 C8         6.0905    0.9663    5.5125 C.ar      2 RES2    0.0000
     22 C9         5.5133    0.0482    6.4043 C.ar      2 RES2    0.0000
     23 C10        5.6984    0.1307    7.7663 C.ar      2 RES2    0.0000
     24 H7         5.2997   -0.4930    8.3460 H         2 RES2    0.0000
     25 C11        6.4801    1.1454    8.2575 C.ar      2 RES2    0.0000
     26 C12        7.0630    2.0774    7.4253 C.ar      2 RES2    0.0000
     27 H8         7.5926    2.7665    7.7833 H         2 RES2    0.0000
     28 C13        6.8645    1.9905    6.0663 C.ar      2 RES2    0.0000
     29 H9         7.2553    2.6309    5.5006 H         2 RES2    0.0000
     30 C14        6.3744    1.8089    3.3083 C.3       2 RES2    0.0000
     31 H10        6.0134    2.6765    3.5510 H         2 RES2    0.0000
     32 H11        6.1083    1.5905    2.4013 H         2 RES2    0.0000
     33 H12        7.3423    1.8351    3.3639 H         2 RES2    0.0000
     34 O6         5.8688    0.8116    4.2083 O.3       2 RES2    0.0000
     35 O7         4.7095   -1.3966    4.8148 O.2       2 RES2    0.0000
     36 O8         3.6983   -1.3281    6.7137 O.2       2 RES2    0.0000
     37 O9         6.1890    0.3801   10.4141 O.2       2 RES2    0.0000
     38 O10        7.4080    2.1275   10.1269 O.2       2 RES2    0.0000
     39 N3         4.6100   -0.9669    5.9797 N.pl3     2 RES2    0.0000
     40 N4         6.7029    1.2255    9.6987 N.pl3     2 RES2    0.0000
     41 O11        4.2306   -1.1811    4.9014 Du        3 SUP3    0.0000
     42 O12        4.8880   -2.2064    6.6017 Du        3 SUP3    0.0000
     43 N5         4.7846   -1.2039    5.8397 Du        3 SUP3    0.0000
@<TRIPOS>BOND
     1    1    2 ar
     2    2    3 ar
     3    3    4 1
     4    5    3 ar
     5    6    5 ar
     6    7    6 1
     7    8    1 ar
     8    9    8 1
     9   10   11 1
    10   12   10 1
    11   13   10 1
    12   14    1 1
    13   15   19 2
    14   16   19 2
    15   17   20 2
    16   18   20 2
    17   19    2 1
    18   20    5 1
    19   21   22 ar
    20   22   23 ar
    21   23   24 1
    22   25   23 ar
    23   26   25 ar
    24   27   26 1
    25   28   21 ar
    26   29   28 1
    27   30   31 1
    28   32   30 1
    29   33   30 1
    30   34   21 1
    31   35   39 2
    32   36   39 2
    33   37   40 2
    34   38   40 2
    35   39   22 1
    36   40   25 1
    37    6    8 ar
    38   10   14 1
    39   26   28 ar
    40   30   34 1
@<TRIPOS>SUBSTRUCTURE
     1 RES1 1
     2 RES2 21
     3 SUP3 41

@<TRIPOS>CRYSIN
   8.6910   12.6730   15.3360  90.0000  97.4170  90.0000 231 1

