# MOL2 file generated by ConQuest
# Please check atom types

@<TRIPOS>MOLECULE
FESNEW17
    20    20     1
SMALL
NO_CHARGES
****
Generated from CSD

@<TRIPOS>ATOM
      1 C1        -1.7962    2.5362   14.2027 C.ar      1 RES1    0.0000
      2 C2        -1.5747    3.5560   15.1504 C.ar      1 RES1    0.0000
      3 C3        -1.0294    4.7700   14.7954 C.ar      1 RES1    0.0000
      4 H1        -0.9277    5.4289   15.4475 H         1 RES1    0.0000
      5 C4        -0.7078    4.9813   13.4677 C.ar      1 RES1    0.0000
      6 C5        -0.9012    4.0110   12.5067 C.ar      1 RES1    0.0000
      7 H2        -0.6906    4.1716   11.5921 H         1 RES1    0.0000
      8 C6        -1.4415    2.7969   12.8698 C.ar      1 RES1    0.0000
      9 H3        -1.5640    2.1382   12.1854 H         1 RES1    0.0000
     10 C7        -2.5318    0.3269   13.6489 C.3       1 RES1    0.0000
     11 H4        -3.1212    0.6383   12.9457 H         1 RES1    0.0000
     12 H5        -2.9089   -0.3750   14.1353 H         1 RES1    0.0000
     13 H6        -1.7081    0.0510   13.2523 H         1 RES1    0.0000
     14 N1        -1.8972    3.3756   16.5733 N.pl3     1 RES1    0.0000
     15 N2        -0.1221    6.2660   13.0924 N.pl3     1 RES1    0.0000
     16 O1        -2.3202    1.3699   14.6142 O.3       1 RES1    0.0000
     17 O2        -2.7258    2.5488   16.8829 O.2       1 RES1    0.0000
     18 O3        -1.3482    4.0885   17.3758 O.2       1 RES1    0.0000
     19 O4         0.3088    6.3978   11.9584 O.2       1 RES1    0.0000
     20 O5        -0.0851    7.1542   13.9279 O.2       1 RES1    0.0000
@<TRIPOS>BOND
     1    1    2 ar
     2    2    3 ar
     3    3    4 1
     4    5    3 ar
     5    6    5 ar
     6    7    6 1
     7    8    1 ar
     8    9    8 1
     9   10   11 1
    10   12   10 1
    11   13   10 1
    12   14    2 1
    13   15    5 1
    14   16    1 1
    15   17   14 2
    16   18   14 2
    17   19   15 2
    18   20   15 2
    19    6    8 ar
    20   10   16 1
@<TRIPOS>SUBSTRUCTURE
     1 RES1 1

@<TRIPOS>CRYSIN
   3.8800   13.7860   15.4040  90.0000  95.6390  90.0000 231 1

