# MOL2 file generated by ConQuest
# Please check atom types

@<TRIPOS>MOLECULE
FESNEW16
    20    20     1
SMALL
NO_CHARGES
****
Generated from CSD

@<TRIPOS>ATOM
      1 C1         2.2475    2.5408    1.1309 C.ar      1 RES1    0.0000
      2 C2         2.0095    3.5544    0.1868 C.ar      1 RES1    0.0000
      3 C3         1.4663    4.7710    0.5381 C.ar      1 RES1    0.0000
      4 H1         1.3467    5.4201   -0.1075 H         1 RES1    0.0000
      5 C4         1.1492    4.9849    1.8694 C.ar      1 RES1    0.0000
      6 C5         1.3555    4.0190    2.8309 C.ar      1 RES1    0.0000
      7 H2         1.1334    4.2032    3.7702 H         1 RES1    0.0000
      8 C6         1.8988    2.8062    2.4625 C.ar      1 RES1    0.0000
      9 H3         2.0080    2.1305    3.1316 H         1 RES1    0.0000
     10 C7         2.9954    0.3371    1.6805 C.3       1 RES1    0.0000
     11 H4         3.5466    0.6325    2.3932 H         1 RES1    0.0000
     12 H5         3.3662   -0.3569    1.2066 H         1 RES1    0.0000
     13 H6         2.1910    0.0565    2.0985 H         1 RES1    0.0000
     14 N1         2.3248    3.3736   -1.2408 N.pl3     1 RES1    0.0000
     15 N2         0.5611    6.2676    2.2428 N.pl3     1 RES1    0.0000
     16 O1         2.7662    1.3763    0.7209 O.3       1 RES1    0.0000
     17 O2         3.1476    2.5482   -1.5523 O.2       1 RES1    0.0000
     18 O3         1.7753    4.0848   -2.0388 O.2       1 RES1    0.0000
     19 O4         0.5026    7.1488    1.4072 O.2       1 RES1    0.0000
     20 O5         0.1507    6.4076    3.3808 O.2       1 RES1    0.0000
@<TRIPOS>BOND
     1    1    2 ar
     2    2    3 ar
     3    3    4 1
     4    5    3 ar
     5    6    5 ar
     6    7    6 1
     7    8    1 ar
     8    9    8 1
     9   10   11 1
    10   12   10 1
    11   13   10 1
    12   14    2 1
    13   15    5 1
    14   16    1 1
    15   17   14 2
    16   18   14 2
    17   19   15 2
    18   20   15 2
    19    6    8 ar
    20   10   16 1
@<TRIPOS>SUBSTRUCTURE
     1 RES1 1

@<TRIPOS>CRYSIN
   3.8968   13.7810   15.4190  90.0000  95.3820  90.0000 231 1

