# MOL2 file generated by ConQuest
# Please check atom types

@<TRIPOS>MOLECULE
FESNEW03
    43    40     3
SMALL
NO_CHARGES
****
Generated from CSD

@<TRIPOS>ATOM
      1 C1         1.7391    5.3911    7.1316 C.ar      1 RES1    0.0000
      2 C2         0.8841    6.0780    6.2447 C.ar      1 RES1    0.0000
      3 C3         0.6536    5.6462    4.9558 C.ar      1 RES1    0.0000
      4 H1         0.0514    6.1056    4.3836 H         1 RES1    0.0000
      5 C4         1.3292    4.5235    4.5287 C.ar      1 RES1    0.0000
      6 C5         2.1724    3.8159    5.3619 C.ar      1 RES1    0.0000
      7 H2         2.6208    3.0427    5.0410 H         1 RES1    0.0000
      8 C6         2.3620    4.2351    6.6628 C.ar      1 RES1    0.0000
      9 H3         2.9210    3.7316    7.2433 H         1 RES1    0.0000
     10 C7         2.4889    5.0091    9.3541 C.3       1 RES1    0.0000
     11 H4         2.0136    4.1526    9.3791 H         1 RES1    0.0000
     12 H5         2.4411    5.4344   10.2349 H         1 RES1    0.0000
     13 H6         3.4271    4.8554    9.1155 H         1 RES1    0.0000
     14 O1         1.8781    5.8690    8.3720 O.3       1 RES1    0.0000
     15 O2         0.7483    8.0593    7.4384 O.2       1 RES1    0.0000
     16 O3        -0.9454    7.4723    6.2161 O.2       1 RES1    0.0000
     17 O4         0.3137    4.6185    2.4473 O.2       1 RES1    0.0000
     18 O5         1.8846    3.1594    2.7565 O.2       1 RES1    0.0000
     19 N1         0.1807    7.2897    6.6694 N.pl3     1 RES1    0.0000
     20 N2         1.1590    4.0688    3.1501 N.pl3     1 RES1    0.0000
     21 C8         0.6543    0.9595    9.6736 C.ar      2 RES2    0.0000
     22 C9         1.2346    0.0410    8.7846 C.ar      2 RES2    0.0000
     23 C10        1.0525    0.1202    7.4203 C.ar      2 RES2    0.0000
     24 H7         1.4615   -0.5082    6.8374 H         2 RES2    0.0000
     25 C11        0.2647    1.1312    6.9259 C.ar      2 RES2    0.0000
     26 C12       -0.3203    2.0612    7.7529 C.ar      2 RES2    0.0000
     27 H8        -0.8554    2.7557    7.3872 H         2 RES2    0.0000
     28 C13       -0.1257    1.9797    9.1183 C.ar      2 RES2    0.0000
     29 H9        -0.5270    2.6255    9.6881 H         2 RES2    0.0000
     30 C14        0.3629    1.8230   11.8722 C.3       2 RES2    0.0000
     31 H10        0.7523    2.6913   11.6375 H         2 RES2    0.0000
     32 H11        0.6020    1.5966   12.7948 H         2 RES2    0.0000
     33 H12       -0.6121    1.8696   11.7890 H         2 RES2    0.0000
     34 O6         0.8726    0.8104   10.9823 O.3       2 RES2    0.0000
     35 O7         2.0516   -1.3981   10.3894 O.2       2 RES2    0.0000
     36 O8         3.0582   -1.3378    8.4662 O.2       2 RES2    0.0000
     37 O9         0.5635    0.3512    4.7683 O.2       2 RES2    0.0000
     38 O10       -0.6655    2.1089    5.0508 O.2       2 RES2    0.0000
     39 N3         2.1931   -1.0113    9.2549 N.pl3     2 RES2    0.0000
     40 N4         0.0418    1.2039    5.4840 N.pl3     2 RES2    0.0000
     41 O11        2.4892   -1.1971   10.3046 Du        3 SUP3    0.0000
     42 O12        1.8308   -2.2514    8.5869 Du        3 SUP3    0.0000
     43 N5         1.8504   -1.1238    9.2670 Du        3 SUP3    0.0000
@<TRIPOS>BOND
     1    1    2 ar
     2    2    3 ar
     3    3    4 1
     4    5    3 ar
     5    6    5 ar
     6    7    6 1
     7    8    1 ar
     8    9    8 1
     9   10   11 1
    10   12   10 1
    11   13   10 1
    12   14    1 1
    13   15   19 2
    14   16   19 2
    15   17   20 2
    16   18   20 2
    17   19    2 1
    18   20    5 1
    19   21   22 ar
    20   22   23 ar
    21   23   24 1
    22   25   23 ar
    23   26   25 ar
    24   27   26 1
    25   28   21 ar
    26   29   28 1
    27   30   31 1
    28   32   30 1
    29   33   30 1
    30   34   21 1
    31   35   39 2
    32   36   39 2
    33   37   40 2
    34   38   40 2
    35   39   22 1
    36   40   25 1
    37    6    8 ar
    38   10   14 1
    39   26   28 ar
    40   30   34 1
@<TRIPOS>SUBSTRUCTURE
     1 RES1 1
     2 RES2 21
     3 SUP3 41

@<TRIPOS>CRYSIN
   8.5930   12.6410   15.2630  90.0000  97.0650  90.0000 231 1

