# MOL2 file generated by ConQuest
# Please check atom types

@<TRIPOS>MOLECULE
FESNEW04
    43    40     3
SMALL
NO_CHARGES
****
Generated from CSD

@<TRIPOS>ATOM
      1 C1         0.6923    0.9307    8.0282 C.ar      1 RES1    0.0000
      2 C2         1.5462    0.2471    8.9180 C.ar      1 RES1    0.0000
      3 C3         1.7767    0.6780   10.2078 C.ar      1 RES1    0.0000
      4 H1         2.3787    0.2177   10.7810 H         1 RES1    0.0000
      5 C4         1.1001    1.8043   10.6345 C.ar      1 RES1    0.0000
      6 C5         0.2524    2.5055    9.7995 C.ar      1 RES1    0.0000
      7 H2        -0.1991    3.2772   10.1212 H         1 RES1    0.0000
      8 C6         0.0613    2.0869    8.4999 C.ar      1 RES1    0.0000
      9 H3        -0.5022    2.5860    7.9204 H         1 RES1    0.0000
     10 C7        -0.0642    1.3125    5.8046 C.3       1 RES1    0.0000
     11 H4        -0.9998    1.4709    6.0487 H         1 RES1    0.0000
     12 H5        -0.0239    0.8835    4.9248 H         1 RES1    0.0000
     13 H6         0.4140    2.1670    5.7727 H         1 RES1    0.0000
     14 O1         0.5496    0.4549    6.7856 O.3       1 RES1    0.0000
     15 O2         1.6872   -1.7336    7.7213 O.2       1 RES1    0.0000
     16 O3         3.3726   -1.1491    8.9478 O.2       1 RES1    0.0000
     17 O4         2.1148    1.7083   12.7159 O.2       1 RES1    0.0000
     18 O5         0.5452    3.1640   12.4075 O.2       1 RES1    0.0000
     19 N1         2.2528   -0.9634    8.4912 N.pl3     1 RES1    0.0000
     20 N2         1.2686    2.2553   12.0138 N.pl3     1 RES1    0.0000
     21 C8         1.7716    5.3675    5.4839 C.ar      2 RES2    0.0000
     22 C9         1.1884    6.2899    6.3726 C.ar      2 RES2    0.0000
     23 C10        1.3740    6.2079    7.7385 C.ar      2 RES2    0.0000
     24 H7         0.9651    6.8353    8.3223 H         2 RES2    0.0000
     25 C11        2.1635    5.1986    8.2330 C.ar      2 RES2    0.0000
     26 C12        2.7496    4.2603    7.4017 C.ar      2 RES2    0.0000
     27 H8         3.2846    3.5645    7.7657 H         2 RES2    0.0000
     28 C13        2.5501    4.3436    6.0372 C.ar      2 RES2    0.0000
     29 H9         2.9472    3.6961    5.4663 H         2 RES2    0.0000
     30 C14        2.0575    4.5059    3.2827 C.3       2 RES2    0.0000
     31 H10        3.0338    4.4695    3.3520 H         2 RES2    0.0000
     32 H11        1.8034    4.7265    2.3616 H         2 RES2    0.0000
     33 H12        1.6798    3.6354    3.5264 H         2 RES2    0.0000
     34 O6         1.5500    5.5150    4.1751 O.3       2 RES2    0.0000
     35 O7         0.3645    7.7290    4.7838 O.2       2 RES2    0.0000
     36 O8        -0.6285    7.6644    6.6893 O.2       2 RES2    0.0000
     37 N3         0.2401    7.2910    5.9335 N.pl3     2 RES2    0.0000
     38 O9         1.8712    5.9717   10.3906 O.2       2 RES2    0.0000
     39 O10        3.0981    4.2159   10.1057 O.2       2 RES2    0.0000
     40 N4         2.3906    5.1209    9.6727 N.pl3     2 RES2    0.0000
     41 O11       -0.0680    7.5163    4.8217 Du        3 SUP3    0.0000
     42 O12        0.5963    8.5745    6.5644 Du        3 SUP3    0.0000
     43 N5         0.5403    7.5657    5.8167 Du        3 SUP3    0.0000
@<TRIPOS>BOND
     1    1    2 ar
     2    2    3 ar
     3    3    4 1
     4    5    3 ar
     5    6    5 ar
     6    7    6 1
     7    8    1 ar
     8    9    8 1
     9   10   11 1
    10   12   10 1
    11   13   10 1
    12   14    1 1
    13   15   19 2
    14   16   19 2
    15   17   20 2
    16   18   20 2
    17   19    2 1
    18   20    5 1
    19   21   22 ar
    20   22   23 ar
    21   23   24 1
    22   25   23 ar
    23   26   25 ar
    24   27   26 1
    25   28   21 ar
    26   29   28 1
    27   30   31 1
    28   32   30 1
    29   33   30 1
    30   34   21 1
    31   35   37 2
    32   36   37 2
    33   37   22 1
    34   38   40 2
    35   39   40 2
    36   40   25 1
    37    6    8 ar
    38   10   14 1
    39   26   28 ar
    40   30   34 1
@<TRIPOS>SUBSTRUCTURE
     1 RES1 1
     2 RES2 21
     3 SUP3 41

@<TRIPOS>CRYSIN
   8.6080   12.6580   15.2820  90.0000  97.0220  90.0000 231 1

