# MOL2 file generated by ConQuest
# Please check atom types

@<TRIPOS>MOLECULE
FESNEW10
    42    40     3
SMALL
NO_CHARGES
****
Generated from CSD

@<TRIPOS>ATOM
      1 C1         4.9745    5.3847    8.1144 C.ar      1 RES1    0.0000
      2 C2         5.8180    6.0565    9.0142 C.ar      1 RES1    0.0000
      3 C3         6.0009    5.6377   10.3076 C.ar      1 RES1    0.0000
      4 H1         6.5850    6.0829   10.8782 H         1 RES1    0.0000
      5 C4         5.2951    4.5404   10.7338 C.ar      1 RES1    0.0000
      6 C5         4.4437    3.8566    9.8894 C.ar      1 RES1    0.0000
      7 H2         3.9696    3.1201   10.2011 H         1 RES1    0.0000
      8 C6         4.3018    4.2669    8.5924 C.ar      1 RES1    0.0000
      9 H3         3.7452    3.7895    8.0199 H         1 RES1    0.0000
     10 C7         4.2481    5.0078    5.8701 C.3       1 RES1    0.0000
     11 H4         4.6753    4.1482    5.8526 H         1 RES1    0.0000
     12 H5         4.3295    5.4236    5.0088 H         1 RES1    0.0000
     13 H6         3.3194    4.8988    6.0879 H         1 RES1    0.0000
     14 O1         4.8804    5.8366    6.8647 O.3       1 RES1    0.0000
     15 O2         6.0389    8.0013    7.7888 O.2       1 RES1    0.0000
     16 O3         7.6340    7.4458    9.0890 O.2       1 RES1    0.0000
     17 O4         6.2952    4.6098   12.8146 O.2       1 RES1    0.0000
     18 O5         4.6969    3.2126   12.5070 O.2       1 RES1    0.0000
     19 N1         6.5614    7.2461    8.5957 N.pl3     1 RES1    0.0000
     20 N2         5.4467    4.0927   12.1178 N.pl3     1 RES1    0.0000
     21 C8         6.0949    0.9700    5.5589 C.ar      2 RES2    0.0000
     22 C9         5.5225    0.0539    6.4534 C.ar      2 RES2    0.0000
     23 C10        5.7011    0.1499    7.8082 C.ar      2 RES2    0.0000
     24 H7         5.3024   -0.4640    8.3822 H         2 RES2    0.0000
     25 C11        6.4726    1.1616    8.3038 C.ar      2 RES2    0.0000
     26 C12        7.0559    2.0868    7.4683 C.ar      2 RES2    0.0000
     27 H8         7.5785    2.7714    7.8212 H         2 RES2    0.0000
     28 C13        6.8652    1.9959    6.1124 C.ar      2 RES2    0.0000
     29 H9         7.2548    2.6281    5.5530 H         2 RES2    0.0000
     30 C14        6.3863    1.7914    3.3437 C.3       2 RES2    0.0000
     31 H10        5.9958    2.6446    3.5430 H         2 RES2    0.0000
     32 H11        6.1634    1.5391    2.4456 H         2 RES2    0.0000
     33 H12        7.3412    1.8485    3.4314 H         2 RES2    0.0000
     34 O6         5.8794    0.8075    4.2573 O.3       2 RES2    0.0000
     35 O7         4.7441   -1.4275    4.8881 O.2       2 RES2    0.0000
     36 O8         3.6967   -1.3084    6.7406 O.2       2 RES2    0.0000
     37 O9         6.1748    0.4114   10.4583 O.2       2 RES2    0.0000
     38 O10        7.3839    2.1521   10.1731 O.2       2 RES2    0.0000
     39 N3         4.6762   -1.0439    5.9831 N.pl3     2 RES2    0.0000
     40 N4         6.6864    1.2498    9.7447 N.pl3     2 RES2    0.0000
     41 O11        4.2861   -1.1638    4.9614 Du        3 SUP3    0.0000
     42 O12        4.8839   -2.1832    6.6351 Du        3 SUP3    0.0000
@<TRIPOS>BOND
     1    1    2 ar
     2    2    3 ar
     3    3    4 1
     4    5    3 ar
     5    6    5 ar
     6    7    6 1
     7    8    1 ar
     8    9    8 1
     9   10   11 1
    10   12   10 1
    11   13   10 1
    12   14    1 1
    13   15   19 2
    14   16   19 2
    15   17   20 2
    16   18   20 2
    17   19    2 1
    18   20    5 1
    19   21   22 ar
    20   22   23 ar
    21   23   24 1
    22   25   23 ar
    23   26   25 ar
    24   27   26 1
    25   28   21 ar
    26   29   28 1
    27   30   31 1
    28   32   30 1
    29   33   30 1
    30   34   21 1
    31   35   39 2
    32   36   39 2
    33   37   40 2
    34   38   40 2
    35   39   22 1
    36   40   25 1
    37    6    8 ar
    38   10   14 1
    39   26   28 ar
    40   30   34 1
@<TRIPOS>SUBSTRUCTURE
     1 RES1 1
     2 RES2 21
     3 SUP3 41

@<TRIPOS>CRYSIN
   8.7940   12.6780   15.4370  90.0000  98.0520  90.0000 231 1

