# MOL2 file generated by ConQuest
# Please check atom types

@<TRIPOS>MOLECULE
FESNEW09
    43    40     3
SMALL
NO_CHARGES
****
Generated from CSD

@<TRIPOS>ATOM
      1 C1         0.5970    0.9516    8.1002 C.ar      1 RES1    0.0000
      2 C2         1.4375    0.2771    8.9980 C.ar      1 RES1    0.0000
      3 C3         1.6311    0.6971   10.2920 C.ar      1 RES1    0.0000
      4 H1         2.2175    0.2522   10.8605 H         1 RES1    0.0000
      5 C4         0.9258    1.7995   10.7177 C.ar      1 RES1    0.0000
      6 C5         0.0745    2.4900    9.8726 C.ar      1 RES1    0.0000
      7 H2        -0.3956    3.2296   10.1828 H         1 RES1    0.0000
      8 C6        -0.0682    2.0730    8.5715 C.ar      1 RES1    0.0000
      9 H3        -0.6213    2.5515    7.9970 H         1 RES1    0.0000
     10 C7        -0.1403    1.3309    5.8609 C.3       1 RES1    0.0000
     11 H4        -1.0667    1.4462    6.0859 H         1 RES1    0.0000
     12 H5        -0.0697    0.9139    4.9991 H         1 RES1    0.0000
     13 H6         0.2923    2.1864    5.8386 H         1 RES1    0.0000
     14 O1         0.4948    0.4966    6.8524 O.3       1 RES1    0.0000
     15 O2         1.6525   -1.6707    7.7785 O.2       1 RES1    0.0000
     16 O3         3.2614   -1.1093    9.0649 O.2       1 RES1    0.0000
     17 O4         1.9282    1.7301   12.7974 O.2       1 RES1    0.0000
     18 O5         0.3368    3.1333   12.4897 O.2       1 RES1    0.0000
     19 N1         2.1811   -0.9137    8.5805 N.pl3     1 RES1    0.0000
     20 N2         1.0817    2.2470   12.1006 N.pl3     1 RES1    0.0000
     21 C8         1.7082    5.3693    5.5484 C.ar      2 RES2    0.0000
     22 C9         1.1319    6.2872    6.4400 C.ar      2 RES2    0.0000
     23 C10        1.3125    6.1922    7.7969 C.ar      2 RES2    0.0000
     24 H7         0.9153    6.8065    8.3709 H         2 RES2    0.0000
     25 C11        2.0854    5.1820    8.2910 C.ar      2 RES2    0.0000
     26 C12        2.6713    4.2520    7.4565 C.ar      2 RES2    0.0000
     27 H8         3.1928    3.5680    7.8107 H         2 RES2    0.0000
     28 C13        2.4795    4.3431    6.0985 C.ar      2 RES2    0.0000
     29 H9         2.8687    3.7125    5.5379 H         2 RES2    0.0000
     30 C14        1.9978    4.5415    3.3323 C.3       2 RES2    0.0000
     31 H10        2.9552    4.5110    3.3948 H         2 RES2    0.0000
     32 H11        1.7418    4.7709    2.4362 H         2 RES2    0.0000
     33 H12        1.6350    3.6808    3.5581 H         2 RES2    0.0000
     34 O6         1.4898    5.5292    4.2429 O.3       2 RES2    0.0000
     35 O7         0.3351    7.7444    4.8495 O.2       2 RES2    0.0000
     36 O8        -0.6896    7.6506    6.7285 O.2       2 RES2    0.0000
     37 N3         0.1820    7.3629    6.0141 N.pl3     2 RES2    0.0000
     38 O9         1.7882    5.9375   10.4487 O.2       2 RES2    0.0000
     39 O10        3.0015    4.1942   10.1588 O.2       2 RES2    0.0000
     40 N4         2.3013    5.0967    9.7337 N.pl3     2 RES2    0.0000
     41 O11       -0.1581    7.4859    4.9731 Du        3 SUP3    0.0000
     42 O12        0.4897    8.5227    6.6262 Du        3 SUP3    0.0000
     43 N5         0.5086    7.4592    5.8661 Du        3 SUP3    0.0000
@<TRIPOS>BOND
     1    1    2 ar
     2    2    3 ar
     3    3    4 1
     4    5    3 ar
     5    6    5 ar
     6    7    6 1
     7    8    1 ar
     8    9    8 1
     9   10   11 1
    10   12   10 1
    11   13   10 1
    12   14    1 1
    13   15   19 2
    14   16   19 2
    15   17   20 2
    16   18   20 2
    17   19    2 1
    18   20    5 1
    19   21   22 ar
    20   22   23 ar
    21   23   24 1
    22   25   23 ar
    23   26   25 ar
    24   27   26 1
    25   28   21 ar
    26   29   28 1
    27   30   31 1
    28   32   30 1
    29   33   30 1
    30   34   21 1
    31   35   37 2
    32   36   37 2
    33   37   22 1
    34   38   40 2
    35   39   40 2
    36   40   25 1
    37    6    8 ar
    38   10   14 1
    39   26   28 ar
    40   30   34 1
@<TRIPOS>SUBSTRUCTURE
     1 RES1 1
     2 RES2 21
     3 SUP3 41

@<TRIPOS>CRYSIN
   8.7670   12.6750   15.4110  90.0000  97.9120  90.0000 231 1

