# MOL2 file generated by ConQuest
# Please check atom types

@<TRIPOS>MOLECULE
FESNEW08
    43    40     3
SMALL
NO_CHARGES
****
Generated from CSD

@<TRIPOS>ATOM
      1 C1         6.0090    0.9476    0.4637 C.ar      1 RES1    0.0000
      2 C2         6.8582    0.2686    1.3562 C.ar      1 RES1    0.0000
      3 C3         7.0597    0.6956    2.6470 C.ar      1 RES1    0.0000
      4 H1         7.6535    0.2446    3.2185 H         1 RES1    0.0000
      5 C4         6.3648    1.8028    3.0786 C.ar      1 RES1    0.0000
      6 C5         5.5135    2.4932    2.2342 C.ar      1 RES1    0.0000
      7 H2         5.0461    3.2461    2.5483 H         1 RES1    0.0000
      8 C6         5.3530    2.0754    0.9364 C.ar      1 RES1    0.0000
      9 H3         4.7914    2.5604    0.3595 H         1 RES1    0.0000
     10 C7         5.2677    1.3272   -1.7711 C.3       1 RES1    0.0000
     11 H4         4.3325    1.4488   -1.5460 H         1 RES1    0.0000
     12 H5         5.3385    0.9101   -2.6442 H         1 RES1    0.0000
     13 H6         5.7113    2.1902   -1.7882 H         1 RES1    0.0000
     14 O1         5.8948    0.4842   -0.7846 O.3       1 RES1    0.0000
     15 O2         7.0467   -1.6882    0.1430 O.2       1 RES1    0.0000
     16 O3         8.6787   -1.1198    1.4126 O.2       1 RES1    0.0000
     17 O4         7.3749    1.7289    5.1550 O.2       1 RES1    0.0000
     18 O5         5.7877    3.1449    4.8466 O.2       1 RES1    0.0000
     19 N1         7.5873   -0.9263    0.9372 N.pl3     1 RES1    0.0000
     20 N2         6.5269    2.2523    4.4556 N.pl3     1 RES1    0.0000
     21 C8         7.1072    5.3686   -2.0878 C.ar      2 RES2    0.0000
     22 C9         6.5325    6.2883   -1.1965 C.ar      2 RES2    0.0000
     23 C10        6.7143    6.2001    0.1639 C.ar      2 RES2    0.0000
     24 H7         6.3119    6.8217    0.7433 H         2 RES2    0.0000
     25 C11        7.4954    5.1870    0.6576 C.ar      2 RES2    0.0000
     26 C12        8.0750    4.2554   -0.1784 C.ar      2 RES2    0.0000
     27 H8         8.6022    3.5629    0.1782 H         2 RES2    0.0000
     28 C13        7.8778    4.3466   -1.5341 C.ar      2 RES2    0.0000
     29 H9         8.2706    3.7074   -2.1005 H         2 RES2    0.0000
     30 C14        7.3949    4.5333   -4.2955 C.3       2 RES2    0.0000
     31 H10        8.3619    4.4971   -4.2283 H         2 RES2    0.0000
     32 H11        7.1425    4.7633   -5.2032 H         2 RES2    0.0000
     33 H12        7.0224    3.6681   -4.0653 H         2 RES2    0.0000
     34 O6         6.8879    5.5277   -3.3913 O.3       2 RES2    0.0000
     35 O7         5.7124    7.7533   -2.7798 O.2       2 RES2    0.0000
     36 O8         4.7163    7.6608   -0.8978 O.2       2 RES2    0.0000
     37 O9         7.2044    5.9467    2.8118 O.2       2 RES2    0.0000
     38 O10        8.4191    4.2024    2.5247 O.2       2 RES2    0.0000
     39 N3         5.5830    7.3794   -1.6237 N.pl3     2 RES2    0.0000
     40 N4         7.7174    5.1047    2.0980 N.pl3     2 RES2    0.0000
     41 O11        5.2748    7.4795   -2.6960 Du        3 SUP3    0.0000
     42 O12        5.8941    8.5315   -0.9992 Du        3 SUP3    0.0000
     43 N5         5.8949    7.4199   -1.7654 Du        3 SUP3    0.0000
@<TRIPOS>BOND
     1    1    2 ar
     2    2    3 ar
     3    3    4 1
     4    5    3 ar
     5    6    5 ar
     6    7    6 1
     7    8    1 ar
     8    9    8 1
     9   10   11 1
    10   12   10 1
    11   13   10 1
    12   14    1 1
    13   15   19 2
    14   16   19 2
    15   17   20 2
    16   18   20 2
    17   19    2 1
    18   20    5 1
    19   21   22 ar
    20   22   23 ar
    21   23   24 1
    22   25   23 ar
    23   26   25 ar
    24   27   26 1
    25   28   21 ar
    26   29   28 1
    27   30   31 1
    28   32   30 1
    29   33   30 1
    30   34   21 1
    31   35   39 2
    32   36   39 2
    33   37   40 2
    34   38   40 2
    35   39   22 1
    36   40   25 1
    37    6    8 ar
    38   10   14 1
    39   26   28 ar
    40   30   34 1
@<TRIPOS>SUBSTRUCTURE
     1 RES1 1
     2 RES2 21
     3 SUP3 41

@<TRIPOS>CRYSIN
   8.7210   12.6750   15.3660  90.0000  97.5800  90.0000 231 1

