# MOL2 file generated by ConQuest
# Please check atom types

@<TRIPOS>MOLECULE
FESNEW18
    20    20     1
SMALL
NO_CHARGES
****
Generated from CSD

@<TRIPOS>ATOM
      1 C1        -1.8545    2.5344   14.1819 C.ar      1 RES1    0.0000
      2 C2        -1.6360    3.5545   15.1274 C.ar      1 RES1    0.0000
      3 C3        -1.0942    4.7711   14.7746 C.ar      1 RES1    0.0000
      4 H1        -0.9610    5.4364   15.4233 H         1 RES1    0.0000
      5 C4        -0.7632    4.9812   13.4502 C.ar      1 RES1    0.0000
      6 C5        -0.9469    4.0066   12.4910 C.ar      1 RES1    0.0000
      7 H2        -0.7357    4.1621   11.6180 H         1 RES1    0.0000
      8 C6        -1.4869    2.7925   12.8562 C.ar      1 RES1    0.0000
      9 H3        -1.5990    2.1293   12.1721 H         1 RES1    0.0000
     10 C7        -2.5790    0.3234   13.6296 C.3       1 RES1    0.0000
     11 H4        -3.1248    0.6192   12.9114 H         1 RES1    0.0000
     12 H5        -2.9462   -0.3806   14.1130 H         1 RES1    0.0000
     13 H6        -1.7439    0.0386   13.2405 H         1 RES1    0.0000
     14 N1        -1.9681    3.3817   16.5491 N.pl3     1 RES1    0.0000
     15 N2        -0.1766    6.2664   13.0763 N.pl3     1 RES1    0.0000
     16 O1        -2.3757    1.3681   14.5952 O.3       1 RES1    0.0000
     17 O2        -2.8004    2.5500   16.8583 O.2       1 RES1    0.0000
     18 O3        -1.4184    4.0910   17.3532 O.2       1 RES1    0.0000
     19 O4        -0.1499    7.1584   13.9082 O.2       1 RES1    0.0000
     20 O5         0.2664    6.3946   11.9445 O.2       1 RES1    0.0000
@<TRIPOS>BOND
     1    1    2 ar
     2    2    3 ar
     3    3    4 1
     4    5    3 ar
     5    6    5 ar
     6    7    6 1
     7    8    1 ar
     8    9    8 1
     9   10   11 1
    10   12   10 1
    11   13   10 1
    12   14    2 1
    13   15    5 1
    14   16    1 1
    15   17   14 2
    16   18   14 2
    17   19   15 2
    18   20   15 2
    19    6    8 ar
    20   10   16 1
@<TRIPOS>SUBSTRUCTURE
     1 RES1 1

@<TRIPOS>CRYSIN
   3.8760   13.7910   15.3880  90.0000  95.8820  90.0000 231 1

