# MOL2 file generated by ConQuest
# Please check atom types

@<TRIPOS>MOLECULE
FESPIF
    62    66     1
SMALL
NO_CHARGES
****
Generated from CSD

@<TRIPOS>ATOM
      1 C1        10.9685    2.6180    0.8274 C.2       1 RES1    0.0000
      2 C2         9.8529    3.4885    0.9913 C.2       1 RES1    0.0000
      3 C3         8.4614    1.5524    1.5483 C.ar      1 RES1    0.0000
      4 C4         6.9497   -0.1256    1.7513 C.ar      1 RES1    0.0000
      5 C5         7.9343   -1.0993    1.4464 C.ar      1 RES1    0.0000
      6 C6         9.2888   -0.5631    1.2924 C.ar      1 RES1    0.0000
      7 H1         9.9833   -1.1643    1.1407 H         1 RES1    0.0000
      8 C7         9.5848    0.7313    1.3560 C.ar      1 RES1    0.0000
      9 C8        10.9573    1.1800    1.2457 C.3       1 RES1    0.0000
     10 H2        11.3531    0.6753    0.5041 H         1 RES1    0.0000
     11 C9        11.7820    0.8637    2.4577 C.3       1 RES1    0.0000
     12 H3        12.6913    1.1531    2.2776 H         1 RES1    0.0000
     13 H4        11.8051   -0.1010    2.5549 H         1 RES1    0.0000
     14 C10       11.3541    1.4739    3.8428 C.2       1 RES1    0.0000
     15 C11       12.1969    1.4111    4.9590 C.ar      1 RES1    0.0000
     16 C12       13.2262    0.4734    5.1704 C.ar      1 RES1    0.0000
     17 H5        13.3599   -0.1705    4.5139 H         1 RES1    0.0000
     18 C13       13.9945    0.4397    6.2054 C.ar      1 RES1    0.0000
     19 H6        14.6445   -0.2243    6.2652 H         1 RES1    0.0000
     20 C14       13.8795    1.3864    7.2312 C.ar      1 RES1    0.0000
     21 H7        14.4571    1.4133    7.9590 H         1 RES1    0.0000
     22 C15       12.8332    2.2793    7.0788 C.ar      1 RES1    0.0000
     23 H8        12.7098    2.9254    7.7376 H         1 RES1    0.0000
     24 C16       11.9660    2.2703    6.0147 C.ar      1 RES1    0.0000
     25 H9        11.2298    2.8401    6.0039 H         1 RES1    0.0000
     26 C17        7.5787   -2.4677    1.4456 C.ar      1 RES1    0.0000
     27 H10        8.2419   -3.1116    1.3529 H         1 RES1    0.0000
     28 C18        6.2792   -2.8581    1.5774 C.ar      1 RES1    0.0000
     29 H11        6.0276   -3.7420    1.4349 H         1 RES1    0.0000
     30 C19        5.3404   -1.8957    1.9329 C.ar      1 RES1    0.0000
     31 H12        4.4738   -2.1716    2.1267 H         1 RES1    0.0000
     32 C20        5.6376   -0.5474    2.0118 C.ar      1 RES1    0.0000
     33 H13        4.9779    0.0695    2.2332 H         1 RES1    0.0000
     34 C21        7.6955    3.8228    2.0846 C.ar      1 RES1    0.0000
     35 C22        6.4298    3.9843    1.5996 C.ar      1 RES1    0.0000
     36 H14        6.1458    3.4705    0.8772 H         1 RES1    0.0000
     37 C23        5.5594    4.8973    2.1688 C.ar      1 RES1    0.0000
     38 H15        4.7333    5.0768    1.7820 H         1 RES1    0.0000
     39 C24        5.9288    5.5008    3.2529 C.ar      1 RES1    0.0000
     40 H16        5.3121    6.0751    3.6443 H         1 RES1    0.0000
     41 C25        7.1595    5.3707    3.8903 C.ar      1 RES1    0.0000
     42 H17        7.3895    5.8351    4.6633 H         1 RES1    0.0000
     43 C26        8.0397    4.4442    3.2268 C.ar      1 RES1    0.0000
     44 H18        8.8725    4.2669    3.5999 H         1 RES1    0.0000
     45 C27        8.8441    5.7655    0.3432 C.3       1 RES1    0.0000
     46 H19        8.5953    6.2434    1.1507 H         1 RES1    0.0000
     47 H20        8.0672    5.2608    0.0559 H         1 RES1    0.0000
     48 C28        9.1844    6.8379   -0.7814 C.3       1 RES1    0.0000
     49 H21        9.3580    6.3780   -1.6188 H         1 RES1    0.0000
     50 H22        8.4180    7.4167   -0.9147 H         1 RES1    0.0000
     51 C29       10.2280    7.5715   -0.4673 C.3       1 RES1    0.0000
     52 H23       10.2406    8.3612   -1.0151 H         1 RES1    0.0000
     53 H24       11.0320    7.0667   -0.6205 H         1 RES1    0.0000
     54 H25       10.1783    7.8227    0.4558 H         1 RES1    0.0000
     55 N1        12.1610    3.1340    0.2444 N.pl3     1 RES1    0.0000
     56 N2         8.6568    2.9478    1.4410 N.pl3     1 RES1    0.0000
     57 N3         7.2219    1.2069    1.7337 N.ar      1 RES1    0.0000
     58 N4         9.8837    4.8368    0.6742 N.3       1 RES1    0.0000
     59 O1        12.3025    4.3522   -0.0866 O.2       1 RES1    0.0000
     60 O2        13.0898    2.2569    0.1379 O.2       1 RES1    0.0000
     61 O3        10.2761    2.0998    3.8198 O.2       1 RES1    0.0000
     62 H26       10.6492    4.9130    1.1032 H         1 RES1    0.0000
@<TRIPOS>BOND
     1    1    2 2
     2    2   56 1
     3    3    8 ar
     4    4    5 ar
     5    5    6 ar
     6    6    7 1
     7    8    6 ar
     8    9    1 1
     9   10    9 1
    10   11    9 1
    11   12   11 1
    12   13   11 1
    13   14   11 1
    14   15   14 1
    15   16   15 ar
    16   17   16 1
    17   18   16 ar
    18   19   18 1
    19   20   18 ar
    20   21   20 1
    21   22   20 ar
    22   23   22 1
    23   24   15 ar
    24   25   24 1
    25   26    5 ar
    26   27   26 1
    27   28   26 ar
    28   29   28 1
    29   30   28 ar
    30   31   30 1
    31   32    4 ar
    32   33   32 1
    33   34   35 ar
    34   35   36 1
    35   37   35 ar
    36   38   37 1
    37   39   37 ar
    38   40   39 1
    39   41   39 ar
    40   42   41 1
    41   43   34 ar
    42   44   43 1
    43   45   46 1
    44   47   45 1
    45   48   45 1
    46   49   48 1
    47   50   48 1
    48   51   48 1
    49   52   51 1
    50   53   51 1
    51   54   51 1
    52   55    1 1
    53   56    3 1
    54   57    3 ar
    55   58    2 1
    56   59   55 2
    57   60   55 2
    58   61   14 2
    59   62   58 1
    60    4   57 ar
    61    8    9 1
    62   22   24 ar
    63   30   32 ar
    64   34   56 1
    65   41   43 ar
    66   45   58 1
@<TRIPOS>SUBSTRUCTURE
     1 RES1 1

@<TRIPOS>CRYSIN
  14.4740   22.4340    8.8587  90.0000 120.1400  90.0000   9 1

