# MOL2 file generated by ConQuest
# Please check atom types

@<TRIPOS>MOLECULE
FESPOK
    29    30     1
SMALL
NO_CHARGES
****
Generated from CSD

@<TRIPOS>ATOM
      1 C1         4.0823    6.9647    4.6238 C.ar      1 RES1    0.0000
      2 C2         4.2190    5.5754    4.8630 C.ar      1 RES1    0.0000
      3 C3         4.0318    5.1460    6.1694 C.ar      1 RES1    0.0000
      4 H1         4.1080    4.2386    6.3557 H         1 RES1    0.0000
      5 C4         3.7363    6.0090    7.2019 C.ar      1 RES1    0.0000
      6 H2         3.6388    5.6734    8.0638 H         1 RES1    0.0000
      7 C5         3.5831    7.3613    6.9814 C.ar      1 RES1    0.0000
      8 C6         3.7546    7.8154    5.6819 C.ar      1 RES1    0.0000
      9 H3         3.6474    8.7231    5.5086 H         1 RES1    0.0000
     10 C7         4.3072    7.5471    3.2755 C.2       1 RES1    0.0000
     11 O1         4.7282    6.8899    2.3407 O.2       1 RES1    0.0000
     12 C8         4.0144    9.0253    3.0706 C.3       1 RES1    0.0000
     13 H4         3.0667    9.1814    3.2086 H         1 RES1    0.0000
     14 H5         4.4989    9.5386    3.7359 H         1 RES1    0.0000
     15 C9         4.3912    9.5114    1.7163 C.2       1 RES1    0.0000
     16 C10        3.7846    9.2717    0.4512 C.2       1 RES1    0.0000
     17 O2         2.7029    8.5189    0.2637 O.3       1 RES1    0.0000
     18 H6         2.6264    8.3439   -0.5337 H         1 RES1    0.0000
     19 C11        4.5481    4.5490    3.8146 C.3       1 RES1    0.0000
     20 H7         4.5470    3.6749    4.2114 H         1 RES1    0.0000
     21 H8         5.4161    4.7334    3.4479 H         1 RES1    0.0000
     22 H9         3.8908    4.5841    3.1154 H         1 RES1    0.0000
     23 C12        3.2623    8.3110    8.1056 C.3       1 RES1    0.0000
     24 H10        2.6581    7.8871    8.7203 H         1 RES1    0.0000
     25 H11        2.8526    9.1023    7.7482 H         1 RES1    0.0000
     26 H12        4.0707    8.5489    8.5646 H         1 RES1    0.0000
     27 O3         5.4657   10.5382    0.1749 O.3       1 RES1    0.0000
     28 N1         5.4122   10.2834    1.5384 N.2       1 RES1    0.0000
     29 N2         4.4221    9.8995   -0.4868 N.2       1 RES1    0.0000
@<TRIPOS>BOND
     1    1    2 ar
     2    2    3 ar
     3    3    4 1
     4    5    3 ar
     5    6    5 1
     6    7    5 ar
     7    8    1 ar
     8    9    8 1
     9   10    1 1
    10   11   10 2
    11   12   10 1
    12   13   12 1
    13   14   12 1
    14   15   12 1
    15   16   15 1
    16   17   16 1
    17   18   17 1
    18   19    2 1
    19   20   19 1
    20   21   19 1
    21   22   19 1
    22   23    7 1
    23   24   23 1
    24   25   23 1
    25   26   23 1
    26   27   28 1
    27   28   15 2
    28   29   16 2
    29    7    8 ar
    30   27   29 1
@<TRIPOS>SUBSTRUCTURE
     1 RES1 1

@<TRIPOS>CRYSIN
   7.4678   14.6410   11.1330  90.0000 107.9800  90.0000  14 1

