# MOL2 file generated by ConQuest
# Please check atom types

@<TRIPOS>MOLECULE
FESQEB
    39    40     1
SMALL
NO_CHARGES
****
Generated from CSD

@<TRIPOS>ATOM
      1 O1         2.5205    6.6570   -0.3427 O.2       1 RES1    0.0000
      2 O2         2.6583    4.5220   -0.6064 O.2       1 RES1    0.0000
      3 O3         3.7860    7.4821    2.1027 O.3       1 RES1    0.0000
      4 H1         3.9407    7.7555    1.3236 H         1 RES1    0.0000
      5 O4         2.7389    6.5740    5.4601 O.2       1 RES1    0.0000
      6 O5         8.3891    7.4770    3.8393 O.2       1 RES1    0.0000
      7 O6         7.9297    6.0296    5.4976 O.3       1 RES1    0.0000
      8 N1         2.6313    5.5203    0.0936 N.pl3     1 RES1    0.0000
      9 C1         2.7272    5.3351    1.5838 C.3       1 RES1    0.0000
     10 H2         2.8275    4.3580    1.7725 H         1 RES1    0.0000
     11 C2         1.4322    5.8123    2.2175 C.3       1 RES1    0.0000
     12 H3         0.6647    5.3376    1.8113 H         1 RES1    0.0000
     13 H4         1.3169    6.7819    2.0568 H         1 RES1    0.0000
     14 C3         1.4749    5.5372    3.7222 C.3       1 RES1    0.0000
     15 H5         0.7023    5.9810    4.1525 H         1 RES1    0.0000
     16 H6         1.3881    4.5625    3.8738 H         1 RES1    0.0000
     17 C4         2.7413    6.0223    4.3713 C.2       1 RES1    0.0000
     18 C5         4.0379    5.7077    3.6510 C.3       1 RES1    0.0000
     19 H7         4.1608    4.7171    3.7014 H         1 RES1    0.0000
     20 C6         3.9622    6.0681    2.1548 C.3       1 RES1    0.0000
     21 C7         5.2560    5.6439    1.4632 C.3       1 RES1    0.0000
     22 H8         5.2193    5.9121    0.5105 H         1 RES1    0.0000
     23 H9         5.3369    4.6583    1.4995 H         1 RES1    0.0000
     24 C8         6.4864    6.2740    2.1163 C.3       1 RES1    0.0000
     25 H10        6.4489    7.2577    2.0123 H         1 RES1    0.0000
     26 H11        7.3035    5.9480    1.6640 H         1 RES1    0.0000
     27 C9         6.5505    5.9200    3.6037 C.3       1 RES1    0.0000
     28 H12        6.6485    4.9286    3.6865 H         1 RES1    0.0000
     29 C10        5.2595    6.3358    4.3181 C.3       1 RES1    0.0000
     30 H13        5.3003    6.0508    5.2648 H         1 RES1    0.0000
     31 H14        5.1751    7.3216    4.2987 H         1 RES1    0.0000
     32 C11        7.7278    6.5712    4.2879 C.2       1 RES1    0.0000
     33 C12        8.9859    6.6248    6.3119 C.3       1 RES1    0.0000
     34 H15        8.8713    7.6069    6.3612 H         1 RES1    0.0000
     35 H16        9.8737    6.4308    5.9192 H         1 RES1    0.0000
     36 C13        8.8739    6.0143    7.6816 C.3       1 RES1    0.0000
     37 H17        8.0247    6.2822    8.0902 H         1 RES1    0.0000
     38 H18        9.6165    6.3251    8.2399 H         1 RES1    0.0000
     39 H19        8.9072    5.0373    7.6072 H         1 RES1    0.0000
@<TRIPOS>BOND
     1    1    8 2
     2    2    8 2
     3    3    4 1
     4    5   17 2
     5    6   32 2
     6    7   32 1
     7    8    9 1
     8    9   10 1
     9   11    9 1
    10   12   11 1
    11   13   11 1
    12   14   11 1
    13   15   14 1
    14   16   14 1
    15   17   14 1
    16   18   17 1
    17   19   18 1
    18   20    3 1
    19   21   20 1
    20   22   21 1
    21   23   21 1
    22   24   21 1
    23   25   24 1
    24   26   24 1
    25   27   24 1
    26   28   27 1
    27   29   18 1
    28   30   29 1
    29   31   29 1
    30   32   27 1
    31   33    7 1
    32   34   33 1
    33   35   33 1
    34   36   33 1
    35   37   36 1
    36   38   36 1
    37   39   36 1
    38    9   20 1
    39   18   20 1
    40   27   29 1
@<TRIPOS>SUBSTRUCTURE
     1 RES1 1

@<TRIPOS>CRYSIN
  12.1090    9.9749   12.4800  90.0000 113.7800  90.0000  14 1

