# MOL2 file generated by ConQuest
# Please check atom types

@<TRIPOS>MOLECULE
FETNID
    28    28     1
SMALL
NO_CHARGES
****
Generated from CSD

@<TRIPOS>ATOM
      1 O1         5.9023    2.3435    4.0584 O.2       1 RES1    0.0000
      2 O2         5.0321    3.2738    2.1938 O.3       1 RES1    0.0000
      3 O3         4.5298   -0.4231    0.5326 O.2       1 RES1    0.0000
      4 O4         3.7763    0.6730   -1.2556 O.3       1 RES1    0.0000
      5 N1         4.8971    1.9625    1.7364 N.2       1 RES1    0.0000
      6 N2         4.1070    4.0722   -0.8513 N.1       1 RES1    0.0000
      7 C1         5.6273    4.7250    3.9560 C.ar      1 RES1    0.0000
      8 C2         6.0221    4.8795    5.2674 C.ar      1 RES1    0.0000
      9 H1         6.2114    4.1304    5.7857 H         1 RES1    0.0000
     10 C3         6.1380    6.1390    5.8129 C.ar      1 RES1    0.0000
     11 H2         6.4103    6.2458    6.6953 H         1 RES1    0.0000
     12 C4         5.8485    7.2441    5.0341 C.ar      1 RES1    0.0000
     13 H3         5.9304    8.0983    5.3931 H         1 RES1    0.0000
     14 C5         5.4344    7.0831    3.7280 C.ar      1 RES1    0.0000
     15 H4         5.2382    7.8305    3.2110 H         1 RES1    0.0000
     16 C6         5.3104    5.8268    3.1838 C.ar      1 RES1    0.0000
     17 H5         5.0180    5.7200    2.3078 H         1 RES1    0.0000
     18 C7         5.5469    3.3110    3.4792 C.2       1 RES1    0.0000
     19 C8         4.5031    1.9528    0.5365 C.2       1 RES1    0.0000
     20 C9         4.2677    3.1403   -0.2514 C.1       1 RES1    0.0000
     21 C10        4.2789    0.5849   -0.0596 C.2       1 RES1    0.0000
     22 C11        3.4801   -0.6051   -1.9178 C.3       1 RES1    0.0000
     23 H6         4.2986   -1.0015   -2.2573 H         1 RES1    0.0000
     24 H7         3.0767   -1.2223   -1.2880 H         1 RES1    0.0000
     25 C12        2.5849   -0.3438   -2.9881 C.3       1 RES1    0.0000
     26 H8         1.8977    0.2564   -2.6901 H         1 RES1    0.0000
     27 H9         2.1852   -1.1673   -3.2783 H         1 RES1    0.0000
     28 H10        3.0646    0.0550   -3.7176 H         1 RES1    0.0000
@<TRIPOS>BOND
     1    1   18 2
     2    2    5 1
     3    3   21 2
     4    4   21 1
     5    5   19 2
     6    6   20 3
     7    7    8 ar
     8    8    9 1
     9   10    8 ar
    10   11   10 1
    11   12   10 ar
    12   13   12 1
    13   14   12 ar
    14   15   14 1
    15   16    7 ar
    16   17   16 1
    17   18    2 1
    18   19   20 1
    19   21   19 1
    20   22    4 1
    21   23   22 1
    22   24   22 1
    23   25   22 1
    24   26   25 1
    25   27   25 1
    26   28   25 1
    27    7   18 1
    28   14   16 ar
@<TRIPOS>SUBSTRUCTURE
     1 RES1 1

@<TRIPOS>CRYSIN
  11.8940    8.0894   16.0380  90.0000 126.1040  90.0000  14 1

