# MOL2 file generated by ConQuest
# Please check atom types

@<TRIPOS>MOLECULE
FETPOJ
    35    36     1
SMALL
NO_CHARGES
****
Generated from CSD

@<TRIPOS>ATOM
      1 O1         8.3492    1.9108    0.7702 O.3       1 RES1    0.0000
      2 O2         4.2279    0.7001    2.2748 O.2       1 RES1    0.0000
      3 N1         6.0129    4.3372    1.6816 N.2       1 RES1    0.0000
      4 N2         7.8655    3.2207    0.9717 N.2       1 RES1    0.0000
      5 N3         6.0140    1.9220    1.6383 N.am      1 RES1    0.0000
      6 N4         3.0792    3.0013    3.2672 N.2       1 RES1    0.0000
      7 N5         4.1500    5.4426    2.3934 N.pl3     1 RES1    0.0000
      8 C1         6.6514    3.1637    1.4161 C.2       1 RES1    0.0000
      9 C2         4.7599    1.7659    2.1392 C.2       1 RES1    0.0000
     10 C3         4.1087    3.0670    2.5460 C.2       1 RES1    0.0000
     11 C4         2.5519    4.2852    3.8321 C.3       1 RES1    0.0000
     12 C5         2.7800    5.4364    2.9263 C.3       1 RES1    0.0000
     13 C6         4.8172    4.3075    2.1618 C.2       1 RES1    0.0000
     14 C7         9.7169    1.9319    0.5028 C.3       1 RES1    0.0000
     15 C8         3.4736    4.5702    5.1597 C.3       1 RES1    0.0000
     16 C9         1.1728    4.0175    4.2897 C.3       1 RES1    0.0000
     17 C10        1.8228    5.2963    1.6760 C.3       1 RES1    0.0000
     18 C11        2.5129    6.8094    3.5157 C.3       1 RES1    0.0000
     19 H1         6.4542    1.2020    1.4312 H         1 RES1    0.0000
     20 H2         4.5168    6.1960    2.2221 H         1 RES1    0.0000
     21 H3        10.0769    1.0409    0.4143 H         1 RES1    0.0000
     22 H4        10.2030    2.3917    1.2052 H         1 RES1    0.0000
     23 H5         9.8590    2.4164   -0.3390 H         1 RES1    0.0000
     24 H6         3.3360    5.4649    5.4233 H         1 RES1    0.0000
     25 H7         3.1641    3.9530    5.8753 H         1 RES1    0.0000
     26 H8         4.3792    4.3868    4.9337 H         1 RES1    0.0000
     27 H9         0.7910    4.8329    4.6324 H         1 RES1    0.0000
     28 H10        1.1923    3.3582    5.0090 H         1 RES1    0.0000
     29 H11        0.6649    3.6804    3.5591 H         1 RES1    0.0000
     30 H12        1.3642    6.1712    1.5630 H         1 RES1    0.0000
     31 H13        2.3501    5.1427    0.8662 H         1 RES1    0.0000
     32 H14        1.2037    4.6098    1.8266 H         1 RES1    0.0000
     33 H15        1.5706    6.9519    3.5967 H         1 RES1    0.0000
     34 H16        2.9119    7.4848    2.9376 H         1 RES1    0.0000
     35 H17        2.9348    6.8652    4.3876 H         1 RES1    0.0000
@<TRIPOS>BOND
     1    1    4 1
     2    2    9 2
     3    3    8 1
     4    4    8 2
     5    5    8 1
     6    6   10 2
     7    7   12 1
     8    9    5 1
     9   10    9 1
    10   11    6 1
    11   12   11 1
    12   13    3 2
    13   14    1 1
    14   15   11 1
    15   16   11 1
    16   17   12 1
    17   18   12 1
    18   19    5 1
    19   20    7 1
    20   21   14 1
    21   22   14 1
    22   23   14 1
    23   24   15 1
    24   25   15 1
    25   26   15 1
    26   27   16 1
    27   28   16 1
    28   29   16 1
    29   30   17 1
    30   31   17 1
    31   32   17 1
    32   33   18 1
    33   34   18 1
    34   35   18 1
    35    7   13 1
    36   10   13 1
@<TRIPOS>SUBSTRUCTURE
     1 RES1 1

@<TRIPOS>CRYSIN
  11.4640   12.3920   18.8310  90.0000  90.0000  90.0000  23 1

