# MOL2 file generated by ConQuest
# Please check atom types

@<TRIPOS>MOLECULE
FETXAD
    19    18     1
SMALL
NO_CHARGES
****
Generated from CSD

@<TRIPOS>ATOM
      1 C1         7.5185   -0.2340    2.0855 C.2       1 RES1    0.0000
      2 O1         7.1221    0.1008    3.2263 O.2       1 RES1    0.0000
      3 N1         7.1333    0.4236    1.0054 N.am      1 RES1    0.0000
      4 O2         6.2607    1.5036    1.1190 O.3       1 RES1    0.0000
      5 C2         8.4180   -1.4532    1.8852 C.3       1 RES1    0.0000
      6 C3         9.3658   -1.5720    3.0739 C.3       1 RES1    0.0000
      7 C4         9.2412   -1.3716    0.5978 C.3       1 RES1    0.0000
      8 C5         7.4915   -2.6700    1.8503 C.3       1 RES1    0.0000
      9 H1         7.2658    0.1920    0.2292 H         1 RES1    0.0000
     10 H2         5.4690    1.0920    1.3053 H         1 RES1    0.0000
     11 H3         9.8712   -2.3880    2.9992 H         1 RES1    0.0000
     12 H4         8.8942   -1.7040    3.9059 H         1 RES1    0.0000
     13 H5         9.9273   -0.7680    3.1586 H         1 RES1    0.0000
     14 H6         9.8487   -0.5400    0.6277 H         1 RES1    0.0000
     15 H7         8.6359   -1.3920   -0.1893 H         1 RES1    0.0000
     16 H8         9.8150   -2.1600    0.5580 H         1 RES1    0.0000
     17 H9         6.8503   -2.6160    1.1857 H         1 RES1    0.0000
     18 H10        8.1305   -3.4440    1.7038 H         1 RES1    0.0000
     19 H11        6.9289   -2.7240    2.7301 H         1 RES1    0.0000
@<TRIPOS>BOND
     1    1    2 2
     2    3    1 1
     3    4    3 1
     4    5    1 1
     5    6    5 1
     6    7    5 1
     7    8    5 1
     8    9    3 1
     9   10    4 1
    10   11    6 1
    11   12    6 1
    12   13    6 1
    13   14    7 1
    14   15    7 1
    15   16    7 1
    16   17    8 1
    17   18    8 1
    18   19    8 1
@<TRIPOS>SUBSTRUCTURE
     1 RES1 1

@<TRIPOS>CRYSIN
  11.2300   12.0000    9.9640  90.0000  90.0000  90.0000  60 1

