# MOL2 file generated by ConQuest
# Please check atom types

@<TRIPOS>MOLECULE
FEVGEV
    32    34     1
SMALL
NO_CHARGES
****
Generated from CSD

@<TRIPOS>ATOM
      1 O1         4.3658    3.0204   -0.7718 O.3       1 RES1    0.0000
      2 O2         5.6162    0.3420   -2.2844 O.2       1 RES1    0.0000
      3 N1         5.3049    3.3245    0.2510 N.3       1 RES1    0.0000
      4 C1         6.0787    2.1427    0.6215 C.3       1 RES1    0.0000
      5 H1         5.4497    1.4467    0.9667 H         1 RES1    0.0000
      6 C2         6.8357    1.5571   -0.6141 C.3       1 RES1    0.0000
      7 H2         7.5150    2.2310   -0.9061 H         1 RES1    0.0000
      8 C3         5.8283    1.4009   -1.7272 C.2       1 RES1    0.0000
      9 C4         5.0214    2.6481   -2.0322 C.3       1 RES1    0.0000
     10 H3         5.6298    3.3835   -2.3309 H         1 RES1    0.0000
     11 C5         3.9207    2.4514   -3.0387 C.3       1 RES1    0.0000
     12 H4         3.3450    1.7117   -2.7526 H         1 RES1    0.0000
     13 H5         4.3108    2.2427   -3.9135 H         1 RES1    0.0000
     14 H6         3.3883    3.2721   -3.1055 H         1 RES1    0.0000
     15 C6         7.5665    0.2628   -0.3002 C.3       1 RES1    0.0000
     16 H7         6.9383   -0.3810    0.0890 H         1 RES1    0.0000
     17 H8         8.2887    0.4420    0.3378 H         1 RES1    0.0000
     18 H9         7.9435   -0.1079   -1.1255 H         1 RES1    0.0000
     19 C7         7.0170    2.5399    1.7416 C.ar      1 RES1    0.0000
     20 C8         7.5846    3.8242    1.7165 C.ar      1 RES1    0.0000
     21 C9         7.1212    4.7653    0.7132 C.2       1 RES1    0.0000
     22 H10        7.5963    5.5734    0.5622 H         1 RES1    0.0000
     23 C10        6.0289    4.4916    0.0066 C.2       1 RES1    0.0000
     24 H11        5.7398    5.0939   -0.6684 H         1 RES1    0.0000
     25 C11        8.5245    4.1576    2.6921 C.ar      1 RES1    0.0000
     26 H12        8.9338    5.0142    2.6757 H         1 RES1    0.0000
     27 C12        8.8684    3.2517    3.6863 C.ar      1 RES1    0.0000
     28 H13        9.5159    3.4878    4.3402 H         1 RES1    0.0000
     29 C13        8.2724    2.0103    3.7267 C.ar      1 RES1    0.0000
     30 H14        8.4940    1.3986    4.4191 H         1 RES1    0.0000
     31 C14        7.3475    1.6533    2.7527 C.ar      1 RES1    0.0000
     32 H15        6.9400    0.7960    2.7809 H         1 RES1    0.0000
@<TRIPOS>BOND
     1    1    3 1
     2    2    8 2
     3    3    4 1
     4    4    5 1
     5    6    4 1
     6    7    6 1
     7    8    6 1
     8    9    1 1
     9   10    9 1
    10   11    9 1
    11   12   11 1
    12   13   11 1
    13   14   11 1
    14   15    6 1
    15   16   15 1
    16   17   15 1
    17   18   15 1
    18   19    4 1
    19   20   19 ar
    20   21   20 1
    21   22   21 1
    22   23    3 1
    23   24   23 1
    24   25   20 ar
    25   26   25 1
    26   27   25 ar
    27   28   27 1
    28   29   27 ar
    29   30   29 1
    30   31   19 ar
    31   32   31 1
    32    8    9 1
    33   21   23 2
    34   29   31 ar
@<TRIPOS>SUBSTRUCTURE
     1 RES1 1

@<TRIPOS>CRYSIN
   9.9308   11.7237   10.6426  90.0000 108.1630  90.0000  14 1

