# MOL2 file generated by ConQuest
# Please check atom types

@<TRIPOS>MOLECULE
FEVZOV
    42    46     1
SMALL
NO_CHARGES
****
Generated from CSD

@<TRIPOS>ATOM
      1 O1         1.8568    1.4089    2.6705 O.2       1 RES1    0.0000
      2 O2         1.2453    3.2277    3.6143 O.2       1 RES1    0.0000
      3 O3         6.5944    6.3138    3.9275 O.2       1 RES1    0.0000
      4 O4         4.5551    6.6370    4.5072 O.2       1 RES1    0.0000
      5 O5         6.3616    0.9295    0.7716 O.2       1 RES1    0.0000
      6 O6         7.8636    2.3970    1.5432 O.3       1 RES1    0.0000
      7 N1         2.0832    2.5373    3.0843 N.pl3     1 RES1    0.0000
      8 N2         5.4353    5.9842    3.9648 N.pl3     1 RES1    0.0000
      9 C1         4.3564    2.3237    2.1904 C.ar      1 RES1    0.0000
     10 C2         3.4467    3.0664    2.8925 C.ar      1 RES1    0.0000
     11 C3         3.7561    4.2713    3.4691 C.ar      1 RES1    0.0000
     12 C4         5.0327    4.7143    3.3301 C.ar      1 RES1    0.0000
     13 C5         5.9989    4.0054    2.6508 C.ar      1 RES1    0.0000
     14 C6         5.6473    2.7872    2.0711 C.ar      1 RES1    0.0000
     15 C7         6.6542    1.9252    1.3586 C.2       1 RES1    0.0000
     16 C8         9.0008    1.7123    0.9811 C.3       1 RES1    0.0000
     17 C9         9.6893    2.5309   -0.1058 C.3       1 RES1    0.0000
     18 C10       10.0255    3.8314    0.6689 C.3       1 RES1    0.0000
     19 C11       10.3759    3.2691    2.0286 C.3       1 RES1    0.0000
     20 C12       11.3857    3.7804    3.0086 C.3       1 RES1    0.0000
     21 C13        9.9337    3.6784    3.4121 C.3       1 RES1    0.0000
     22 C14        9.4972    2.4416    4.1671 C.3       1 RES1    0.0000
     23 C15       10.0392    1.2495    3.3675 C.3       1 RES1    0.0000
     24 C16       10.1994    1.7557    1.9290 C.3       1 RES1    0.0000
     25 C17       11.2399    1.2431    0.9728 C.2       1 RES1    0.0000
     26 C18       10.9381    1.7213   -0.2136 C.2       1 RES1    0.0000
     27 H1         4.1086    1.4981    1.7838 H         1 RES1    0.0000
     28 H2         3.1016    4.7768    3.9534 H         1 RES1    0.0000
     29 H3         6.8729    4.3446    2.5824 H         1 RES1    0.0000
     30 H4         8.7977    0.8249    0.6969 H         1 RES1    0.0000
     31 H5         9.1949    2.6322   -0.9106 H         1 RES1    0.0000
     32 H6        10.7562    4.2968    0.2831 H         1 RES1    0.0000
     33 H7         9.2714    4.4172    0.7177 H         1 RES1    0.0000
     34 H8        12.0190    3.1952    3.3924 H         1 RES1    0.0000
     35 H9        11.7712    4.6391    2.8821 H         1 RES1    0.0000
     36 H10        9.4325    4.4803    3.5096 H         1 RES1    0.0000
     37 H11        9.8400    2.4410    5.0517 H         1 RES1    0.0000
     38 H12        8.5384    2.3983    4.2086 H         1 RES1    0.0000
     39 H13       10.8928    0.9856    3.7107 H         1 RES1    0.0000
     40 H14        9.4464    0.5164    3.3975 H         1 RES1    0.0000
     41 H15       11.9879    0.6923    1.1833 H         1 RES1    0.0000
     42 H16       11.4375    1.5721   -1.0143 H         1 RES1    0.0000
@<TRIPOS>BOND
     1    1    7 2
     2    2    7 2
     3    3    8 2
     4    4    8 2
     5    5   15 2
     6    6   15 1
     7    7   10 1
     8    8   12 1
     9    9   10 ar
    10   10   11 ar
    11   11   12 ar
    12   12   13 ar
    13   13   14 ar
    14   14    9 ar
    15   15   14 1
    16   16    6 1
    17   17   16 1
    18   18   17 1
    19   19   18 1
    20   20   19 1
    21   21   19 1
    22   22   21 1
    23   23   22 1
    24   24   16 1
    25   25   24 1
    26   26   17 1
    27   27    9 1
    28   28   11 1
    29   29   13 1
    30   30   16 1
    31   31   17 1
    32   32   18 1
    33   33   18 1
    34   34   20 1
    35   35   20 1
    36   36   21 1
    37   37   22 1
    38   38   22 1
    39   39   23 1
    40   40   23 1
    41   41   25 1
    42   42   26 1
    43   19   24 1
    44   20   21 1
    45   23   24 1
    46   25   26 2
@<TRIPOS>SUBSTRUCTURE
     1 RES1 1

@<TRIPOS>CRYSIN
  25.1140    6.3750   10.5180  90.0000  99.5900  90.0000  14 2

