# MOL2 file generated by ConQuest
# Please check atom types

@<TRIPOS>MOLECULE
FEWMAV
    54    55     1
SMALL
NO_CHARGES
****
Generated from CSD

@<TRIPOS>ATOM
      1 C1         4.8573    2.5301    6.1371 C.ar      1 RES1    0.0000
      2 C2         4.3161    3.7799    6.2143 C.ar      1 RES1    0.0000
      3 C3         3.0858    4.0338    5.6445 C.ar      1 RES1    0.0000
      4 C4         2.3898    3.0181    5.0134 C.ar      1 RES1    0.0000
      5 C5         2.9467    1.7522    4.9512 C.ar      1 RES1    0.0000
      6 C6         4.1822    1.5073    5.5140 C.ar      1 RES1    0.0000
      7 C7         1.0656    3.3351    4.4405 C.2       1 RES1    0.0000
      8 O1         0.5709    4.4102    4.3743 O.2       1 RES1    0.0000
      9 O2         0.4603    2.2024    3.9880 O.3       1 RES1    0.0000
     10 N1        -0.8744    2.4347    3.4724 N.2       1 RES1    0.0000
     11 C8        -1.3615    1.3290    3.0741 C.2       1 RES1    0.0000
     12 C9        -0.6904    0.0072    3.0540 C.3       1 RES1    0.0000
     13 C10       -2.7639    1.4424    2.5774 C.2       1 RES1    0.0000
     14 C11       -3.0205    0.8680    1.2280 C.ar      1 RES1    0.0000
     15 C12       -2.2886    1.2588    0.1284 C.ar      1 RES1    0.0000
     16 C13       -2.5862    0.7329   -1.1297 C.ar      1 RES1    0.0000
     17 C14       -3.5617   -0.1891   -1.2752 C.ar      1 RES1    0.0000
     18 C15       -4.2586   -0.6249   -0.2047 C.ar      1 RES1    0.0000
     19 C16       -4.0032   -0.1026    1.0434 C.ar      1 RES1    0.0000
     20 C17       -3.7092    2.0277    3.3179 C.2       1 RES1    0.0000
     21 C18       -5.1181    2.2672    2.8523 C.3       1 RES1    0.0000
     22 C19       -3.4745    2.3608    4.7766 C.2       1 RES1    0.0000
     23 O3        -3.3845    1.4424    5.5772 O.2       1 RES1    0.0000
     24 N2        -3.4747    3.6520    5.1468 N.am      1 RES1    0.0000
     25 C20       -3.3278    3.9564    6.5805 C.3       1 RES1    0.0000
     26 C21       -1.8994    4.0068    6.9989 C.3       1 RES1    0.0000
     27 C22       -3.3319    4.7523    4.2118 C.3       1 RES1    0.0000
     28 C23       -4.4614    5.7554    4.2770 C.3       1 RES1    0.0000
     29 H1         5.7081    2.3663    6.5223 H         1 RES1    0.0000
     30 H2         4.7488    4.4588    6.6899 H         1 RES1    0.0000
     31 H3         2.6005    4.9072    5.6214 H         1 RES1    0.0000
     32 H4         2.4502    1.0949    4.4887 H         1 RES1    0.0000
     33 H5         4.5100    0.5582    5.5040 H         1 RES1    0.0000
     34 H6        -1.5349    1.8764    0.3030 H         1 RES1    0.0000
     35 H7        -2.0042    1.1093   -1.7216 H         1 RES1    0.0000
     36 H8        -3.7919   -0.5655   -2.1811 H         1 RES1    0.0000
     37 H9        -4.9439   -1.2876   -0.3080 H         1 RES1    0.0000
     38 H10       -4.5406   -0.3998    1.8280 H         1 RES1    0.0000
     39 H11        0.0954   -0.0594    3.4523 H         1 RES1    0.0000
     40 H12       -1.2614   -0.7077    3.2546 H         1 RES1    0.0000
     41 H13       -0.7502   -0.4394    2.2042 H         1 RES1    0.0000
     42 H14       -5.7351    1.6892    3.2085 H         1 RES1    0.0000
     43 H15       -5.4925    3.1352    3.2306 H         1 RES1    0.0000
     44 H16       -5.1929    2.2060    1.9143 H         1 RES1    0.0000
     45 H17       -3.7782    4.8279    6.7541 H         1 RES1    0.0000
     46 H18       -3.7911    3.2612    7.0751 H         1 RES1    0.0000
     47 H19       -1.3125    4.5632    6.4240 H         1 RES1    0.0000
     48 H20       -1.8779    4.2229    7.8306 H         1 RES1    0.0000
     49 H21       -1.4905    3.3585    6.8424 H         1 RES1    0.0000
     50 H22       -3.2750    4.3489    3.2998 H         1 RES1    0.0000
     51 H23       -2.4629    5.1503    4.3262 H         1 RES1    0.0000
     52 H24       -5.4473    5.2133    4.2068 H         1 RES1    0.0000
     53 H25       -4.2523    6.3730    3.5717 H         1 RES1    0.0000
     54 H26       -4.4082    6.2452    4.9743 H         1 RES1    0.0000
@<TRIPOS>BOND
     1    1    2 ar
     2    2    3 ar
     3    3    4 ar
     4    4    5 ar
     5    5    6 ar
     6    6    1 ar
     7    7    4 1
     8    8    7 2
     9    9    7 1
    10   10    9 1
    11   11   10 2
    12   12   11 1
    13   13   11 1
    14   14   13 1
    15   15   14 ar
    16   16   15 ar
    17   17   16 ar
    18   18   17 ar
    19   19   14 ar
    20   20   13 2
    21   21   20 1
    22   22   20 1
    23   23   22 2
    24   24   22 1
    25   25   24 1
    26   26   25 1
    27   27   24 1
    28   28   27 1
    29   29    1 1
    30   30    2 1
    31   31    3 1
    32   32    5 1
    33   33    6 1
    34   34   15 1
    35   35   16 1
    36   36   17 1
    37   37   18 1
    38   38   19 1
    39   39   12 1
    40   40   12 1
    41   41   12 1
    42   42   21 1
    43   43   21 1
    44   44   21 1
    45   45   25 1
    46   46   25 1
    47   47   26 1
    48   48   26 1
    49   49   26 1
    50   50   27 1
    51   51   27 1
    52   52   28 1
    53   53   28 1
    54   54   28 1
    55   18   19 ar
@<TRIPOS>SUBSTRUCTURE
     1 RES1 1

@<TRIPOS>CRYSIN
  11.8990   18.0080   10.0500  90.0000  93.3500  90.0000 231 1

