# MOL2 file generated by ConQuest
# Please check atom types

@<TRIPOS>MOLECULE
FEXBOZ
    13    13     1
SMALL
USER_CHARGES
****
Generated from CSD

@<TRIPOS>ATOM
      1 C1         5.8614    5.5158    3.7634 C.ar      1 RES1    0.0000
      2 C2         5.1527    6.6397    3.2936 C.ar      1 RES1    0.0000
      3 C3         4.0707    7.1430    4.0227 C.ar      1 RES1    0.0000
      4 C4         3.6911    6.5513    5.2041 C.ar      1 RES1    0.0000
      5 C5         4.3801    5.4332    5.6489 C.ar      1 RES1    0.0000
      6 C6         5.4495    4.9202    4.9561 C.ar      1 RES1    0.0000
      7 C7         6.9784    4.9087    3.0819 C.2       1 RES1    0.0000
      8 N1         7.6746    5.4255    2.0734 N.pl3     1 RES1    1.0000
      9 O1         7.4371    6.6022    1.5560 O.2       1 RES1   -1.0000
     10 C8         8.8420    4.6743    1.4570 C.3       1 RES1    0.0000
     11 C9         9.0273    3.3218    2.0533 C.3       1 RES1    0.0000
     12 C10        8.5245    4.5600   -0.0263 C.3       1 RES1    0.0000
     13 C11       10.0778    5.5206    1.6900 C.3       1 RES1    0.0000
@<TRIPOS>BOND
     1    1    2 ar
     2    2    3 ar
     3    3    4 ar
     4    4    5 ar
     5    5    6 ar
     6    6    1 ar
     7    7    1 1
     8    8    7 2
     9    9    8 1
    10   10    8 1
    11   11   10 1
    12   12   10 1
    13   13   10 1
@<TRIPOS>SUBSTRUCTURE
     1 RES1 1

@<TRIPOS>CRYSIN
   8.9940    9.6060   12.5280  90.0000  90.0000  90.0000  29 3

