# MOL2 file generated by ConQuest
# Please check atom types

@<TRIPOS>MOLECULE
FEXBUF
    17    17     1
SMALL
USER_CHARGES
****
Generated from CSD

@<TRIPOS>ATOM
      1 N1         9.5750    1.0353    0.9261 N.pl3     1 RES1    1.0000
      2 C1        10.8233    0.5045    0.9007 C.ar      1 RES1    0.0000
      3 C2        11.9089    1.3641    0.9134 C.ar      1 RES1    0.0000
      4 C3        11.7093    2.7246    0.8880 C.ar      1 RES1    0.0000
      5 C4        10.4302    3.2536    0.8944 C.ar      1 RES1    0.0000
      6 C5         9.3926    2.3932    0.8880 C.ar      1 RES1    0.0000
      7 O1         8.5448    0.2684    0.9641 O.2       1 RES1   -1.0000
      8 C6        10.8960   -0.9662    1.0022 C.3       1 RES1    0.0000
      9 N2        12.8369    3.6358    0.9324 N.pl3     1 RES1    0.0000
     10 O2        12.6126    4.8354    1.0149 O.2       1 RES1    0.0000
     11 O3        13.9657    3.1496    1.0783 O.2       1 RES1    0.0000
     12 H1        12.5078    1.0843    1.3320 H         1 RES1    0.0000
     13 H2        10.3513    4.0485    1.2876 H         1 RES1    0.0000
     14 H3         8.5768    2.6757    1.0529 H         1 RES1    0.0000
     15 H4        10.5855   -1.2067    1.8141 H         1 RES1    0.0000
     16 H5        10.6224   -1.4428   -0.0317 H         1 RES1    0.0000
     17 H6        11.6576   -1.1979    1.0212 H         1 RES1    0.0000
@<TRIPOS>BOND
     1    1    2 ar
     2    2    3 ar
     3    3    4 ar
     4    4    5 ar
     5    5    6 ar
     6    6    1 ar
     7    7    1 1
     8    8    2 1
     9    9    4 1
    10   10    9 2
    11   11    9 2
    12   12    3 1
    13   13    5 1
    14   14    6 1
    15   15    8 1
    16   16    8 1
    17   17    8 1
@<TRIPOS>SUBSTRUCTURE
     1 RES1 1

@<TRIPOS>CRYSIN
  12.3230    8.7440    6.3430  90.0000  90.0000  90.0000  29 1

