# MOL2 file generated by ConQuest
# Please check atom types

@<TRIPOS>MOLECULE
FEXKAW
    88    88     2
SMALL
NO_CHARGES
****
Generated from CSD

@<TRIPOS>ATOM
      1 C1         3.6873    8.4605    5.9288 C.2       1 RES1    0.0000
      2 C2         3.4750    8.0526    7.3977 C.3       1 RES1    0.0000
      3 C3         2.1555    7.2785    7.5925 C.3       1 RES1    0.0000
      4 H1         1.3643    7.8658    7.4179 H         1 RES1    0.0000
      5 C4         2.2002    6.0867    6.5943 C.2       1 RES1    0.0000
      6 H2         2.7854    5.3569    6.7587 H         1 RES1    0.0000
      7 C5         1.4326    6.0794    5.5239 C.2       1 RES1    0.0000
      8 H3         0.8460    6.8092    5.3556 H         1 RES1    0.0000
      9 H4         1.4654    5.3471    4.9191 H         1 RES1    0.0000
     10 C6         3.5580    9.3574    8.2238 C.2       1 RES1    0.0000
     11 C7         4.8580   10.1192    8.1834 C.3       1 RES1    0.0000
     12 H5         5.2259   10.1831    9.0905 H         1 RES1    0.0000
     13 H6         4.7001   11.0185    7.8291 H         1 RES1    0.0000
     14 H7         5.4937    9.6474    7.6064 H         1 RES1    0.0000
     15 C8         2.0748    6.6445    8.9716 C.3       1 RES1    0.0000
     16 H8         2.1301    7.3449    9.6561 H         1 RES1    0.0000
     17 H9         2.8173    6.0155    9.0867 H         1 RES1    0.0000
     18 H10        1.2240    6.1654    9.0627 H         1 RES1    0.0000
     19 C9         2.8447    9.7776    4.1752 C.3       1 RES1    0.0000
     20 H11        3.7166   10.2224    4.1208 H         1 RES1    0.0000
     21 H12        2.1355   10.4239    3.9740 H         1 RES1    0.0000
     22 H13        2.8119    9.0453    3.5261 H         1 RES1    0.0000
     23 C10        1.6606   11.2004   10.5113 C.ar      1 RES1    0.0000
     24 C11        1.7019   12.4413   11.2426 C.ar      1 RES1    0.0000
     25 C12        0.7260   12.7534   12.1637 C.ar      1 RES1    0.0000
     26 H14        0.7685   13.5790   12.6318 H         1 RES1    0.0000
     27 C13       -0.2787   11.9081   12.4079 C.ar      1 RES1    0.0000
     28 C14       -0.3455   10.6991   11.6943 C.ar      1 RES1    0.0000
     29 H15       -1.0684   10.1044   11.8550 H         1 RES1    0.0000
     30 C15        0.6078   10.3600   10.7732 C.ar      1 RES1    0.0000
     31 H16        0.5404    9.5319   10.3102 H         1 RES1    0.0000
     32 N1         2.4907    9.6965    8.8906 N.2       1 RES1    0.0000
     33 N2         2.6164   10.8588    9.6042 N.pl3     1 RES1    0.0000
     34 H17        3.3122   11.3822    9.4777 H         1 RES1    0.0000
     35 N3         2.8130   13.4021   11.0579 N.pl3     1 RES1    0.0000
     36 N4        -1.2298   12.1759   13.4631 N.pl3     1 RES1    0.0000
     37 O1         4.6028    8.1361    5.2519 O.2       1 RES1    0.0000
     38 O2         2.6506    9.2419    5.5353 O.3       1 RES1    0.0000
     39 O3         4.6169    7.2539    7.7671 O.3       1 RES1    0.0000
     40 H18        5.2436    7.3916    7.2243 H         1 RES1    0.0000
     41 O4         3.7865   13.0876   10.3405 O.2       1 RES1    0.0000
     42 O5         2.7152   14.4760   11.6045 O.2       1 RES1    0.0000
     43 O6        -1.0992   13.2080   14.1058 O.2       1 RES1    0.0000
     44 O7        -2.2050   11.3994   13.6528 O.2       1 RES1    0.0000
     45 C16       -0.0961   17.3510   12.2333 C.2       2 RES2    0.0000
     46 C17       -1.0159   17.0979   11.1148 C.3       2 RES2    0.0000
     47 C18       -2.2172   16.3804   11.7095 C.3       2 RES2    0.0000
     48 H19       -1.9402   15.4392   11.9094 H         2 RES2    0.0000
     49 C19       -2.6300   16.9996   12.9709 C.2       2 RES2    0.0000
     50 H20       -2.9154   17.9039   12.9114 H         2 RES2    0.0000
     51 C20       -2.6568   16.4664   14.1880 C.2       2 RES2    0.0000
     52 H21       -2.3828   15.5645   14.3171 H         2 RES2    0.0000
     53 H22       -2.9494   16.9849   14.9282 H         2 RES2    0.0000
     54 C21       -0.2414   16.3042   10.0445 C.2       2 RES2    0.0000
     55 C22        0.9120   16.9898    9.3625 C.3       2 RES2    0.0000
     56 H23        0.7703   16.9799    8.3921 H         2 RES2    0.0000
     57 H24        1.7444   16.5180    9.5751 H         2 RES2    0.0000
     58 H25        0.9723   17.9162    9.6738 H         2 RES2    0.0000
     59 C23       -3.3748   16.3189   10.7201 C.3       2 RES2    0.0000
     60 H26       -3.0856   15.8594    9.9053 H         2 RES2    0.0000
     61 H27       -3.6625   17.2281   10.4974 H         2 RES2    0.0000
     62 H28       -4.1238   15.8299   11.1237 H         2 RES2    0.0000
     63 C24        1.3387   16.4959   13.9021 C.3       2 RES2    0.0000
     64 H29        0.8103   16.6728   14.7080 H         2 RES2    0.0000
     65 H30        1.9275   17.2601   13.7237 H         2 RES2    0.0000
     66 H31        1.8802   15.6899   14.0349 H         2 RES2    0.0000
     67 C25       -0.3917   13.1638    8.5174 C.ar      2 RES2    0.0000
     68 C26        0.3307   12.3578    7.5710 C.ar      2 RES2    0.0000
     69 C27       -0.1773   11.1439    7.1927 C.ar      2 RES2    0.0000
     70 H32        0.3099   10.5934    6.5917 H         2 RES2    0.0000
     71 C28       -1.3555   10.7310    7.6659 C.ar      2 RES2    0.0000
     72 C29       -2.1122   11.4731    8.5591 C.ar      2 RES2    0.0000
     73 H33       -2.9493   11.1463    8.8678 H         2 RES2    0.0000
     74 C30       -1.6426   12.6723    8.9868 C.ar      2 RES2    0.0000
     75 H34       -2.1514   13.1859    9.6029 H         2 RES2    0.0000
     76 N5        -0.6626   15.0829    9.8711 N.2       2 RES2    0.0000
     77 N6         0.0692   14.3654    8.9134 N.pl3     2 RES2    0.0000
     78 H35        0.8139   14.6947    8.5781 H         2 RES2    0.0000
     79 N7         1.6290   12.6969    7.0674 N.pl3     2 RES2    0.0000
     80 N8        -1.9536    9.4188    7.1914 N.pl3     2 RES2    0.0000
     81 O8         0.1782   18.5108   12.6483 O.2       2 RES2    0.0000
     82 O9         0.4488   16.2993   12.7723 O.3       2 RES2    0.0000
     83 O10       -1.3808   18.3560   10.5860 O.3       2 RES2    0.0000
     84 H36       -2.1447   18.5649   10.8618 H         2 RES2    0.0000
     85 O11        2.1821   13.7338    7.4913 O.2       2 RES2    0.0000
     86 O12        2.1351   12.0481    6.1856 O.2       2 RES2    0.0000
     87 O13       -1.2719    8.7480    6.4083 O.2       2 RES2    0.0000
     88 O14       -3.0462    9.0797    7.6418 O.2       2 RES2    0.0000
@<TRIPOS>BOND
     1    1    2 1
     2    2    3 1
     3    3    4 1
     4    5    3 1
     5    6    5 1
     6    7    5 2
     7    8    7 1
     8    9    7 1
     9   10    2 1
    10   11   10 1
    11   12   11 1
    12   13   11 1
    13   14   11 1
    14   15    3 1
    15   16   15 1
    16   17   15 1
    17   18   15 1
    18   19   20 1
    19   21   19 1
    20   22   19 1
    21   23   24 ar
    22   24   25 ar
    23   25   26 1
    24   27   25 ar
    25   28   27 ar
    26   29   28 1
    27   30   23 ar
    28   31   30 1
    29   32   10 2
    30   33   23 1
    31   34   33 1
    32   35   24 1
    33   36   27 1
    34   37    1 2
    35   38    1 1
    36   39    2 1
    37   40   39 1
    38   41   35 2
    39   42   35 2
    40   43   36 2
    41   44   36 2
    42   45   46 1
    43   46   47 1
    44   47   48 1
    45   49   47 1
    46   50   49 1
    47   51   49 2
    48   52   51 1
    49   53   51 1
    50   54   46 1
    51   55   54 1
    52   56   55 1
    53   57   55 1
    54   58   55 1
    55   59   47 1
    56   60   59 1
    57   61   59 1
    58   62   59 1
    59   63   64 1
    60   65   63 1
    61   66   63 1
    62   67   68 ar
    63   68   69 ar
    64   69   70 1
    65   71   69 ar
    66   72   71 ar
    67   73   72 1
    68   74   67 ar
    69   75   74 1
    70   76   54 2
    71   77   67 1
    72   78   77 1
    73   79   68 1
    74   80   71 1
    75   81   45 2
    76   82   45 1
    77   83   46 1
    78   84   83 1
    79   85   79 2
    80   86   79 2
    81   87   80 2
    82   88   80 2
    83   19   38 1
    84   28   30 ar
    85   32   33 1
    86   63   82 1
    87   72   74 ar
    88   76   77 1
@<TRIPOS>SUBSTRUCTURE
     1 RES1 1
     2 RES2 45

@<TRIPOS>CRYSIN
  11.3229   24.5730   12.9782  90.0000 102.8720  90.0000  14 1

