# MOL2 file generated by ConQuest
# Please check atom types

@<TRIPOS>MOLECULE
FEXMED
    40    42     1
SMALL
NO_CHARGES
****
Generated from CSD

@<TRIPOS>ATOM
      1 O1         7.8924    0.1707    1.2394 O.3       1 RES1    0.0000
      2 H1         8.0329   -0.4848    0.7681 H         1 RES1    0.0000
      3 N1         8.6676    1.2523    0.7811 N.2       1 RES1    0.0000
      4 C1         7.6560    2.4235    2.6583 C.2       1 RES1    0.0000
      5 H2         7.0768    1.7316    2.8842 H         1 RES1    0.0000
      6 C2         7.7141    3.5124    3.4150 C.2       1 RES1    0.0000
      7 C3         8.5966    4.7045    3.1150 C.3       1 RES1    0.0000
      8 C4         8.4895    2.3105    1.4864 C.2       1 RES1    0.0000
      9 C5         9.7670    4.3582    2.1989 C.3       1 RES1    0.0000
     10 C6         9.2145    3.5471    1.0274 C.3       1 RES1    0.0000
     11 H3         8.6061    4.1014    0.5147 H         1 RES1    0.0000
     12 H4         9.9459    3.2900    0.4441 H         1 RES1    0.0000
     13 C7         6.9527    3.7733    4.7051 C.3       1 RES1    0.0000
     14 C8        10.7897    3.4991    2.9547 C.3       1 RES1    0.0000
     15 H5        10.3573    2.7112    3.2943 H         1 RES1    0.0000
     16 H6        11.1549    4.0037    3.6849 H         1 RES1    0.0000
     17 H7        11.4961    3.2430    2.3578 H         1 RES1    0.0000
     18 C9        10.4850    5.6067    1.6615 C.3       1 RES1    0.0000
     19 H8        10.8397    6.1126    2.3969 H         1 RES1    0.0000
     20 H9         9.8619    6.1484    1.1717 H         1 RES1    0.0000
     21 H10       11.2015    5.3395    1.0829 H         1 RES1    0.0000
     22 C10        7.5976    5.8015    2.6517 C.3       1 RES1    0.0000
     23 H11        8.0663    6.5727    2.2964 H         1 RES1    0.0000
     24 H12        6.9926    5.4595    1.9750 H         1 RES1    0.0000
     25 C11        8.8786    5.2059    4.5414 C.3       1 RES1    0.0000
     26 H13        9.4047    4.5801    5.0630 H         1 RES1    0.0000
     27 H14        9.2890    6.0854    4.5561 H         1 RES1    0.0000
     28 C12        5.4574    3.5918    4.5509 C.3       1 RES1    0.0000
     29 H15        5.2610    2.6642    4.3981 H         1 RES1    0.0000
     30 H16        5.1472    4.1113    3.8051 H         1 RES1    0.0000
     31 H17        5.0154    3.8850    5.3503 H         1 RES1    0.0000
     32 C13        7.4134    5.2319    4.9532 C.3       1 RES1    0.0000
     33 H18        7.2753    5.5300    5.8768 H         1 RES1    0.0000
     34 C14        7.4665    2.8361    5.8350 C.3       1 RES1    0.0000
     35 H19        7.1741    1.9382    5.6625 H         1 RES1    0.0000
     36 H20        7.1168    3.1317    6.6788 H         1 RES1    0.0000
     37 H21        8.4253    2.8609    5.8598 H         1 RES1    0.0000
     38 C15        6.8398    6.1596    3.9448 C.3       1 RES1    0.0000
     39 H22        6.9952    7.0847    4.1943 H         1 RES1    0.0000
     40 H23        5.8868    6.0161    3.8403 H         1 RES1    0.0000
@<TRIPOS>BOND
     1    1    2 1
     2    3    1 1
     3    4    5 1
     4    6    4 2
     5    7    6 1
     6    8    3 2
     7    9    7 1
     8   10    8 1
     9   11   10 1
    10   12   10 1
    11   13    6 1
    12   14    9 1
    13   15   14 1
    14   16   14 1
    15   17   14 1
    16   18    9 1
    17   19   18 1
    18   20   18 1
    19   21   18 1
    20   22    7 1
    21   23   22 1
    22   24   22 1
    23   25    7 1
    24   26   25 1
    25   27   25 1
    26   28   13 1
    27   29   28 1
    28   30   28 1
    29   31   28 1
    30   32   13 1
    31   33   32 1
    32   34   13 1
    33   35   34 1
    34   36   34 1
    35   37   34 1
    36   38   22 1
    37   39   38 1
    38   40   38 1
    39    4    8 1
    40    9   10 1
    41   25   32 1
    42   32   38 1
@<TRIPOS>SUBSTRUCTURE
     1 RES1 1

@<TRIPOS>CRYSIN
   8.9128   12.3686   13.7592  90.0000 108.3130  90.0000 231 1

