# MOL2 file generated by ConQuest
# Please check atom types

@<TRIPOS>MOLECULE
FEYDUL
   189   195     3
SMALL
NO_CHARGES
****
Generated from CSD

@<TRIPOS>ATOM
      1 O1         8.4031    7.9940    4.7422 O.3       1 RES1    0.0000
      2 O2         6.4907    8.8871    2.6339 O.3       1 RES1    0.0000
      3 N1         6.9856    2.0998    1.8398 N.3       1 RES1    0.0000
      4 O3         9.8537    7.3230    3.2012 O.2       1 RES1    0.0000
      5 O4         5.2632    7.2891    3.5472 O.2       1 RES1    0.0000
      6 C1         7.3383    5.3550    3.2995 C.ar      1 RES1    0.0000
      7 C2         7.1633    4.3133    2.3825 C.ar      1 RES1    0.0000
      8 O5         6.6581    7.0934   -1.1515 O.3       1 RES1    0.0000
      9 C3         7.0500    2.9818    2.9138 C.ar      1 RES1    0.0000
     10 N2         6.7326    6.3276    0.0624 N.2       1 RES1    0.0000
     11 C4         5.2199    0.3624    2.0856 C.ar      1 RES1    0.0000
     12 C5         7.1011    4.1667    0.9435 C.2       1 RES1    0.0000
     13 C6         7.5220    6.8012    2.8854 C.3       1 RES1    0.0000
     14 H1         7.7292    6.8050    1.9268 H         1 RES1    0.0000
     15 C7         7.0083    2.8211    0.6902 C.2       1 RES1    0.0000
     16 H2         6.9653    2.4511   -0.1626 H         1 RES1    0.0000
     17 C8         7.0429    5.1357   -0.1872 C.2       1 RES1    0.0000
     18 C9         7.0583    2.6828    4.2771 C.ar      1 RES1    0.0000
     19 C10        6.6660    0.6685    1.8058 C.3       1 RES1    0.0000
     20 H3         7.2144    0.2082    2.4600 H         1 RES1    0.0000
     21 H4         6.8950    0.3169    0.9303 H         1 RES1    0.0000
     22 C11        8.7207    7.4056    3.6115 C.2       1 RES1    0.0000
     23 C12        7.3340    5.0486    4.6534 C.ar      1 RES1    0.0000
     24 H5         7.4279    5.7379    5.2698 H         1 RES1    0.0000
     25 C13        6.2898    7.6641    3.0840 C.2       1 RES1    0.0000
     26 C14        4.2359    1.3124    1.8209 C.ar      1 RES1    0.0000
     27 H6         4.4767    2.1515    1.5013 H         1 RES1    0.0000
     28 C15        7.1939    3.7364    5.1166 C.ar      1 RES1    0.0000
     29 H7         7.1927    3.5822    6.0337 H         1 RES1    0.0000
     30 C16        6.9279    1.2728    4.8443 C.3       1 RES1    0.0000
     31 H8         6.8419    0.6439    4.1220 H         1 RES1    0.0000
     32 H9         7.7103    1.0624    5.3586 H         1 RES1    0.0000
     33 H10        6.1519    1.2240    5.4059 H         1 RES1    0.0000
     34 C17        2.5420   -0.1867    2.5054 C.ar      1 RES1    0.0000
     35 H11        1.6424   -0.3788    2.6491 H         1 RES1    0.0000
     36 C18        4.8635   -0.8571    2.5602 C.ar      1 RES1    0.0000
     37 H12        5.5164   -1.4952    2.7342 H         1 RES1    0.0000
     38 C19        7.2893    4.5796   -1.5486 C.3       1 RES1    0.0000
     39 H13        7.5095    3.6485   -1.4786 H         1 RES1    0.0000
     40 H14        6.4991    4.6831   -2.0837 H         1 RES1    0.0000
     41 H15        8.0175    5.0503   -1.9589 H         1 RES1    0.0000
     42 C20        3.5177   -1.1550    2.7909 C.ar      1 RES1    0.0000
     43 H16        3.2715   -1.9860    3.1275 H         1 RES1    0.0000
     44 C21        2.9012    1.0090    2.0289 C.ar      1 RES1    0.0000
     45 H17        2.2489    1.6431    1.8341 H         1 RES1    0.0000
     46 C22        9.5160    8.5140    5.5629 C.3       1 RES1    0.0000
     47 H18       10.1802    7.8228    5.7103 H         1 RES1    0.0000
     48 H19        9.9417    9.2646    5.1223 H         1 RES1    0.0000
     49 C23        8.9258    8.9370    6.8430 C.3       1 RES1    0.0000
     50 H20        9.6151    9.2844    7.4140 H         1 RES1    0.0000
     51 H21        8.2700    9.6196    6.6822 H         1 RES1    0.0000
     52 H22        8.5077    8.1852    7.2665 H         1 RES1    0.0000
     53 C24        5.4209    9.8759    2.8003 C.3       1 RES1    0.0000
     54 H23        5.5280   10.5739    2.1367 H         1 RES1    0.0000
     55 H24        4.5648    9.4461    2.6434 H         1 RES1    0.0000
     56 C25        5.4097   10.4784    4.1220 C.3       1 RES1    0.0000
     57 H25        4.6936   11.1151    4.1788 H         1 RES1    0.0000
     58 H26        5.2830    9.7958    4.7857 H         1 RES1    0.0000
     59 H27        6.2464   10.9239    4.2771 H         1 RES1    0.0000
     60 C26        6.5691    8.4665   -0.8206 C.3       1 RES1    0.0000
     61 H28        6.5198    8.9862   -1.6261 H         1 RES1    0.0000
     62 H29        5.7823    8.6175   -0.2931 H         1 RES1    0.0000
     63 H30        7.3459    8.7255   -0.3196 H         1 RES1    0.0000
     64 O6        -2.5204   -3.7123    1.2234 O.3       2 RES2    0.0000
     65 O7        -0.4689   -4.7687    2.9875 O.3       2 RES2    0.0000
     66 O8         0.7779   -3.0821    2.2331 O.2       2 RES2    0.0000
     67 N3        -0.8563    1.9425    4.6137 N.pl3     2 RES2    0.0000
     68 O9        -3.8149   -3.0460    2.8779 O.2       2 RES2    0.0000
     69 O10       -1.0118   -3.3530    7.0774 O.3       2 RES2    0.0000
     70 C27       -1.4656   -2.6385    3.0480 C.3       2 RES2    0.0000
     71 H31       -1.5968   -2.7493    4.0124 H         2 RES2    0.0000
     72 C28       -1.2687   -1.1540    2.8098 C.ar      2 RES2    0.0000
     73 N4        -0.8951   -2.4766    5.9732 N.2       2 RES2    0.0000
     74 C29       -1.0894   -0.2008    3.8252 C.ar      2 RES2    0.0000
     75 C30       -0.9447    1.6008    2.1140 C.ar      2 RES2    0.0000
     76 C31       -0.9636    1.1760    3.4432 C.ar      2 RES2    0.0000
     77 C32        0.8040    3.7919    4.6080 C.ar      2 RES2    0.0000
     78 C33       -1.0467   -0.2199    5.2736 C.2       2 RES2    0.0000
     79 C34       -0.6256    3.3775    4.7876 C.3       2 RES2    0.0000
     80 H32       -0.9156    3.6348    5.6763 H         2 RES2    0.0000
     81 H33       -1.1726    3.8615    4.1485 H         2 RES2    0.0000
     82 C35       -0.2500   -3.4854    2.6774 C.2       2 RES2    0.0000
     83 C36       -1.1219    0.6172    1.1591 C.ar      2 RES2    0.0000
     84 H34       -1.1243    0.8580    0.2609 H         2 RES2    0.0000
     85 C37       -1.3002   -0.7271    1.5032 C.ar      2 RES2    0.0000
     86 H35       -1.4431   -1.3503    0.8282 H         2 RES2    0.0000
     87 C38       -2.7107   -3.1406    2.3900 C.2       2 RES2    0.0000
     88 C39       -0.7434    3.0446    1.6658 C.3       2 RES2    0.0000
     89 H36       -0.6355    3.6053    2.4373 H         2 RES2    0.0000
     90 H37        0.0402    3.1022    1.1156 H         2 RES2    0.0000
     91 H38       -1.5094    3.3338    1.1648 H         2 RES2    0.0000
     92 C40       -1.1417   -1.2683    6.3060 C.2       2 RES2    0.0000
     93 C41        1.1262    5.0571    4.2279 C.ar      2 RES2    0.0000
     94 H39        0.4465    5.6691    4.0577 H         2 RES2    0.0000
     95 C42       -0.9161    1.0922    5.6763 C.2       2 RES2    0.0000
     96 H40       -0.8757    1.3649    6.5650 H         2 RES2    0.0000
     97 C43       -3.6550   -4.2515    0.5219 C.3       2 RES2    0.0000
     98 H41       -4.2783   -3.5395    0.3082 H         2 RES2    0.0000
     99 H42       -4.1111   -4.8982    1.0835 H         2 RES2    0.0000
    100 C44        2.4566    5.4563    4.0861 C.ar      2 RES2    0.0000
    101 H43        2.6524    6.3173    3.7949 H         2 RES2    0.0000
    102 C45        3.4863    4.5779    4.3792 C.ar      2 RES2    0.0000
    103 H44        4.3744    4.8449    4.3168 H         2 RES2    0.0000
    104 C46        1.8679    2.9138    4.8992 C.ar      2 RES2    0.0000
    105 H45        1.6848    2.0508    5.1923 H         2 RES2    0.0000
    106 C47        3.1659    3.3161    4.7593 C.ar      2 RES2    0.0000
    107 H46        3.8485    2.7078    4.9275 H         2 RES2    0.0000
    108 C48        0.5673   -5.7566    2.6718 C.3       2 RES2    0.0000
    109 H47        1.4373   -5.3946    2.9006 H         2 RES2    0.0000
    110 H48        0.4240   -6.5535    3.2031 H         2 RES2    0.0000
    111 C49       -3.2014   -4.9030   -0.7147 C.3       2 RES2    0.0000
    112 H49       -3.9585   -5.2622   -1.1837 H         2 RES2    0.0000
    113 H50       -2.7580   -4.2587   -1.2706 H         2 RES2    0.0000
    114 H51       -2.5925   -5.6117   -0.4992 H         2 RES2    0.0000
    115 C50       -1.4933   -0.8445    7.6957 C.3       2 RES2    0.0000
    116 H52       -1.6357    0.1039    7.7146 H         2 RES2    0.0000
    117 H53       -2.2932   -1.2943    7.9737 H         2 RES2    0.0000
    118 H54       -0.7742   -1.0723    8.2895 H         2 RES2    0.0000
    119 C51        0.5471   -6.1093    1.2498 C.3       2 RES2    0.0000
    120 H55        1.2330   -6.7557    1.0721 H         2 RES2    0.0000
    121 H56       -0.3092   -6.4804    1.0248 H         2 RES2    0.0000
    122 H57        0.7032   -5.3232    0.7223 H         2 RES2    0.0000
    123 C52       -0.9612   -4.6961    6.5858 C.3       2 RES2    0.0000
    124 H58       -1.0393   -5.3092    7.3195 H         2 RES2    0.0000
    125 H59       -1.6850   -4.8390    5.9713 H         2 RES2    0.0000
    126 H60       -0.1262   -4.8418    6.1339 H         2 RES2    0.0000
    127 O11       14.1790   13.2375    7.3327 O.3       3 RES3    0.0000
    128 O12       15.2773   11.3308    7.8092 O.2       3 RES3    0.0000
    129 N5        13.0055    7.0595    8.1836 N.3       3 RES3    0.0000
    130 O13       14.4369   13.2625   10.3089 O.3       3 RES3    0.0000
    131 O14       12.2072   13.4142   10.4564 O.2       3 RES3    0.0000
    132 N6        11.9853   11.0871    6.3268 N.2       3 RES3    0.0000
    133 O15       11.7855   11.8691    5.1336 O.3       3 RES3    0.0000
    134 C53       13.0504    8.0076    9.1989 C.ar      3 RES3    0.0000
    135 C54       12.9679    9.2986    8.6241 C.ar      3 RES3    0.0000
    136 C55       13.1888   11.8449    8.9059 C.3       3 RES3    0.0000
    137 H61       12.3771   11.9690    8.3708 H         3 RES3    0.0000
    138 C56       13.1785    7.7987   10.5925 C.ar      3 RES3    0.0000
    139 C57       12.8316    9.0819    7.2098 C.2       3 RES3    0.0000
    140 C58       13.1315   10.4331    9.4618 C.ar      3 RES3    0.0000
    141 C59       11.6808    4.9731    8.4388 C.ar      3 RES3    0.0000
    142 C60       12.6292   10.0162    6.0564 C.2       3 RES3    0.0000
    143 C61       12.8805    7.7300    7.0037 C.2       3 RES3    0.0000
    144 H62       12.8349    7.3215    6.1698 H         3 RES3    0.0000
    145 C62       13.2723   10.1982   10.8062 C.ar      3 RES3    0.0000
    146 H63       13.3865   10.9265   11.3734 H         3 RES3    0.0000
    147 C63       14.3583   12.0648    7.9718 C.2       3 RES3    0.0000
    148 C64       13.1776   12.9275    9.9666 C.2       3 RES3    0.0000
    149 C65       13.0401    5.6032    8.2479 C.3       3 RES3    0.0000
    150 H64       13.6157    5.3380    8.9815 H         3 RES3    0.0000
    151 H65       13.4321    5.2632    7.4272 H         3 RES3    0.0000
    152 C66       13.2510    8.9151   11.3602 C.ar      3 RES3    0.0000
    153 H66       13.2887    8.8250   12.2848 H         3 RES3    0.0000
    154 C67       13.2270    6.4269   11.2600 C.3       3 RES3    0.0000
    155 H67       13.1651    5.7433   10.5887 H         3 RES3    0.0000
    156 H68       14.0534    6.3326   11.7384 H         3 RES3    0.0000
    157 H69       12.4915    6.3425   11.8707 H         3 RES3    0.0000
    158 C68       10.4751    5.6467    8.2687 C.ar      3 RES3    0.0000
    159 H70       10.4901    6.5556    8.0682 H         3 RES3    0.0000
    160 C69       11.6143    3.6295    8.7773 C.ar      3 RES3    0.0000
    161 H71       12.4021    3.1578    8.9229 H         3 RES3    0.0000
    162 C70       10.4119    2.9819    8.9059 C.ar      3 RES3    0.0000
    163 H72       10.3844    2.0754    9.1139 H         3 RES3    0.0000
    164 C71        9.2468    3.6884    8.7206 C.ar      3 RES3    0.0000
    165 H73        8.4312    3.2543    8.8283 H         3 RES3    0.0000
    166 C72       13.1138    9.6054    4.7233 C.3       3 RES3    0.0000
    167 H74       13.5664    8.7617    4.7933 H         3 RES3    0.0000
    168 H75       12.3679    9.5187    4.1239 H         3 RES3    0.0000
    169 H76       13.7218   10.2671    4.3849 H         3 RES3    0.0000
    170 C73        9.2548    5.0038    8.3878 C.ar      3 RES3    0.0000
    171 H77        8.4590    5.4617    8.2422 H         3 RES3    0.0000
    172 C74       15.2552   13.6131    6.4516 C.3       3 RES3    0.0000
    173 H78       15.2512   13.0461    5.6631 H         3 RES3    0.0000
    174 H79       16.1077   13.5020    6.9016 H         3 RES3    0.0000
    175 C75       11.2187   13.1492    5.5061 C.3       3 RES3    0.0000
    176 H80       11.0812   13.6819    4.7195 H         3 RES3    0.0000
    177 H81       10.3786   13.0097    5.9505 H         3 RES3    0.0000
    178 H82       11.8211   13.6050    6.0999 H         3 RES3    0.0000
    179 C76       15.0750   14.9936    6.0677 C.3       3 RES3    0.0000
    180 H83       15.7856   15.2584    5.4797 H         3 RES3    0.0000
    181 H84       14.2324   15.0927    5.6177 H         3 RES3    0.0000
    182 H85       15.0860   15.5474    6.8524 H         3 RES3    0.0000
    183 C77       14.6140   14.3262   11.2921 C.3       3 RES3    0.0000
    184 H86       13.8611   14.9365   11.2505 H         3 RES3    0.0000
    185 H87       14.6415   13.9425   12.1827 H         3 RES3    0.0000
    186 C78       15.7714   15.0123   11.0539 C.3       3 RES3    0.0000
    187 H88       15.8730   15.7068   11.7081 H         3 RES3    0.0000
    188 H89       16.5172   14.4088   11.1087 H         3 RES3    0.0000
    189 H90       15.7383   15.4011   10.1765 H         3 RES3    0.0000
@<TRIPOS>BOND
     1    1   22 1
     2    2   25 1
     3    3    9 1
     4    4   22 2
     5    5   25 2
     6    6    7 ar
     7    7    9 ar
     8    8   10 1
     9    9   18 ar
    10   10   17 2
    11   11   19 1
    12   12    7 1
    13   13    6 1
    14   14   13 1
    15   15    3 1
    16   16   15 1
    17   17   12 1
    18   18   28 ar
    19   19    3 1
    20   20   19 1
    21   21   19 1
    22   22   13 1
    23   23    6 ar
    24   24   23 1
    25   25   13 1
    26   26   11 ar
    27   27   26 1
    28   28   23 ar
    29   29   28 1
    30   30   18 1
    31   31   30 1
    32   32   30 1
    33   33   30 1
    34   34   35 1
    35   36   11 ar
    36   37   36 1
    37   38   17 1
    38   39   38 1
    39   40   38 1
    40   41   38 1
    41   42   34 ar
    42   43   42 1
    43   44   26 ar
    44   45   44 1
    45   46    1 1
    46   47   46 1
    47   48   46 1
    48   49   46 1
    49   50   49 1
    50   51   49 1
    51   52   49 1
    52   53    2 1
    53   54   53 1
    54   55   53 1
    55   56   53 1
    56   57   56 1
    57   58   56 1
    58   59   56 1
    59   60    8 1
    60   61   60 1
    61   62   60 1
    62   63   60 1
    63   64   87 1
    64   65   82 1
    65   66   82 2
    66   67   76 1
    67   68   87 2
    68   69   73 1
    69   70   71 1
    70   72   70 1
    71   73   92 2
    72   74   72 ar
    73   75   76 ar
    74   76   74 ar
    75   77   79 1
    76   78   74 1
    77   79   67 1
    78   80   79 1
    79   81   79 1
    80   82   70 1
    81   83   75 ar
    82   84   83 1
    83   85   72 ar
    84   86   85 1
    85   87   70 1
    86   88   75 1
    87   89   88 1
    88   90   88 1
    89   91   88 1
    90   92   78 1
    91   93   77 ar
    92   94   93 1
    93   95   67 1
    94   96   95 1
    95   97   64 1
    96   98   97 1
    97   99   97 1
    98  100   93 ar
    99  101  100 1
   100  102  100 ar
   101  103  102 1
   102  104   77 ar
   103  105  104 1
   104  106  102 ar
   105  107  106 1
   106  108   65 1
   107  109  108 1
   108  110  108 1
   109  111   97 1
   110  112  111 1
   111  113  111 1
   112  114  111 1
   113  115   92 1
   114  116  115 1
   115  117  115 1
   116  118  115 1
   117  119  108 1
   118  120  119 1
   119  121  119 1
   120  122  119 1
   121  123   69 1
   122  124  123 1
   123  125  123 1
   124  126  123 1
   125  127  147 1
   126  128  147 2
   127  129  134 1
   128  130  148 1
   129  131  148 2
   130  132  133 1
   131  133  175 1
   132  134  135 ar
   133  135  139 1
   134  136  137 1
   135  138  134 ar
   136  139  142 1
   137  140  135 ar
   138  141  149 1
   139  142  132 2
   140  143  129 1
   141  144  143 1
   142  145  140 ar
   143  146  145 1
   144  147  136 1
   145  148  136 1
   146  149  129 1
   147  150  149 1
   148  151  149 1
   149  152  138 ar
   150  153  152 1
   151  154  138 1
   152  155  154 1
   153  156  154 1
   154  157  154 1
   155  158  141 ar
   156  159  158 1
   157  160  141 ar
   158  161  160 1
   159  162  160 ar
   160  163  162 1
   161  164  162 ar
   162  165  164 1
   163  166  142 1
   164  167  166 1
   165  168  166 1
   166  169  166 1
   167  170  158 ar
   168  171  170 1
   169  172  127 1
   170  173  172 1
   171  174  172 1
   172  175  176 1
   173  177  175 1
   174  178  175 1
   175  179  172 1
   176  180  179 1
   177  181  179 1
   178  182  179 1
   179  183  130 1
   180  184  183 1
   181  185  183 1
   182  186  183 1
   183  187  186 1
   184  188  186 1
   185  189  186 1
   186   12   15 2
   187   34   44 ar
   188   36   42 ar
   189   78   95 2
   190   83   85 ar
   191  104  106 ar
   192  136  140 1
   193  139  143 2
   194  145  152 ar
   195  164  170 ar
@<TRIPOS>SUBSTRUCTURE
     1 RES1 1
     2 RES2 64
     3 RES3 127

@<TRIPOS>CRYSIN
  11.3640   17.3580   19.1360  96.6900  94.6100  99.2300   2 1

