# MOL2 file generated by ConQuest
# Please check atom types

@<TRIPOS>MOLECULE
FEYLUQ
    19    20     1
SMALL
NO_CHARGES
****
Generated from CSD

@<TRIPOS>ATOM
      1 O1         7.1528    1.2437    5.5631 O.3       1 RES1    0.0000
      2 O2         4.7767    1.8453    0.8115 O.2       1 RES1    0.0000
      3 O3         5.4416    3.0876    2.4625 O.2       1 RES1    0.0000
      4 O4         8.7983   -3.0577    2.7609 O.2       1 RES1    0.0000
      5 O5         8.5906   -2.3838    4.8183 O.2       1 RES1    0.0000
      6 N1         6.6185    1.8692    4.4556 N.2       1 RES1    0.0000
      7 N2         7.5960   -0.0445    5.2804 N.2       1 RES1    0.0000
      8 N3         6.3237    1.0651    2.1871 N.pl3     1 RES1    0.0000
      9 N4         7.5710   -1.2755    3.1940 N.pl3     1 RES1    0.0000
     10 N5         5.4515    2.0644    1.8002 N.pl3     1 RES1    0.0000
     11 N6         8.3901   -2.3034    3.6258 N.pl3     1 RES1    0.0000
     12 C1         6.2944   -0.1999    1.4253 C.3       1 RES1    0.0000
     13 C2         7.5117   -1.0126    1.7444 C.3       1 RES1    0.0000
     14 C3         6.7295    0.9894    3.5130 C.2       1 RES1    0.0000
     15 C4         7.3498   -0.1793    4.0225 C.2       1 RES1    0.0000
     16 H1         6.3358    0.0618    0.4755 H         1 RES1    0.0000
     17 H2         5.4166   -0.6441    1.6049 H         1 RES1    0.0000
     18 H3         7.3884   -1.8492    1.2992 H         1 RES1    0.0000
     19 H4         8.2798   -0.5080    1.4690 H         1 RES1    0.0000
@<TRIPOS>BOND
     1    1    6 1
     2    2   10 2
     3    3   10 2
     4    4   11 2
     5    5   11 2
     6    6   14 2
     7    7    1 1
     8    8   10 1
     9    9   11 1
    10   12    8 1
    11   13    9 1
    12   14    8 1
    13   15    7 2
    14   16   12 1
    15   17   12 1
    16   18   13 1
    17   19   13 1
    18    9   15 1
    19   12   13 1
    20   14   15 1
@<TRIPOS>SUBSTRUCTURE
     1 RES1 1

@<TRIPOS>CRYSIN
   9.7440    6.6400   12.1650  90.0000  94.3100  90.0000  14 1

