# MOL2 file generated by ConQuest
# Please check atom types

@<TRIPOS>MOLECULE
FEYYEO
    85    88     1
SMALL
NO_CHARGES
****
Generated from CSD

@<TRIPOS>ATOM
      1 N1         9.5505    3.9942   11.8338 N.am      1 RES1    0.0000
      2 C1         8.7667    3.0424   12.4642 C.2       1 RES1    0.0000
      3 C2         8.1522    2.1402   11.5114 C.2       1 RES1    0.0000
      4 C3         8.3131    2.3365   10.1175 C.2       1 RES1    0.0000
      5 C4         9.0885    3.4066    9.5900 C.2       1 RES1    0.0000
      6 C5         9.1850    3.7425    8.1392 C.ar      1 RES1    0.0000
      7 C6         9.7854    2.8911    7.2159 C.ar      1 RES1    0.0000
      8 C7         9.8896    3.2260    5.8660 C.ar      1 RES1    0.0000
      9 C8         9.3326    4.4601    5.4532 C.ar      1 RES1    0.0000
     10 C9         8.7974    5.3848    6.3695 C.ar      1 RES1    0.0000
     11 C10        8.7160    4.9737    7.6995 C.ar      1 RES1    0.0000
     12 C11        9.7210    4.1809   10.5093 C.2       1 RES1    0.0000
     13 C12       10.6857    5.3155   10.3277 C.3       1 RES1    0.0000
     14 C13       12.1209    4.8214   10.0372 C.2       1 RES1    0.0000
     15 O1        12.4663    3.6995   10.2919 O.2       1 RES1    0.0000
     16 C14       13.0983    5.8720    9.5668 C.3       1 RES1    0.0000
     17 C15       12.7014    6.5858    8.2655 C.3       1 RES1    0.0000
     18 C16       13.5821    7.8092    8.0212 C.3       1 RES1    0.0000
     19 C17       13.3923    8.9271    9.0499 C.3       1 RES1    0.0000
     20 C18       12.0692    9.6526    9.0060 C.3       1 RES1    0.0000
     21 C19       11.5544   10.1730   10.3414 C.3       1 RES1    0.0000
     22 C20       11.0942    9.0853   11.3139 C.3       1 RES1    0.0000
     23 C21        9.8909    8.2974   10.8465 C.3       1 RES1    0.0000
     24 C22        9.5338    7.1023   11.7255 C.3       1 RES1    0.0000
     25 C23       10.5900    6.0068   11.7024 C.3       1 RES1    0.0000
     26 O2        10.2406    4.9284   12.6236 O.3       1 RES1    0.0000
     27 O3         8.6712    3.0399   13.6902 O.2       1 RES1    0.0000
     28 C24        7.3182    1.0408   11.9684 C.2       1 RES1    0.0000
     29 O4         6.7565    0.2912   11.1453 O.2       1 RES1    0.0000
     30 C25        7.0910    0.7606   13.4231 C.3       1 RES1    0.0000
     31 O5         7.7439    1.5180    9.2444 O.3       1 RES1    0.0000
     32 C26       10.6030    2.2965    4.8727 C.3       1 RES1    0.0000
     33 C27       11.2638    1.1189    5.5922 C.3       1 RES1    0.0000
     34 C28        9.5938    1.7077    3.8715 C.3       1 RES1    0.0000
     35 C29       11.7172    3.0385    4.1201 C.3       1 RES1    0.0000
     36 O6         9.3520    4.6672    4.0998 O.3       1 RES1    0.0000
     37 C30        8.3226    6.7927    5.9548 C.3       1 RES1    0.0000
     38 C31        7.9783    7.6627    7.1704 C.3       1 RES1    0.0000
     39 C32        9.4445    7.5397    5.2198 C.3       1 RES1    0.0000
     40 C33        7.0504    6.6844    5.1065 C.3       1 RES1    0.0000
     41 H1         7.2530    0.8885    9.8152 H         1 RES1    0.0000
     42 H2         9.0477    5.3799    3.8715 H         1 RES1    0.0000
     43 H3        10.1531    2.0153    7.5302 H         1 RES1    0.0000
     44 H4         8.3027    5.5937    8.3651 H         1 RES1    0.0000
     45 H5        10.4739    5.9072    9.5493 H         1 RES1    0.0000
     46 H6        13.1831    6.5623   10.2870 H         1 RES1    0.0000
     47 H7        13.9837    5.4307    9.4221 H         1 RES1    0.0000
     48 H8        12.8040    5.9501    7.5002 H         1 RES1    0.0000
     49 H9        11.7463    6.8767    8.3305 H         1 RES1    0.0000
     50 H10       14.5378    7.5192    8.0460 H         1 RES1    0.0000
     51 H11       13.3687    8.1753    7.1163 H         1 RES1    0.0000
     52 H12       14.1163    9.6028    8.9040 H         1 RES1    0.0000
     53 H13       13.4906    8.5249    9.9609 H         1 RES1    0.0000
     54 H14       12.1678   10.4347    8.3906 H         1 RES1    0.0000
     55 H15       11.3858    9.0228    8.6380 H         1 RES1    0.0000
     56 H16       12.2898   10.6915   10.7796 H         1 RES1    0.0000
     57 H17       10.7787   10.7793   10.1621 H         1 RES1    0.0000
     58 H18       10.8636    9.5218   12.1835 H         1 RES1    0.0000
     59 H19       11.8524    8.4477   11.4503 H         1 RES1    0.0000
     60 H20        9.1033    8.9144   10.8236 H         1 RES1    0.0000
     61 H21       10.0762    7.9615    9.9239 H         1 RES1    0.0000
     62 H22        9.4267    7.4206   12.6668 H         1 RES1    0.0000
     63 H23        8.6686    6.7166   11.4041 H         1 RES1    0.0000
     64 H24       11.4441    6.4657   11.9429 H         1 RES1    0.0000
     65 H25        6.4922   -0.0332   13.5202 H         1 RES1    0.0000
     66 H26        7.9661    0.5731   13.8671 H         1 RES1    0.0000
     67 H27        6.6645    1.5554   13.8533 H         1 RES1    0.0000
     68 H28       11.7198    0.5321    4.9215 H         1 RES1    0.0000
     69 H29       11.9372    1.4626    6.2444 H         1 RES1    0.0000
     70 H30       10.5666    0.5907    6.0779 H         1 RES1    0.0000
     71 H31       10.0736    1.1053    3.2332 H         1 RES1    0.0000
     72 H32        9.1563    2.4498    3.3673 H         1 RES1    0.0000
     73 H33        8.9019    1.1853    4.3664 H         1 RES1    0.0000
     74 H34       12.1625    2.4107    3.4830 H         1 RES1    0.0000
     75 H35       12.3905    3.3822    4.7758 H         1 RES1    0.0000
     76 H36       11.3248    3.8050    3.6125 H         1 RES1    0.0000
     77 H37        7.6771    8.5649    6.8596 H         1 RES1    0.0000
     78 H38        8.7879    7.7633    7.7476 H         1 RES1    0.0000
     79 H39        7.2450    7.2282    7.6945 H         1 RES1    0.0000
     80 H40        9.1219    8.4497    4.9585 H         1 RES1    0.0000
     81 H41       10.2379    7.6266    5.8235 H         1 RES1    0.0000
     82 H42        9.7051    7.0281    4.4011 H         1 RES1    0.0000
     83 H43        6.7466    7.5992    4.8405 H         1 RES1    0.0000
     84 H44        6.3331    6.2372    5.6407 H         1 RES1    0.0000
     85 H45        7.2424    6.1454    4.2878 H         1 RES1    0.0000
@<TRIPOS>BOND
     1    1    2 1
     2    2    3 1
     3    3    4 2
     4    4    5 1
     5    5    6 1
     6    6    7 ar
     7    7    8 ar
     8    8    9 ar
     9    9   10 ar
    10   10   11 ar
    11   11    6 ar
    12   12    1 1
    13   13   12 1
    14   14   13 1
    15   15   14 2
    16   16   14 1
    17   17   16 1
    18   18   17 1
    19   19   18 1
    20   20   19 1
    21   21   20 1
    22   22   21 1
    23   23   22 1
    24   24   23 1
    25   25   13 1
    26   26    1 1
    27   27    2 2
    28   28    3 1
    29   29   28 2
    30   30   28 1
    31   31    4 1
    32   32    8 1
    33   33   32 1
    34   34   32 1
    35   35   32 1
    36   36    9 1
    37   37   10 1
    38   38   37 1
    39   39   37 1
    40   40   37 1
    41   41   31 1
    42   42   36 1
    43   43    7 1
    44   44   11 1
    45   45   13 1
    46   46   16 1
    47   47   16 1
    48   48   17 1
    49   49   17 1
    50   50   18 1
    51   51   18 1
    52   52   19 1
    53   53   19 1
    54   54   20 1
    55   55   20 1
    56   56   21 1
    57   57   21 1
    58   58   22 1
    59   59   22 1
    60   60   23 1
    61   61   23 1
    62   62   24 1
    63   63   24 1
    64   64   25 1
    65   65   30 1
    66   66   30 1
    67   67   30 1
    68   68   33 1
    69   69   33 1
    70   70   33 1
    71   71   34 1
    72   72   34 1
    73   73   34 1
    74   74   35 1
    75   75   35 1
    76   76   35 1
    77   77   38 1
    78   78   38 1
    79   79   38 1
    80   80   39 1
    81   81   39 1
    82   82   39 1
    83   83   40 1
    84   84   40 1
    85   85   40 1
    86    5   12 2
    87   24   25 1
    88   25   26 1
@<TRIPOS>SUBSTRUCTURE
     1 RES1 1

@<TRIPOS>CRYSIN
  26.5094    9.7639   23.1273  90.0000  90.0000  90.0000  60 1

