# MOL2 file generated by ConQuest
# Please check atom types

@<TRIPOS>MOLECULE
FEZKOL
   108   116     2
SMALL
NO_CHARGES
****
Generated from CSD

@<TRIPOS>ATOM
      1 O1         6.6316    4.6553   20.9348 O.2       1 RES1    0.0000
      2 O2         6.3497    6.6707   11.3453 O.3       2 RES2    0.0000
      3 O3         3.8193   13.0213   11.2215 O.3       2 RES2    0.0000
      4 H1         3.0608   13.3586   11.3463 H         2 RES2    0.0000
      5 O4         4.3245    8.7198   15.4272 O.3       2 RES2    0.0000
      6 O5         3.1069   10.5428   13.4013 O.3       2 RES2    0.0000
      7 N1         0.0029    6.5471   16.7658 N.pl3     2 RES2    0.0000
      8 O6         0.3265    6.0237   15.7134 O.2       2 RES2    0.0000
      9 C1         4.0477   10.9381   12.3554 C.3       2 RES2    0.0000
     10 H2         4.9286   11.2426   12.7195 H         2 RES2    0.0000
     11 C2         4.9324    8.7095   13.1267 C.3       2 RES2    0.0000
     12 H3         4.6535    7.7495   13.1530 H         2 RES2    0.0000
     13 C3         1.9334    8.0644   16.5551 C.ar      2 RES2    0.0000
     14 H4         2.2868    7.4967   15.8793 H         2 RES2    0.0000
     15 C4         6.0756    8.8717   12.0928 C.3       2 RES2    0.0000
     16 H5         6.5770    9.7234   12.2434 H         2 RES2    0.0000
     17 O7         4.5035   10.6019   16.6305 O.2       2 RES2    0.0000
     18 C5         3.9171    9.6085   16.3366 C.2       2 RES2    0.0000
     19 C6         4.7552   11.1910   10.0127 C.3       2 RES2    0.0000
     20 H6         5.6181   11.6600   10.1986 H         2 RES2    0.0000
     21 C7         2.0588   10.0622   17.8874 C.ar      2 RES2    0.0000
     22 H7         2.5122   10.8534   18.1521 H         2 RES2    0.0000
     23 C8         3.6911   11.5986   11.0709 C.3       2 RES2    0.0000
     24 C9         7.0188    7.6720   12.1081 C.3       2 RES2    0.0000
     25 H8         7.8891    7.9046   11.6971 H         2 RES2    0.0000
     26 H9         7.1761    7.3615   13.0352 H         2 RES2    0.0000
     27 C10        5.5485    8.7958   10.6775 C.2       2 RES2    0.0000
     28 C11        5.3765    9.1258   14.5094 C.3       2 RES2    0.0000
     29 H10        6.2298    8.6826   14.7467 H         2 RES2    0.0000
     30 H11        5.5088   10.1064   14.5487 H         2 RES2    0.0000
     31 C12        4.9978    9.6949    9.8681 C.2       2 RES2    0.0000
     32 H12        4.6986    9.3356    9.0409 H         2 RES2    0.0000
     33 C13        3.7914    9.5342   12.6022 C.3       2 RES2    0.0000
     34 H13        3.2229    9.0807   11.9151 H         2 RES2    0.0000
     35 C14        2.6057    9.2127   16.9397 C.ar      2 RES2    0.0000
     36 O8         0.6376   11.7947   19.4448 O.2       2 RES2    0.0000
     37 O9        -0.8923    6.1534   17.4925 O.2       2 RES2    0.0000
     38 C15        0.7375    7.7645   17.1763 C.ar      2 RES2    0.0000
     39 N2         0.2097   10.6625   19.3857 N.pl3     2 RES2    0.0000
     40 C16        0.1732    8.5748   18.1325 C.ar      2 RES2    0.0000
     41 H14       -0.6426    8.3419   18.5605 H         2 RES2    0.0000
     42 C17        0.8368    9.7270   18.4385 C.ar      2 RES2    0.0000
     43 C18        5.7420    7.3541   10.2548 C.3       2 RES2    0.0000
     44 H15        4.8696    6.9411   10.0358 H         2 RES2    0.0000
     45 H16        6.3227    7.3062    9.4544 H         2 RES2    0.0000
     46 C19        4.1097   11.7639    8.7402 C.3       2 RES2    0.0000
     47 H17        4.3010   12.7310    8.6525 H         2 RES2    0.0000
     48 H18        4.4428   11.2960    7.9334 H         2 RES2    0.0000
     49 C20        2.3650   11.2464   10.4021 C.3       2 RES2    0.0000
     50 H19        2.1352   10.2951   10.5519 H         2 RES2    0.0000
     51 H20        1.6320   11.8128   10.7499 H         2 RES2    0.0000
     52 O10       -0.7031   10.2554   20.0637 O.2       2 RES2    0.0000
     53 C21        2.6073   11.5193    8.9347 C.3       2 RES2    0.0000
     54 H21        2.0923   12.3147    8.6475 H         2 RES2    0.0000
     55 H22        2.3154   10.7436    8.3919 H         2 RES2    0.0000
     56 O11        6.9214    7.2975   26.8166 O.3       1 RES1    0.0000
     57 H23        6.2778    7.5528   26.3410 H         1 RES1    0.0000
     58 O12        5.6783    4.8129   24.8864 O.3       1 RES1    0.0000
     59 O13        6.4434    3.0225   22.4488 O.3       1 RES1    0.0000
     60 C22        8.8678    3.1132   26.7600 C.2       1 RES1    0.0000
     61 O14        9.4991    0.9990   25.9113 O.3       1 RES1    0.0000
     62 O15        2.8537   -0.2026   22.1776 O.2       1 RES1    0.0000
     63 N3         2.5115    0.2323   21.0891 N.pl3     1 RES1    0.0000
     64 C23        4.2458    1.9623   21.2465 C.ar      1 RES1    0.0000
     65 H24        4.6665    1.4627   21.9358 H         1 RES1    0.0000
     66 C24        8.5594    4.0045   27.6894 C.2       1 RES1    0.0000
     67 H25        8.5372    3.6432   28.5687 H         1 RES1    0.0000
     68 O16        1.7142   -0.3184   20.3459 O.2       1 RES1    0.0000
     69 C25        6.8708    5.2267   25.6088 C.3       1 RES1    0.0000
     70 H26        7.5941    5.5671   25.0079 H         1 RES1    0.0000
     71 C26        8.9468    3.1793   25.2435 C.3       1 RES1    0.0000
     72 H27        9.3821    4.0314   24.9528 H         1 RES1    0.0000
     73 C27        7.5522    3.0207   24.5672 C.3       1 RES1    0.0000
     74 H28        7.2851    2.0565   24.5769 H         1 RES1    0.0000
     75 C28        6.5916    3.8160   25.4189 C.3       1 RES1    0.0000
     76 H29        6.2632    3.3400   26.2358 H         1 RES1    0.0000
     77 C29        6.8796    5.8661   26.9519 C.3       1 RES1    0.0000
     78 O17        2.6317    5.3988   18.1483 O.2       1 RES1    0.0000
     79 C30        8.2310    5.4961   27.6358 C.3       1 RES1    0.0000
     80 H30        8.9834    6.0005   27.2105 H         1 RES1    0.0000
     81 C31        4.7838    3.1647   20.8155 C.ar      1 RES1    0.0000
     82 C32        3.0865    1.5066   20.6508 C.ar      1 RES1    0.0000
     83 C33        2.9549    3.4337   19.3295 C.ar      1 RES1    0.0000
     84 C34        6.0458    3.7172   21.3888 C.2       1 RES1    0.0000
     85 C35        7.9719    6.0230   29.0528 C.3       1 RES1    0.0000
     86 H31        8.6224    5.6494   29.6988 H         1 RES1    0.0000
     87 H32        8.0176    7.0118   29.0824 H         1 RES1    0.0000
     88 C36        2.4141    2.2258   19.6816 C.ar      1 RES1    0.0000
     89 H33        1.6172    1.8994   19.2797 H         1 RES1    0.0000
     90 C37        4.1345    3.9130   19.8347 C.ar      1 RES1    0.0000
     91 H34        4.4999    4.7335   19.5252 H         1 RES1    0.0000
     92 C38        9.2813    1.7005   27.1268 C.3       1 RES1    0.0000
     93 H35       10.1100    1.7144   27.6691 H         1 RES1    0.0000
     94 H36        8.5688    1.2601   27.6541 H         1 RES1    0.0000
     95 C39        5.8371    5.4627   27.9931 C.3       1 RES1    0.0000
     96 H37        5.5063    4.5455   27.8195 H         1 RES1    0.0000
     97 H38        5.0684    6.0867   27.9773 H         1 RES1    0.0000
     98 N4         2.2113    4.2833   18.3683 N.pl3     1 RES1    0.0000
     99 C40        9.8511    1.9892   24.9476 C.3       1 RES1    0.0000
    100 H39        9.6974    1.6530   24.0282 H         1 RES1    0.0000
    101 H40       10.8039    2.2428   25.0380 H         1 RES1    0.0000
    102 C41        7.6339    3.5055   23.1359 C.3       1 RES1    0.0000
    103 H41        7.6681    4.4944   23.1110 H         1 RES1    0.0000
    104 H42        8.4488    3.1504   22.7001 H         1 RES1    0.0000
    105 O18        1.1881    3.8265   17.8915 O.2       1 RES1    0.0000
    106 C42        6.5583    5.5284   29.3447 C.3       1 RES1    0.0000
    107 H43        6.0925    6.1521   29.9569 H         1 RES1    0.0000
    108 H44        6.5857    4.6321   29.7665 H         1 RES1    0.0000
@<TRIPOS>BOND
     1    1   84 2
     2    2   24 1
     3    3    4 1
     4    5   18 1
     5    6    9 1
     6    7    8 2
     7    9   10 1
     8   11   12 1
     9   13   14 1
    10   15   11 1
    11   16   15 1
    12   17   18 2
    13   18   35 1
    14   19   20 1
    15   21   22 1
    16   23    3 1
    17   24   15 1
    18   25   24 1
    19   26   24 1
    20   27   15 1
    21   28    5 1
    22   29   28 1
    23   30   28 1
    24   31   19 1
    25   32   31 1
    26   33    6 1
    27   34   33 1
    28   35   13 ar
    29   36   39 2
    30   37    7 2
    31   38    7 1
    32   39   42 1
    33   40   38 ar
    34   41   40 1
    35   42   21 ar
    36   43    2 1
    37   44   43 1
    38   45   43 1
    39   46   19 1
    40   47   46 1
    41   48   46 1
    42   49   23 1
    43   50   49 1
    44   51   49 1
    45   52   39 2
    46   53   46 1
    47   54   53 1
    48   55   53 1
    49   56   57 1
    50   58   69 1
    51   59   84 1
    52   60   66 2
    53   61   92 1
    54   62   63 2
    55   63   68 2
    56   64   65 1
    57   66   67 1
    58   69   70 1
    59   71   60 1
    60   72   71 1
    61   73   71 1
    62   74   73 1
    63   75   58 1
    64   76   75 1
    65   77   56 1
    66   78   98 2
    67   79   66 1
    68   80   79 1
    69   81   64 ar
    70   82   63 1
    71   83   88 ar
    72   84   81 1
    73   85   79 1
    74   86   85 1
    75   87   85 1
    76   88   82 ar
    77   89   88 1
    78   90   81 ar
    79   91   90 1
    80   92   60 1
    81   93   92 1
    82   94   92 1
    83   95   77 1
    84   96   95 1
    85   97   95 1
    86   98   83 1
    87   99   61 1
    88  100   99 1
    89  101   99 1
    90  102   59 1
    91  103  102 1
    92  104  102 1
    93  105   98 2
    94  106   85 1
    95  107  106 1
    96  108  106 1
    97    9   23 1
    98    9   33 1
    99   11   28 1
   100   11   33 1
   101   13   38 ar
   102   19   23 1
   103   21   35 ar
   104   27   31 2
   105   27   43 1
   106   40   42 ar
   107   49   53 1
   108   64   82 ar
   109   69   75 1
   110   69   77 1
   111   71   99 1
   112   73   75 1
   113   73  102 1
   114   77   79 1
   115   83   90 ar
   116   95  106 1
@<TRIPOS>SUBSTRUCTURE
     1 RES1 1
     2 RES2 2

@<TRIPOS>CRYSIN
   6.5607   12.2817   25.0880  88.5830  87.4170  82.2630   2 1

