# MOL2 file generated by ConQuest
# Please check atom types

@<TRIPOS>MOLECULE
FIBLEH
    23    26     1
SMALL
NO_CHARGES
****
Generated from CSD

@<TRIPOS>ATOM
      1 C1         8.1940   14.5951    0.4454 C.2       1 RES1    0.0000
      2 C2         6.8655   14.9303    0.0138 C.2       1 RES1    0.0000
      3 C3         6.4637   13.1743   -1.7171 C.3       1 RES1    0.0000
      4 C4         7.9645   13.2698   -2.0692 C.3       1 RES1    0.0000
      5 C5         8.9441   12.9221   -0.9747 C.2       1 RES1    0.0000
      6 C6         9.9120   11.8145   -1.2006 C.ar      1 RES1    0.0000
      7 C7         9.6290   10.7399   -2.0268 C.ar      1 RES1    0.0000
      8 C8        10.5453    9.7029   -2.1891 C.ar      1 RES1    0.0000
      9 C9        11.7503    9.7640   -1.5538 C.ar      1 RES1    0.0000
     10 C10       12.0627   10.8261   -0.7424 C.ar      1 RES1    0.0000
     11 C11       11.1443   11.8490   -0.5547 C.ar      1 RES1    0.0000
     12 C12        5.6376   13.2871   -2.9993 C.3       1 RES1    0.0000
     13 C13        6.1921   11.8631   -0.9779 C.ar      1 RES1    0.0000
     14 C14        6.1698   10.6522   -1.6598 C.ar      1 RES1    0.0000
     15 C15        5.9939    9.4585   -0.9789 C.ar      1 RES1    0.0000
     16 C16        5.8160    9.4460    0.3765 C.ar      1 RES1    0.0000
     17 C17        5.8136   10.6334    1.0532 C.ar      1 RES1    0.0000
     18 C18        6.0038   11.8208    0.3892 C.ar      1 RES1    0.0000
     19 N1         9.0570   13.5518    0.1294 N.2       1 RES1    0.0000
     20 N2         8.5514   15.4222    1.3883 N.2       1 RES1    0.0000
     21 N3         6.4426   15.9799    0.6841 N.2       1 RES1    0.0000
     22 N4         6.0891   14.3382   -0.9132 N.3       1 RES1    0.0000
     23 O1         7.5075   16.2932    1.5527 O.3       1 RES1    0.0000
@<TRIPOS>BOND
     1    1    2 1
     2    2   21 2
     3    3    4 1
     4    4    5 1
     5    5    6 1
     6    6    7 ar
     7    7    8 ar
     8    8    9 ar
     9    9   10 ar
    10   10   11 ar
    11   11    6 ar
    12   12    3 1
    13   13    3 1
    14   14   13 ar
    15   15   14 ar
    16   16   15 ar
    17   17   16 ar
    18   18   13 ar
    19   19    1 1
    20   20    1 2
    21   21   23 1
    22   22    2 1
    23   23   20 1
    24    3   22 1
    25    5   19 2
    26   17   18 ar
@<TRIPOS>SUBSTRUCTURE
     1 RES1 1

@<TRIPOS>CRYSIN
   9.6350   15.6650   10.9000  90.0000 103.3400  90.0000 231 1

