# MOL2 file generated by ConQuest
# Please check atom types

@<TRIPOS>MOLECULE
FIBLIL
    29    30     1
SMALL
NO_CHARGES
****
Generated from CSD

@<TRIPOS>ATOM
      1 N1         4.5429    0.5702   16.4293 N.am      1 RES1    0.0000
      2 O1         3.4784    1.4608   16.1460 O.3       1 RES1    0.0000
      3 C1         2.5960    0.8347   15.1770 C.3       1 RES1    0.0000
      4 C2         3.3483    0.5251   13.9012 C.3       1 RES1    0.0000
      5 C3         4.5833   -0.3088   14.1909 C.3       1 RES1    0.0000
      6 C4         5.4102    0.3455   15.2728 C.3       1 RES1    0.0000
      7 C5         4.9573    0.5045   17.7200 C.2       1 RES1    0.0000
      8 O2         6.0687    0.0864   17.9926 O.2       1 RES1    0.0000
      9 C6         3.9950    0.9119   18.7891 C.ar      1 RES1    0.0000
     10 C7         2.6452    0.5710   18.7976 C.ar      1 RES1    0.0000
     11 C8         1.8439    0.9142   19.8604 C.ar      1 RES1    0.0000
     12 C9         2.3964    1.6167   20.9104 C.ar      1 RES1    0.0000
     13 C10        3.7304    1.9546   20.9466 C.ar      1 RES1    0.0000
     14 C11        4.5304    1.5900   19.8838 C.ar      1 RES1    0.0000
     15 N2         1.5429    2.0501   22.0264 N.pl3     1 RES1    0.0000
     16 O3         2.0747    2.5049   23.0232 O.2       1 RES1    0.0000
     17 O4         0.3386    1.9171   21.9029 O.2       1 RES1    0.0000
     18 H1         2.2839    0.0994   18.0181 H         1 RES1    0.0000
     19 H2         0.9176    0.6727   19.8924 H         1 RES1    0.0000
     20 H3         4.0056    2.4919   21.6814 H         1 RES1    0.0000
     21 H4         5.5945    1.8422   19.8072 H         1 RES1    0.0000
     22 H5         1.8292    1.5594   15.1003 H         1 RES1    0.0000
     23 H6         2.1812    0.0459   15.6115 H         1 RES1    0.0000
     24 H7         2.7230    0.0459   13.2261 H         1 RES1    0.0000
     25 H8         3.6279    1.3530   13.4817 H         1 RES1    0.0000
     26 H9         5.0788   -0.4663   13.3965 H         1 RES1    0.0000
     27 H10        4.3015   -1.3148   14.5253 H         1 RES1    0.0000
     28 H11        6.1259   -0.1835   15.5902 H         1 RES1    0.0000
     29 H12        5.8107    1.2765   14.9299 H         1 RES1    0.0000
@<TRIPOS>BOND
     1    1    2 1
     2    2    3 1
     3    3    4 1
     4    4    5 1
     5    5    6 1
     6    6    1 1
     7    7    1 1
     8    8    7 2
     9    9    7 1
    10   10    9 ar
    11   11   10 ar
    12   12   11 ar
    13   13   12 ar
    14   14    9 ar
    15   15   12 1
    16   16   15 2
    17   17   15 2
    18   18   10 1
    19   19   11 1
    20   20   13 1
    21   21   14 1
    22   22    3 1
    23   23    3 1
    24   24    4 1
    25   25    4 1
    26   26    5 1
    27   27    5 1
    28   28    6 1
    29   29    6 1
    30   13   14 ar
@<TRIPOS>SUBSTRUCTURE
     1 RES1 1

@<TRIPOS>CRYSIN
   6.7490    7.6440   21.5570  90.0000  98.8900  90.0000 231 1

