# MOL2 file generated by ConQuest
# Please check atom types

@<TRIPOS>MOLECULE
FIBTUG
   106   116     2
SMALL
NO_CHARGES
****
Generated from CSD

@<TRIPOS>ATOM
      1 C1        12.9304    2.4585   12.0973 C.3       1 RES1    0.0000
      2 C2        13.1049    1.3720   13.1910 C.ar      1 RES1    0.0000
      3 C3        12.6426    1.3981   14.5046 C.ar      1 RES1    0.0000
      4 H1        12.1979    2.1666   14.8407 H         1 RES1    0.0000
      5 C4        12.8400    0.2821   15.3237 C.ar      1 RES1    0.0000
      6 H2        12.5269    0.2984   16.2201 H         1 RES1    0.0000
      7 C5        13.4885   -0.8519   14.8451 C.ar      1 RES1    0.0000
      8 H3        13.6392   -1.5919   15.4213 H         1 RES1    0.0000
      9 C6        13.9158   -0.8983   13.5216 C.ar      1 RES1    0.0000
     10 H4        14.3508   -1.6733   13.1862 H         1 RES1    0.0000
     11 C7        13.6996    0.1963   12.6967 C.ar      1 RES1    0.0000
     12 C8        13.9722    0.2238   11.2007 C.3       1 RES1    0.0000
     13 H5        14.3682   -0.6290   10.8604 H         1 RES1    0.0000
     14 C9        12.6234    0.5496   10.5672 C.ar      1 RES1    0.0000
     15 C10       11.9420   -0.2392    9.6581 C.ar      1 RES1    0.0000
     16 H6        12.3407   -1.0307    9.3166 H         1 RES1    0.0000
     17 C11       10.6628    0.1383    9.2483 C.ar      1 RES1    0.0000
     18 H7        10.1930   -0.3933    8.6168 H         1 RES1    0.0000
     19 C12       10.0739    1.2883    9.7589 C.ar      1 RES1    0.0000
     20 H8         9.1935    1.5258    9.4928 H         1 RES1    0.0000
     21 C13       10.7691    2.0978   10.6630 C.ar      1 RES1    0.0000
     22 H9        10.3697    2.8905   11.0013 H         1 RES1    0.0000
     23 C14       12.0431    1.7338   11.0594 C.ar      1 RES1    0.0000
     24 C15       14.3061    2.6374   11.3975 C.ar      1 RES1    0.0000
     25 C16       14.9891    3.8215   11.1359 C.ar      1 RES1    0.0000
     26 H10       14.6169    4.6536   11.4041 H         1 RES1    0.0000
     27 C17       16.2222    3.7854   10.4790 C.ar      1 RES1    0.0000
     28 H11       16.6829    4.5977   10.2999 H         1 RES1    0.0000
     29 C18       16.7829    2.5743   10.0845 C.ar      1 RES1    0.0000
     30 H12       17.6322    2.5565    9.6589 H         1 RES1    0.0000
     31 C19       16.0891    1.3900   10.3182 C.ar      1 RES1    0.0000
     32 H13       16.4601    0.5594   10.0449 H         1 RES1    0.0000
     33 C20       14.8559    1.4259   10.9502 C.ar      1 RES1    0.0000
     34 N1        12.2477    3.6524   12.6056 N.3       1 RES1    0.0000
     35 C21       12.8072    4.2989   13.7787 C.ar      1 RES1    0.0000
     36 C22       14.1230    4.2394   14.1798 C.ar      1 RES1    0.0000
     37 H14       14.7668    3.8110   13.6258 H         1 RES1    0.0000
     38 C23       14.5166    4.8018   15.3908 C.ar      1 RES1    0.0000
     39 H15       15.4231    4.7384   15.6680 H         1 RES1    0.0000
     40 C24       13.5971    5.4519   16.1936 C.ar      1 RES1    0.0000
     41 H16       13.8742    5.8505   17.0105 H         1 RES1    0.0000
     42 C25       12.2727    5.5190   15.8011 C.ar      1 RES1    0.0000
     43 H17       11.6375    5.9658   16.3493 H         1 RES1    0.0000
     44 C26       11.8704    4.9338   14.6067 C.ar      1 RES1    0.0000
     45 H18       10.9569    4.9638   14.3491 H         1 RES1    0.0000
     46 O1        12.2370    4.5956   11.4846 O.3       1 RES1    0.0000
     47 C27       11.0790    5.4480   11.5299 C.3       1 RES1    0.0000
     48 H19       11.2099    6.1760   12.1877 H         1 RES1    0.0000
     49 H20       10.2758    4.9299   11.7867 H         1 RES1    0.0000
     50 C28       10.9222    6.0153   10.1289 C.3       1 RES1    0.0000
     51 H21       11.7483    6.4744    9.8687 H         1 RES1    0.0000
     52 H22       10.1772    6.6507   10.1153 H         1 RES1    0.0000
     53 H23       10.7412    5.2859    9.4995 H         1 RES1    0.0000
     54 C29        5.9564    4.3508   14.7223 C.3       2 RES2    0.0000
     55 C30        7.1056    3.3106   14.7889 C.ar      2 RES2    0.0000
     56 C31        8.0790    3.1090   13.8208 C.ar      2 RES2    0.0000
     57 H24        8.1003    3.6483   13.0385 H         2 RES2    0.0000
     58 C32        9.0285    2.0988   14.0148 C.ar      2 RES2    0.0000
     59 H25        9.7118    1.9632   13.3691 H         2 RES2    0.0000
     60 C33        8.9787    1.2935   15.1450 C.ar      2 RES2    0.0000
     61 H26        9.6336    0.6171   15.2720 H         2 RES2    0.0000
     62 C34        7.9718    1.4697   16.0984 C.ar      2 RES2    0.0000
     63 H27        7.9303    0.9104   16.8645 H         2 RES2    0.0000
     64 C35        7.0376    2.4716   15.9095 C.ar      2 RES2    0.0000
     65 C36        5.8194    2.7335   16.7933 C.3       2 RES2    0.0000
     66 H28        5.7651    2.1140   17.5760 H         2 RES2    0.0000
     67 C37        4.6320    2.6057   15.8501 C.ar      2 RES2    0.0000
     68 C38        3.5797    1.7272   16.0330 C.ar      2 RES2    0.0000
     69 H29        3.5179    1.2223   16.8343 H         2 RES2    0.0000
     70 C39        2.6092    1.5829   15.0419 C.ar      2 RES2    0.0000
     71 H30        1.8755    0.9934   15.1696 H         2 RES2    0.0000
     72 C40        2.7300    2.3112   13.8705 C.ar      2 RES2    0.0000
     73 H31        2.0976    2.1802   13.1744 H         2 RES2    0.0000
     74 C41        3.7656    3.2360   13.6919 C.ar      2 RES2    0.0000
     75 H32        3.8254    3.7347   12.8858 H         2 RES2    0.0000
     76 C42        4.7033    3.4223   14.6974 C.ar      2 RES2    0.0000
     77 C43        5.9142    5.0717   16.1026 C.ar      2 RES2    0.0000
     78 C44        5.9049    6.4396   16.3345 C.ar      2 RES2    0.0000
     79 H33        5.9001    7.0474   15.6043 H         2 RES2    0.0000
     80 C45        5.9033    6.9182   17.6537 C.ar      2 RES2    0.0000
     81 H34        5.9021    7.8543   17.8126 H         2 RES2    0.0000
     82 C46        5.9044    6.0407   18.7298 C.ar      2 RES2    0.0000
     83 H35        5.9160    6.3777   19.6182 H         2 RES2    0.0000
     84 C47        5.8883    4.6678   18.5036 C.ar      2 RES2    0.0000
     85 H36        5.8784    4.0619   19.2356 H         2 RES2    0.0000
     86 C48        5.8860    4.1889   17.1971 C.ar      2 RES2    0.0000
     87 N2         6.1345    5.2225   13.5537 N.3       2 RES2    0.0000
     88 C49        7.1475    6.1924   13.4401 C.ar      2 RES2    0.0000
     89 C50        7.1094    7.1259   12.3824 C.ar      2 RES2    0.0000
     90 H37        6.3873    7.1050   11.7649 H         2 RES2    0.0000
     91 C51        8.1106    8.0728   12.2314 C.ar      2 RES2    0.0000
     92 H38        8.0666    8.6884   11.5098 H         2 RES2    0.0000
     93 C52        9.1681    8.1352   13.1120 C.ar      2 RES2    0.0000
     94 H39        9.8448    8.7952   13.0100 H         2 RES2    0.0000
     95 C53        9.2268    7.2162   14.1502 C.ar      2 RES2    0.0000
     96 H40        9.9540    7.2491   14.7619 H         2 RES2    0.0000
     97 C54        8.2442    6.2492   14.3132 C.ar      2 RES2    0.0000
     98 H41        8.3148    5.6199   15.0220 H         2 RES2    0.0000
     99 O2         4.9879    5.5663   12.8207 O.3       2 RES2    0.0000
    100 C55        4.1756    6.5976   13.4384 C.3       2 RES2    0.0000
    101 H42        4.7165    7.4068   13.6208 H         2 RES2    0.0000
    102 H43        3.7894    6.2743   14.2903 H         2 RES2    0.0000
    103 C56        3.0918    6.8970   12.4448 C.3       2 RES2    0.0000
    104 H44        3.4943    7.1152   11.5786 H         2 RES2    0.0000
    105 H45        2.5606    7.6594   12.7599 H         2 RES2    0.0000
    106 H46        2.5124    6.1133   12.3471 H         2 RES2    0.0000
@<TRIPOS>BOND
     1    1    2 1
     2    2    3 ar
     3    3    4 1
     4    5    3 ar
     5    6    5 1
     6    7    5 ar
     7    8    7 1
     8    9    7 ar
     9   10    9 1
    10   11    2 ar
    11   12   11 1
    12   13   12 1
    13   14   12 1
    14   15   14 ar
    15   16   15 1
    16   17   15 ar
    17   18   17 1
    18   19   17 ar
    19   20   19 1
    20   21   19 ar
    21   22   21 1
    22   23    1 1
    23   24    1 1
    24   25   24 ar
    25   26   25 1
    26   27   25 ar
    27   28   27 1
    28   29   27 ar
    29   30   29 1
    30   31   29 ar
    31   32   31 1
    32   33   12 1
    33   34    1 1
    34   35   34 1
    35   36   35 ar
    36   37   36 1
    37   38   36 ar
    38   39   38 1
    39   40   38 ar
    40   41   40 1
    41   42   40 ar
    42   43   42 1
    43   44   35 ar
    44   45   44 1
    45   46   34 1
    46   47   46 1
    47   48   47 1
    48   49   47 1
    49   50   47 1
    50   51   50 1
    51   52   50 1
    52   53   50 1
    53   54   55 1
    54   55   56 ar
    55   56   57 1
    56   58   56 ar
    57   59   58 1
    58   60   58 ar
    59   61   60 1
    60   62   60 ar
    61   63   62 1
    62   64   55 ar
    63   65   64 1
    64   66   65 1
    65   67   65 1
    66   68   67 ar
    67   69   68 1
    68   70   68 ar
    69   71   70 1
    70   72   70 ar
    71   73   72 1
    72   74   72 ar
    73   75   74 1
    74   76   54 1
    75   77   54 1
    76   78   77 ar
    77   79   78 1
    78   80   78 ar
    79   81   80 1
    80   82   80 ar
    81   83   82 1
    82   84   82 ar
    83   85   84 1
    84   86   65 1
    85   87   54 1
    86   88   87 1
    87   89   88 ar
    88   90   89 1
    89   91   89 ar
    90   92   91 1
    91   93   91 ar
    92   94   93 1
    93   95   93 ar
    94   96   95 1
    95   97   88 ar
    96   98   97 1
    97   99   87 1
    98  100   99 1
    99  101  100 1
   100  102  100 1
   101  103  100 1
   102  104  103 1
   103  105  103 1
   104  106  103 1
   105    9   11 ar
   106   14   23 ar
   107   21   23 ar
   108   24   33 ar
   109   31   33 ar
   110   42   44 ar
   111   62   64 ar
   112   67   76 ar
   113   74   76 ar
   114   77   86 ar
   115   84   86 ar
   116   95   97 ar
@<TRIPOS>SUBSTRUCTURE
     1 RES1 1
     2 RES2 54

@<TRIPOS>CRYSIN
  14.3990   16.9530   16.7880  90.0000  91.7042  90.0000  14 1

