# MOL2 file generated by ConQuest
# Please check atom types

@<TRIPOS>MOLECULE
FIBVES
    52    57     1
SMALL
USER_CHARGES
****
Generated from CSD

@<TRIPOS>ATOM
      1 C1         0.6113    1.7888    4.9952 C.3       1 RES1    0.0000
      2 C2         0.5914    3.2228    5.6014 C.ar      1 RES1    0.0000
      3 C3         0.5124    4.4627    4.9762 C.ar      1 RES1    0.0000
      4 H1         0.4857    4.5165    4.0288 H         1 RES1    0.0000
      5 C4         0.4729    5.6191    5.7400 C.ar      1 RES1    0.0000
      6 H2         0.4340    6.4641    5.3085 H         1 RES1    0.0000
      7 C5         0.4865    5.5613    7.1154 C.ar      1 RES1    0.0000
      8 H3         0.4704    6.3622    7.6266 H         1 RES1    0.0000
      9 C6         0.5248    4.3247    7.7579 C.ar      1 RES1    0.0000
     10 H4         0.5160    4.2805    8.7076 H         1 RES1    0.0000
     11 C7         0.5753    3.1610    7.0088 C.ar      1 RES1    0.0000
     12 C8        -0.6662    1.1267    5.5335 C.ar      1 RES1    0.0000
     13 C9        -1.7548    0.6589    4.8079 C.ar      1 RES1    0.0000
     14 H5        -1.7602    0.7174    3.8597 H         1 RES1    0.0000
     15 C10       -2.8364    0.1067    5.4831 C.ar      1 RES1    0.0000
     16 H6        -3.5778   -0.2311    4.9946 H         1 RES1    0.0000
     17 C11       -2.8356    0.0465    6.8595 C.ar      1 RES1    0.0000
     18 H7        -3.5710   -0.3467    7.3127 H         1 RES1    0.0000
     19 C12       -1.7667    0.5553    7.5933 C.ar      1 RES1    0.0000
     20 H8        -1.7853    0.5337    8.5423 H         1 RES1    0.0000
     21 C13       -0.6803    1.0930    6.9314 C.ar      1 RES1    0.0000
     22 C14        1.8103    1.0545    5.6395 C.ar      1 RES1    0.0000
     23 C15        2.8773    0.4590    4.9799 C.ar      1 RES1    0.0000
     24 H9         2.9283    0.4895    4.0325 H         1 RES1    0.0000
     25 C16        3.8687   -0.1806    5.7116 C.ar      1 RES1    0.0000
     26 H10        4.5883   -0.6075    5.2621 H         1 RES1    0.0000
     27 C17        3.8161   -0.1990    7.0842 C.ar      1 RES1    0.0000
     28 H11        4.5021   -0.6356    7.5764 H         1 RES1    0.0000
     29 C18        2.7684    0.4149    7.7587 C.ar      1 RES1    0.0000
     30 H12        2.7385    0.4109    8.7076 H         1 RES1    0.0000
     31 C19        1.7618    1.0360    7.0229 C.ar      1 RES1    0.0000
     32 C20        0.5375    1.7486    7.5759 C.3       1 RES1    0.0000
     33 H13        0.5012    1.7350    8.5757 H         1 RES1    0.0000
     34 N1         0.7137    1.6628    3.5263 N.pl3     1 RES1    1.0000
     35 O1         0.5603    0.4887    3.0070 O.2       1 RES1   -1.0000
     36 N2         1.1621    2.6523    2.8545 N.2       1 RES1    0.0000
     37 N3         1.3475    2.3417    1.5718 N.pl3     1 RES1    0.0000
     38 H14        1.0954    1.4525    1.3021 H         1 RES1    0.0000
     39 C21        1.6538    3.3609    0.6735 C.ar      1 RES1    0.0000
     40 C22        1.6180    3.1129   -0.7081 C.ar      1 RES1    0.0000
     41 C23        1.9076    4.1650   -1.5920 C.ar      1 RES1    0.0000
     42 H15        1.8928    4.0061   -2.5280 H         1 RES1    0.0000
     43 C24        2.2123    5.4241   -1.1224 C.ar      1 RES1    0.0000
     44 H16        2.4064    6.1255   -1.7330 H         1 RES1    0.0000
     45 C25        2.2355    5.6632    0.2379 C.ar      1 RES1    0.0000
     46 H17        2.4334    6.5356    0.5572 H         1 RES1    0.0000
     47 C26        1.9763    4.6561    1.1321 C.ar      1 RES1    0.0000
     48 H18        2.0153    4.8311    2.0655 H         1 RES1    0.0000
     49 C27        1.2583    1.7631   -1.2190 C.2       1 RES1    0.0000
     50 O2         1.2255    0.7552   -0.5504 O.2       1 RES1    0.0000
     51 O3         0.9407    1.7591   -2.5107 O.3       1 RES1    0.0000
     52 H19        0.5413    1.0441   -2.6988 H         1 RES1    0.0000
@<TRIPOS>BOND
     1    1    2 1
     2    2    3 ar
     3    3    4 1
     4    5    3 ar
     5    6    5 1
     6    7    5 ar
     7    8    7 1
     8    9    7 ar
     9   10    9 1
    10   11    2 ar
    11   12    1 1
    12   13   12 ar
    13   14   13 1
    14   15   13 ar
    15   16   15 1
    16   17   15 ar
    17   18   17 1
    18   19   17 ar
    19   20   19 1
    20   21   12 ar
    21   22    1 1
    22   23   22 ar
    23   24   23 1
    24   25   23 ar
    25   26   25 1
    26   27   25 ar
    27   28   27 1
    28   29   27 ar
    29   30   29 1
    30   31   22 ar
    31   32   11 1
    32   33   32 1
    33   34    1 1
    34   35   34 1
    35   36   34 2
    36   37   36 1
    37   38   37 1
    38   39   37 1
    39   40   39 ar
    40   41   40 ar
    41   42   41 1
    42   43   41 ar
    43   44   43 1
    44   45   43 ar
    45   46   45 1
    46   47   39 ar
    47   48   47 1
    48   49   40 1
    49   50   49 2
    50   51   49 1
    51   52   51 1
    52    9   11 ar
    53   19   21 ar
    54   21   32 1
    55   29   31 ar
    56   31   32 1
    57   45   47 ar
@<TRIPOS>SUBSTRUCTURE
     1 RES1 1

@<TRIPOS>CRYSIN
  14.1290    8.0250   18.6200  90.0000  94.0170  90.0000  14 2

