# MOL2 file generated by ConQuest
# Please check atom types

@<TRIPOS>MOLECULE
FIBYUN
    34    35     1
SMALL
NO_CHARGES
****
Generated from CSD

@<TRIPOS>ATOM
      1 O1         0.9138    1.5600    6.2704 O.3       1 RES1    0.0000
      2 O2        -2.3886    2.1726    5.4071 O.3       1 RES1    0.0000
      3 O3        -2.1145    2.3346    8.1776 O.3       1 RES1    0.0000
      4 O4         1.3623    1.7903    9.0268 O.3       1 RES1    0.0000
      5 O5         3.6668   -4.5957    7.5544 O.2       1 RES1    0.0000
      6 O6         1.6794   -5.3917    7.7148 O.2       1 RES1    0.0000
      7 N1         2.4607   -4.4608    7.6975 N.pl3     1 RES1    0.0000
      8 C1         0.4430    1.9480    4.9594 C.3       1 RES1    0.0000
      9 C2        -0.3092    3.2498    5.0460 C.3       1 RES1    0.0000
     10 C3        -1.4906    3.1183    5.9871 C.3       1 RES1    0.0000
     11 C4        -0.9931    2.6279    7.3413 C.3       1 RES1    0.0000
     12 C5        -0.1676    1.3514    7.1731 C.3       1 RES1    0.0000
     13 C6         0.4375    0.8564    8.4957 C.3       1 RES1    0.0000
     14 C7         1.0113   -0.5308    8.3266 C.ar      1 RES1    0.0000
     15 C8         2.3112   -0.7448    7.8690 C.ar      1 RES1    0.0000
     16 C9         2.7772   -2.0276    7.6456 C.ar      1 RES1    0.0000
     17 C10        1.9450   -3.0960    7.8914 C.ar      1 RES1    0.0000
     18 C11        0.6512   -2.9294    8.3523 C.ar      1 RES1    0.0000
     19 C12        0.2058   -1.6308    8.5704 C.ar      1 RES1    0.0000
     20 H1        -3.0586    2.0806    5.9044 H         1 RES1    0.0000
     21 H2        -1.9626    2.6101    8.9566 H         1 RES1    0.0000
     22 H3         1.9820    1.9162    8.4744 H         1 RES1    0.0000
     23 H4        -0.1507    1.2446    4.5969 H         1 RES1    0.0000
     24 H5         1.2134    2.0488    4.3460 H         1 RES1    0.0000
     25 H6        -0.6300    3.5077    4.1460 H         1 RES1    0.0000
     26 H7         0.2965    3.9618    5.3732 H         1 RES1    0.0000
     27 H8        -1.9450    4.0021    6.0907 H         1 RES1    0.0000
     28 H9        -0.4315    3.3368    7.7687 H         1 RES1    0.0000
     29 H10       -0.7589    0.6345    6.8042 H         1 RES1    0.0000
     30 H11       -0.3135    0.7841    9.1507 H         1 RES1    0.0000
     31 H12        2.8819   -0.0032    7.7099 H         1 RES1    0.0000
     32 H13        3.6601   -2.1697    7.3256 H         1 RES1    0.0000
     33 H14        0.0865   -3.6764    8.5136 H         1 RES1    0.0000
     34 H15       -0.6760   -1.4939    8.8958 H         1 RES1    0.0000
@<TRIPOS>BOND
     1    1    8 1
     2    2   10 1
     3    3   11 1
     4    4   13 1
     5    5    7 2
     6    6    7 2
     7    7   17 1
     8    8    9 1
     9    9   10 1
    10   10   11 1
    11   11   12 1
    12   12    1 1
    13   13   12 1
    14   14   13 1
    15   15   14 ar
    16   16   15 ar
    17   17   16 ar
    18   18   17 ar
    19   19   14 ar
    20   20    2 1
    21   21    3 1
    22   22    4 1
    23   23    8 1
    24   24    8 1
    25   25    9 1
    26   26    9 1
    27   27   10 1
    28   28   11 1
    29   29   12 1
    30   30   13 1
    31   31   15 1
    32   32   16 1
    33   33   18 1
    34   34   19 1
    35   18   19 ar
@<TRIPOS>SUBSTRUCTURE
     1 RES1 1

@<TRIPOS>CRYSIN
   6.0518   10.6100   19.6030  90.0000  90.0000  90.0000  19 1

