# MOL2 file generated by ConQuest
# Please check atom types

@<TRIPOS>MOLECULE
FICDOK
    18    18     1
SMALL
NO_CHARGES
****
Generated from CSD

@<TRIPOS>ATOM
      1 N1         1.9047    5.1151    1.1162 N.pl3     1 RES1    0.0000
      2 C1         2.0642    3.6602    1.0514 C.3       1 RES1    0.0000
      3 C2         0.8026    5.7950    1.5188 C.2       1 RES1    0.0000
      4 N2         0.9579    7.0978    1.4933 N.2       1 RES1    0.0000
      5 C3         2.2403    7.2482    1.0273 C.2       1 RES1    0.0000
      6 N3         2.7785    8.5413    0.7987 N.pl3     1 RES1    0.0000
      7 O1         2.1352    9.5228    1.1402 O.2       1 RES1    0.0000
      8 O2         3.8674    8.6258    0.2250 O.2       1 RES1    0.0000
      9 C4         2.8430    6.0433    0.8002 C.2       1 RES1    0.0000
     10 O3         4.0292    5.6437    0.3109 O.3       1 RES1    0.0000
     11 C5         5.2004    6.0246    1.0608 C.3       1 RES1    0.0000
     12 H1         1.2938    3.2072    1.3994 H         1 RES1    0.0000
     13 H2         2.8412    3.4030    1.5545 H         1 RES1    0.0000
     14 H3         2.1870    3.4217    0.1296 H         1 RES1    0.0000
     15 H4        -0.0132    5.3670    1.7896 H         1 RES1    0.0000
     16 H5         5.8958    5.6936    0.4878 H         1 RES1    0.0000
     17 H6         5.3082    5.6562    1.9403 H         1 RES1    0.0000
     18 H7         5.2517    6.9822    1.1060 H         1 RES1    0.0000
@<TRIPOS>BOND
     1    1    2 1
     2    2   12 1
     3    3    1 1
     4    4    3 2
     5    5    4 1
     6    6    5 1
     7    7    6 2
     8    8    6 2
     9    9    1 1
    10   10    9 1
    11   11   10 1
    12   13    2 1
    13   14    2 1
    14   15    3 1
    15   16   11 1
    16   17   11 1
    17   18   11 1
    18    5    9 2
@<TRIPOS>SUBSTRUCTURE
     1 RES1 1

@<TRIPOS>CRYSIN
  10.9290    8.8990    7.2900  90.0000  92.8700  90.0000  14 1

