# MOL2 file generated by ConQuest
# Please check atom types

@<TRIPOS>MOLECULE
FICHAB
    27    27     1
SMALL
NO_CHARGES
****
Generated from CSD

@<TRIPOS>ATOM
      1 O1         1.0685    4.5318   12.3478 O.2       1 RES1    0.0000
      2 O2         1.9299    2.2356    5.6715 O.2       1 RES1    0.0000
      3 O3         0.3567    3.7040    5.7811 O.2       1 RES1    0.0000
      4 N1         3.1101    4.6505   11.3709 N.am      1 RES1    0.0000
      5 H1         3.9784    4.5997   11.5628 H         1 RES1    0.0000
      6 N2         1.3280    3.1364    6.2567 N.pl3     1 RES1    0.0000
      7 C1         2.6640    4.2878   10.0616 C.ar      1 RES1    0.0000
      8 C2         1.7726    5.1279    9.3733 C.ar      1 RES1    0.0000
      9 C3         1.3222    4.7224    8.1230 C.ar      1 RES1    0.0000
     10 H2         0.7086    5.2666    7.6173 H         1 RES1    0.0000
     11 C4         1.8029    3.5449    7.5860 C.ar      1 RES1    0.0000
     12 C5         2.7187    2.7455    8.2333 C.ar      1 RES1    0.0000
     13 H3         3.0173    1.9672    7.8582 H         1 RES1    0.0000
     14 C6         3.1616    3.1055    9.4933 C.ar      1 RES1    0.0000
     15 C7         1.3421    6.4622    9.9285 C.3       1 RES1    0.0000
     16 H4         0.7749    6.9393    9.3105 H         1 RES1    0.0000
     17 H5         0.7898    6.3877   10.7771 H         1 RES1    0.0000
     18 H6         2.1410    6.9932   10.1747 H         1 RES1    0.0000
     19 C8         4.1449    2.2449   10.2376 C.3       1 RES1    0.0000
     20 H7         4.2813    1.4325    9.8081 H         1 RES1    0.0000
     21 H8         5.0343    2.6860   10.2926 H         1 RES1    0.0000
     22 H9         3.8699    2.0522   11.1568 H         1 RES1    0.0000
     23 C9         2.2823    4.6916   12.4489 C.2       1 RES1    0.0000
     24 C10        2.9259    5.0007   13.7601 C.3       1 RES1    0.0000
     25 H10        2.4936    5.6838   14.1818 H         1 RES1    0.0000
     26 H11        2.9103    4.2232   14.2865 H         1 RES1    0.0000
     27 H12        3.8555    5.1862   13.7103 H         1 RES1    0.0000
@<TRIPOS>BOND
     1    1   23 2
     2    2    6 2
     3    3    6 2
     4    4    5 1
     5    6   11 1
     6    7    4 1
     7    8    7 ar
     8    9    8 ar
     9   10    9 1
    10   11    9 ar
    11   12   11 ar
    12   13   12 1
    13   14    7 ar
    14   15    8 1
    15   16   15 1
    16   17   15 1
    17   18   15 1
    18   19   14 1
    19   20   19 1
    20   21   19 1
    21   22   19 1
    22   23    4 1
    23   24   23 1
    24   25   24 1
    25   26   24 1
    26   27   24 1
    27   12   14 ar
@<TRIPOS>SUBSTRUCTURE
     1 RES1 1

@<TRIPOS>CRYSIN
   4.7659    8.4244   13.5506  76.6560  80.5280  76.3840   2 1

