# MOL2 file generated by ConQuest
# Please check atom types

@<TRIPOS>MOLECULE
FICLEK
    24    25     1
SMALL
NO_CHARGES
****
Generated from CSD

@<TRIPOS>ATOM
      1 O1        10.0558    4.6417   -2.2641 O.3       1 RES1    0.0000
      2 O2        12.1103    1.1563   -1.3347 O.3       1 RES1    0.0000
      3 O3        10.6270    0.9663    0.3245 O.2       1 RES1    0.0000
      4 N1         8.9997    4.5121   -1.3205 N.2       1 RES1    0.0000
      5 C1         8.0548    3.9116    1.4216 C.ar      1 RES1    0.0000
      6 C2         7.1349    3.6047    2.4088 C.ar      1 RES1    0.0000
      7 C3         6.4340    2.4223    2.3591 C.ar      1 RES1    0.0000
      8 C4         6.6726    1.5228    1.3427 C.ar      1 RES1    0.0000
      9 C5         7.6096    1.8045    0.3703 C.ar      1 RES1    0.0000
     10 C6         8.2956    3.0114    0.3957 C.ar      1 RES1    0.0000
     11 C7         9.2315    3.3942   -0.6868 C.2       1 RES1    0.0000
     12 C8        10.8732    3.5922   -2.1617 C.2       1 RES1    0.0000
     13 C9        12.0484    3.6065   -3.0624 C.3       1 RES1    0.0000
     14 C10       10.4166    2.7543   -1.1859 C.2       1 RES1    0.0000
     15 C11       11.0664    1.5449   -0.6912 C.2       1 RES1    0.0000
     16 H1         8.5108    4.7214    1.4469 H         1 RES1    0.0000
     17 H2         6.9897    4.2005    3.1077 H         1 RES1    0.0000
     18 H3         5.7998    2.2297    3.0110 H         1 RES1    0.0000
     19 H4         6.1995    0.7225    1.3120 H         1 RES1    0.0000
     20 H5         7.7819    1.1854   -0.3025 H         1 RES1    0.0000
     21 H6        11.9397    2.9361   -3.7413 H         1 RES1    0.0000
     22 H7        12.8419    3.4235   -2.5546 H         1 RES1    0.0000
     23 H8        12.1251    4.4702   -3.4756 H         1 RES1    0.0000
     24 H9        12.4063    0.4743   -0.9891 H         1 RES1    0.0000
@<TRIPOS>BOND
     1    1    4 1
     2    2   15 1
     3    3   15 2
     4    4   11 2
     5    5    6 ar
     6    6    7 ar
     7    7    8 ar
     8    8    9 ar
     9    9   10 ar
    10   10    5 ar
    11   11   10 1
    12   12    1 1
    13   13   12 1
    14   14   11 1
    15   15   14 1
    16   16    5 1
    17   17    6 1
    18   18    7 1
    19   19    8 1
    20   20    9 1
    21   21   13 1
    22   22   13 1
    23   23   13 1
    24   24    2 1
    25   12   14 2
@<TRIPOS>SUBSTRUCTURE
     1 RES1 1

@<TRIPOS>CRYSIN
  11.9530    5.9810   14.1420  90.0000 105.5480  90.0000 231 1

