# MOL2 file generated by ConQuest
# Please check atom types

@<TRIPOS>MOLECULE
FIDBOL
    93    96     3
SMALL
NO_CHARGES
****
Generated from CSD

@<TRIPOS>ATOM
      1 O1         3.7473   11.4515   13.6949 O.2       1 RES1    0.0000
      2 O2         1.0220   11.3855    9.3129 O.2       1 RES1    0.0000
      3 O3         2.7744   11.2933    8.0909 O.2       1 RES1    0.0000
      4 N1         5.4128   10.9875   11.8161 N.pl3     1 RES1    0.0000
      5 H1         5.1898   11.4145   12.5534 H         1 RES1    0.0000
      6 N2         4.7253    9.8193    9.9467 N.pl3     1 RES1    0.0000
      7 N3         2.0385   10.8364    8.9360 N.pl3     1 RES1    0.0000
      8 C1         6.8067   11.0495   11.4051 C.3       1 RES1    0.0000
      9 H2         7.3943   10.9673   12.1973 H         1 RES1    0.0000
     10 H3         6.9893   11.9200   10.9723 H         1 RES1    0.0000
     11 C2         7.0961    9.9257   10.4360 C.3       1 RES1    0.0000
     12 H4         7.9892   10.0588   10.0308 H         1 RES1    0.0000
     13 H5         7.1021    9.0620   10.9196 H         1 RES1    0.0000
     14 C3         6.0698    9.8938    9.3770 C.3       1 RES1    0.0000
     15 H6         6.1459   10.7093    8.8200 H         1 RES1    0.0000
     16 H7         6.2235    9.1079    8.7929 H         1 RES1    0.0000
     17 C4         4.4465   10.3392   11.1710 C.2       1 RES1    0.0000
     18 C5         3.7644    9.0466    9.1750 C.3       1 RES1    0.0000
     19 H8         3.9208    9.2476    8.2075 H         1 RES1    0.0000
     20 C6         2.3334    9.4519    9.5039 C.3       1 RES1    0.0000
     21 H9         1.7115    8.7951    9.0764 H         1 RES1    0.0000
     22 C7         2.0912    9.4372   10.9997 C.3       1 RES1    0.0000
     23 H10        2.0795    8.4999   11.3184 H         1 RES1    0.0000
     24 H11        1.2042    9.8326   11.1888 H         1 RES1    0.0000
     25 C8         3.1529   10.2087   11.7600 C.2       1 RES1    0.0000
     26 C9         2.9051   10.7782   13.0193 C.2       1 RES1    0.0000
     27 C10        1.5526   10.6404   13.6737 C.ar      1 RES1    0.0000
     28 C11        0.9199    9.4151   13.8580 C.ar      1 RES1    0.0000
     29 H12        1.3321    8.6183   13.5448 H         1 RES1    0.0000
     30 C12       -0.3093    9.3510   14.4975 C.ar      1 RES1    0.0000
     31 H13       -0.7369    8.5105   14.6188 H         1 RES1    0.0000
     32 C13       -0.9135   10.5030   14.9568 C.ar      1 RES1    0.0000
     33 H14       -1.7666   10.4583   15.3709 H         1 RES1    0.0000
     34 C14       -0.2825   11.7164   14.8161 C.ar      1 RES1    0.0000
     35 H15       -0.6909   12.5068   15.1487 H         1 RES1    0.0000
     36 C15        0.9505   11.7862   14.1878 C.ar      1 RES1    0.0000
     37 H16        1.3894   12.6253   14.1075 H         1 RES1    0.0000
     38 C16        3.9989    7.5916    9.3762 C.2       1 RES1    0.0000
     39 C17        4.4327    6.8526   10.4068 C.2       1 RES1    0.0000
     40 H17        4.6622    7.1548   11.2771 H         1 RES1    0.0000
     41 C18        4.4752    5.4969    9.9097 C.2       1 RES1    0.0000
     42 H18        4.7438    4.7263   10.3954 H         1 RES1    0.0000
     43 C19        4.0701    5.5319    8.6548 C.2       1 RES1    0.0000
     44 H19        3.9977    4.7723    8.0879 H         1 RES1    0.0000
     45 O4         3.7713    6.8006    8.2840 O.3       1 RES1    0.0000
     46 O5         0.8729    8.7157    6.8670 O.2       2 RES2    0.0000
     47 O6         0.2156    8.6988    1.5525 O.2       2 RES2    0.0000
     48 O7        -0.5882    6.8514    2.2849 O.2       2 RES2    0.0000
     49 O8        -3.7961   11.0950    1.8684 O.3       2 RES2    0.0000
     50 N4         0.8784   10.7434    5.3110 N.pl3     2 RES2    0.0000
     51 H20        1.1348   10.3629    6.0623 H         2 RES2    0.0000
     52 N5        -0.6196   10.8411    3.5632 N.pl3     2 RES2    0.0000
     53 N6        -0.6159    8.0609    2.1691 N.pl3     2 RES2    0.0000
     54 C20        1.5951   11.9248    4.8786 C.3       2 RES2    0.0000
     55 H21        1.4834   12.6270    5.5666 H         2 RES2    0.0000
     56 H22        2.5592   11.7044    4.8345 H         2 RES2    0.0000
     57 C21       -0.1162   12.1471    3.1394 C.3       2 RES2    0.0000
     58 H23       -0.0892   12.1745    2.1495 H         2 RES2    0.0000
     59 H24       -0.7466   12.8480    3.4428 H         2 RES2    0.0000
     60 C22        0.6765   12.8374    4.1394 C.3       2 RES2    0.0000
     61 H25        0.0682   13.2775    4.7861 H         2 RES2    0.0000
     62 H26        1.2095   13.5444    3.6964 H         2 RES2    0.0000
     63 C23       -0.1408   10.1926    4.6536 C.2       2 RES2    0.0000
     64 C24       -1.6503   10.2891    2.6773 C.3       2 RES2    0.0000
     65 H27       -1.3918   10.4866    1.7321 H         2 RES2    0.0000
     66 C25       -1.7756    8.7824    2.8332 C.3       2 RES2    0.0000
     67 H28       -2.6227    8.4911    2.3888 H         2 RES2    0.0000
     68 C26       -1.8401    8.3712    4.2970 C.3       2 RES2    0.0000
     69 H29       -2.6886    8.6943    4.6920 H         2 RES2    0.0000
     70 H30       -1.8295    7.3828    4.3616 H         2 RES2    0.0000
     71 C27       -0.6774    8.9359    5.0788 C.2       2 RES2    0.0000
     72 C28       -0.0895    8.2530    6.1628 C.2       2 RES2    0.0000
     73 C29       -0.5194    6.8611    6.5181 C.ar      2 RES2    0.0000
     74 C30       -1.8390    6.4768    6.7159 C.ar      2 RES2    0.0000
     75 H31       -2.5377    7.1071    6.5879 H         2 RES2    0.0000
     76 C31       -2.1416    5.1857    7.0965 C.ar      2 RES2    0.0000
     77 H32       -3.0464    4.9349    7.2361 H         2 RES2    0.0000
     78 C32       -1.1313    4.2535    7.2761 C.ar      2 RES2    0.0000
     79 H33       -1.3456    3.3636    7.5295 H         2 RES2    0.0000
     80 C33        0.1815    4.6190    7.0861 C.ar      2 RES2    0.0000
     81 H34        0.8757    3.9822    7.2061 H         2 RES2    0.0000
     82 C34        0.4860    5.9070    6.7223 C.ar      2 RES2    0.0000
     83 H35        1.3956    6.1562    6.6065 H         2 RES2    0.0000
     84 C35       -2.9688   10.9422    2.9520 C.2       2 RES2    0.0000
     85 C36       -3.5535   11.4080    4.0602 C.2       2 RES2    0.0000
     86 H36       -3.1870   11.4181    4.9370 H         2 RES2    0.0000
     87 C37       -4.8359   11.8877    3.6638 C.2       2 RES2    0.0000
     88 H37       -5.4912   12.2806    4.2277 H         2 RES2    0.0000
     89 C38       -4.9394   11.6803    2.3519 C.2       2 RES2    0.0000
     90 H38       -5.6973   11.9059    1.8261 H         2 RES2    0.0000
     91 C39        1.2139   12.4520    3.6551 Du        3 SUP3    0.0000
     92 H39        1.8727   12.1498    2.9813 Du        3 SUP3    0.0000
     93 H40        1.2919   13.4365    3.7163 Du        3 SUP3    0.0000
@<TRIPOS>BOND
     1    1   26 2
     2    2    7 2
     3    3    7 2
     4    4    5 1
     5    6   14 1
     6    7   20 1
     7    8    4 1
     8    9    8 1
     9   10    8 1
    10   11    8 1
    11   12   11 1
    12   13   11 1
    13   14   11 1
    14   15   14 1
    15   16   14 1
    16   17    4 1
    17   18    6 1
    18   19   18 1
    19   20   18 1
    20   21   20 1
    21   22   20 1
    22   23   22 1
    23   24   22 1
    24   25   17 2
    25   26   25 1
    26   27   26 1
    27   28   27 ar
    28   29   28 1
    29   30   28 ar
    30   31   30 1
    31   32   30 ar
    32   33   32 1
    33   34   32 ar
    34   35   34 1
    35   36   27 ar
    36   37   36 1
    37   38   18 1
    38   39   38 2
    39   40   39 1
    40   41   39 1
    41   42   41 1
    42   43   41 2
    43   44   43 1
    44   45   38 1
    45   46   72 2
    46   47   53 2
    47   48   53 2
    48   49   84 1
    49   50   51 1
    50   52   57 1
    51   53   66 1
    52   54   50 1
    53   55   54 1
    54   56   54 1
    55   57   58 1
    56   59   57 1
    57   60   54 1
    58   61   60 1
    59   62   60 1
    60   63   50 1
    61   64   52 1
    62   65   64 1
    63   66   64 1
    64   67   66 1
    65   68   66 1
    66   69   68 1
    67   70   68 1
    68   71   63 2
    69   72   71 1
    70   73   72 1
    71   74   73 ar
    72   75   74 1
    73   76   74 ar
    74   77   76 1
    75   78   76 ar
    76   79   78 1
    77   80   78 ar
    78   81   80 1
    79   82   73 ar
    80   83   82 1
    81   84   64 1
    82   85   84 2
    83   86   85 1
    84   87   85 1
    85   88   87 1
    86   89   49 1
    87   90   89 1
    88    6   17 1
    89   22   25 1
    90   34   36 ar
    91   43   45 1
    92   52   63 1
    93   57   60 1
    94   68   71 1
    95   80   82 ar
    96   87   89 2
@<TRIPOS>SUBSTRUCTURE
     1 RES1 1
     2 RES2 46
     3 SUP3 91

@<TRIPOS>CRYSIN
  13.5060   17.6750   14.7550  90.0000 105.1200  90.0000  14 1

