# MOL2 file generated by ConQuest
# Please check atom types

@<TRIPOS>MOLECULE
FIDCOM
    60    66     1
SMALL
NO_CHARGES
****
Generated from CSD

@<TRIPOS>ATOM
      1 C1        16.1278   -0.8390    9.1360 C.ar      1 RES1    0.0000
      2 C2        16.7336   -0.5923    7.9163 C.ar      1 RES1    0.0000
      3 H1        16.5163   -1.1083    7.1736 H         1 RES1    0.0000
      4 C3        17.6566    0.4163    7.8089 C.ar      1 RES1    0.0000
      5 H2        18.0444    0.6031    6.9839 H         1 RES1    0.0000
      6 C4        18.0114    1.1555    8.9165 C.ar      1 RES1    0.0000
      7 H3        18.6512    1.8273    8.8448 H         1 RES1    0.0000
      8 C5        17.4142    0.8961   10.1321 C.ar      1 RES1    0.0000
      9 H4        17.6599    1.3918   10.8790 H         1 RES1    0.0000
     10 C6        16.4535   -0.0932   10.2551 C.ar      1 RES1    0.0000
     11 C7        15.7216   -0.3082   11.5530 C.3       1 RES1    0.0000
     12 H5        16.3784   -0.2948   12.2802 H         1 RES1    0.0000
     13 C8        14.9579   -1.6457   11.6208 C.3       1 RES1    0.0000
     14 C9        15.1906   -2.6013   10.4300 C.3       1 RES1    0.0000
     15 H6        14.4134   -3.1989   10.3974 H         1 RES1    0.0000
     16 C10       16.4113   -3.4866   10.4545 C.ar      1 RES1    0.0000
     17 C11       17.6154   -3.1361   11.0425 C.ar      1 RES1    0.0000
     18 H7        17.7048   -2.3032   11.4464 H         1 RES1    0.0000
     19 C12       18.6827   -4.0055   11.0374 C.ar      1 RES1    0.0000
     20 H8        19.4845   -3.7614   11.4409 H         1 RES1    0.0000
     21 C13       18.5617   -5.2369   10.4346 C.ar      1 RES1    0.0000
     22 H9        19.2814   -5.8261   10.4320 H         1 RES1    0.0000
     23 C14       17.3778   -5.5960    9.8355 C.ar      1 RES1    0.0000
     24 H10       17.2986   -6.4258    9.4231 H         1 RES1    0.0000
     25 C15       16.3092   -4.7277    9.8459 C.ar      1 RES1    0.0000
     26 H11       15.5098   -4.9766    9.4396 H         1 RES1    0.0000
     27 C16       13.4758   -1.2425   11.7361 C.3       1 RES1    0.0000
     28 H12       13.1366   -1.0655   10.8334 H         1 RES1    0.0000
     29 C17       12.5059   -2.1707   12.4294 C.3       1 RES1    0.0000
     30 H13       12.8206   -2.3674   13.3256 H         1 RES1    0.0000
     31 H14       12.4421   -3.0053   11.9390 H         1 RES1    0.0000
     32 C18       11.1356   -1.4994   12.4956 C.3       1 RES1    0.0000
     33 H15       10.8002   -1.3547   11.5978 H         1 RES1    0.0000
     34 H16       10.5123   -2.0771   12.9625 H         1 RES1    0.0000
     35 C19       11.2434   -0.1701   13.2212 C.3       1 RES1    0.0000
     36 H17       10.3778    0.2700   13.2234 H         1 RES1    0.0000
     37 H18       11.5057   -0.3240   14.1429 H         1 RES1    0.0000
     38 C20       12.2637    0.7213   12.5460 C.3       1 RES1    0.0000
     39 H19       11.9537    0.9564   11.6581 H         1 RES1    0.0000
     40 H20       12.3696    1.5404   13.0556 H         1 RES1    0.0000
     41 C21       14.6446    0.7908   11.8502 C.3       1 RES1    0.0000
     42 C22       15.1273    1.9302   12.7120 C.ar      1 RES1    0.0000
     43 C23       15.6247    1.9422   13.9964 C.ar      1 RES1    0.0000
     44 H21       15.7153    1.1510   14.4768 H         1 RES1    0.0000
     45 C24       15.9886    3.1578   14.5593 C.ar      1 RES1    0.0000
     46 H22       16.3225    3.1831   15.4273 H         1 RES1    0.0000
     47 C25       15.8586    4.3279   13.8412 C.ar      1 RES1    0.0000
     48 H23       16.1155    5.1319   14.2323 H         1 RES1    0.0000
     49 C26       15.3553    4.3321   12.5555 C.ar      1 RES1    0.0000
     50 H24       15.2618    5.1240   12.0758 H         1 RES1    0.0000
     51 C27       14.9976    3.1200   12.0113 C.ar      1 RES1    0.0000
     52 C28       14.1993    1.5488   10.5660 C.2       1 RES1    0.0000
     53 N1        15.2998   -2.3890   12.9138 N.pl3     1 RES1    0.0000
     54 N2        13.5504    0.0302   12.4524 N.3       1 RES1    0.0000
     55 N3        14.4455    2.8592   10.7457 N.am      1 RES1    0.0000
     56 H25       14.2857    3.4644   10.1566 H         1 RES1    0.0000
     57 O1        15.1574   -1.8158    9.2117 O.3       1 RES1    0.0000
     58 O2        15.7464   -1.7620   13.8623 O.2       1 RES1    0.0000
     59 O3        15.0162   -3.5748   12.9519 O.2       1 RES1    0.0000
     60 O4        13.6617    1.0395    9.5882 O.2       1 RES1    0.0000
@<TRIPOS>BOND
     1    1    2 ar
     2    2    3 1
     3    4    2 ar
     4    5    4 1
     5    6    4 ar
     6    7    6 1
     7    8    6 ar
     8    9    8 1
     9   10    1 ar
    10   11   10 1
    11   12   11 1
    12   13   11 1
    13   14   13 1
    14   15   14 1
    15   16   14 1
    16   17   16 ar
    17   18   17 1
    18   19   17 ar
    19   20   19 1
    20   21   19 ar
    21   22   21 1
    22   23   21 ar
    23   24   23 1
    24   25   16 ar
    25   26   25 1
    26   27   13 1
    27   28   27 1
    28   29   27 1
    29   30   29 1
    30   31   29 1
    31   32   29 1
    32   33   32 1
    33   34   32 1
    34   35   32 1
    35   36   35 1
    36   37   35 1
    37   38   35 1
    38   39   38 1
    39   40   38 1
    40   41   11 1
    41   42   41 1
    42   43   42 ar
    43   44   43 1
    44   45   43 ar
    45   46   45 1
    46   47   45 ar
    47   48   47 1
    48   49   47 ar
    49   50   49 1
    50   51   42 ar
    51   52   41 1
    52   53   13 1
    53   54   27 1
    54   55   51 1
    55   56   55 1
    56   57    1 1
    57   58   53 2
    58   59   53 2
    59   60   52 2
    60    8   10 ar
    61   14   57 1
    62   23   25 ar
    63   38   54 1
    64   41   54 1
    65   49   51 ar
    66   52   55 1
@<TRIPOS>SUBSTRUCTURE
     1 RES1 1

@<TRIPOS>CRYSIN
  23.2940   11.2517   19.7702  90.0000 112.6590  90.0000  15 1

