# MOL2 file generated by ConQuest
# Please check atom types

@<TRIPOS>MOLECULE
FIDCIF
    27    28     1
SMALL
NO_CHARGES
****
Generated from CSD

@<TRIPOS>ATOM
      1 O1         5.7691    7.0626    5.0073 O.2       1 RES1    0.0000
      2 O2         4.8792    7.9558    3.2690 O.2       1 RES1    0.0000
      3 O3         4.9685    6.2542    1.2396 O.3       1 RES1    0.0000
      4 N1         4.2523    4.1415    1.7598 N.ar      1 RES1    0.0000
      5 N2         5.1743    6.9874    3.9439 N.pl3     1 RES1    0.0000
      6 C1         4.7613    5.6638    3.5037 C.ar      1 RES1    0.0000
      7 C2         4.4817    4.7199    4.4497 C.ar      1 RES1    0.0000
      8 H1         4.5788    4.9132    5.3545 H         1 RES1    0.0000
      9 C3         4.0557    3.4859    4.0452 C.ar      1 RES1    0.0000
     10 H2         3.8437    2.8252    4.6651 H         1 RES1    0.0000
     11 C4         3.9513    3.2518    2.7068 C.ar      1 RES1    0.0000
     12 H3         3.6503    2.4151    2.4357 H         1 RES1    0.0000
     13 C5         4.6420    5.3372    2.1506 C.ar      1 RES1    0.0000
     14 C6         4.9218    5.8682   -0.1415 C.3       1 RES1    0.0000
     15 H4         4.0151    5.6330   -0.3923 H         1 RES1    0.0000
     16 H5         5.4918    5.0974   -0.2929 H         1 RES1    0.0000
     17 C7         5.3985    7.0314   -0.9591 C.ar      1 RES1    0.0000
     18 C8         5.3871    6.9167   -2.3357 C.ar      1 RES1    0.0000
     19 H6         5.0816    6.1322   -2.7297 H         1 RES1    0.0000
     20 C9         5.8208    7.9495   -3.1258 C.ar      1 RES1    0.0000
     21 H7         5.8135    7.8567   -4.0513 H         1 RES1    0.0000
     22 C10        6.2676    9.1197   -2.5622 C.ar      1 RES1    0.0000
     23 H8         6.5660    9.8164   -3.1014 H         1 RES1    0.0000
     24 C11        6.2686    9.2493   -1.2014 C.ar      1 RES1    0.0000
     25 H9         6.5594   10.0424   -0.8126 H         1 RES1    0.0000
     26 C12        5.8400    8.2088   -0.4024 C.ar      1 RES1    0.0000
     27 H10        5.8505    8.3050    0.5230 H         1 RES1    0.0000
@<TRIPOS>BOND
     1    1    5 2
     2    2    5 2
     3    3   13 1
     4    4   11 ar
     5    5    6 1
     6    6    7 ar
     7    7    8 1
     8    9    7 ar
     9   10    9 1
    10   11    9 ar
    11   12   11 1
    12   13    4 ar
    13   14    3 1
    14   15   14 1
    15   16   14 1
    16   17   14 1
    17   18   17 ar
    18   19   18 1
    19   20   18 ar
    20   21   20 1
    21   22   20 ar
    22   23   22 1
    23   24   22 ar
    24   25   24 1
    25   26   17 ar
    26   27   26 1
    27    6   13 ar
    28   24   26 ar
@<TRIPOS>SUBSTRUCTURE
     1 RES1 1

@<TRIPOS>CRYSIN
   7.3740    7.7070   10.9280  83.3400  82.2150  63.2690   2 1

