# MOL2 file generated by ConQuest
# Please check atom types

@<TRIPOS>MOLECULE
FIDDUT
    30    31     1
SMALL
NO_CHARGES
****
Generated from CSD

@<TRIPOS>ATOM
      1 O1         6.7655    1.9004   -1.5105 O.3       1 RES1    0.0000
      2 O2         5.4196    1.7707    2.4367 O.2       1 RES1    0.0000
      3 O3         3.4631    1.4068    1.4722 O.3       1 RES1    0.0000
      4 N1         5.5114    2.0928   -2.1140 N.2       1 RES1    0.0000
      5 C1         2.7436    1.5197   -2.6379 C.ar      1 RES1    0.0000
      6 C2         1.4397    1.6646   -3.0201 C.ar      1 RES1    0.0000
      7 C3         0.5829    2.4451   -2.2934 C.ar      1 RES1    0.0000
      8 C4         1.0566    3.1034   -1.1827 C.ar      1 RES1    0.0000
      9 C5         2.3558    2.9662   -0.7854 C.ar      1 RES1    0.0000
     10 C6         3.2211    2.1809   -1.5080 C.ar      1 RES1    0.0000
     11 C7         4.6397    2.0339   -1.1501 C.2       1 RES1    0.0000
     12 C8         6.5987    1.7396   -0.1961 C.2       1 RES1    0.0000
     13 C9         7.8253    1.4545    0.5792 C.3       1 RES1    0.0000
     14 C10        5.2898    1.8238    0.1031 C.2       1 RES1    0.0000
     15 C11        4.7487    1.6713    1.4577 C.2       1 RES1    0.0000
     16 C12        2.8304    1.3305    2.7670 C.3       1 RES1    0.0000
     17 C13        1.3907    1.0650    2.5507 C.3       1 RES1    0.0000
     18 H1         3.3144    0.9775   -3.1333 H         1 RES1    0.0000
     19 H2         1.1321    1.2284   -3.7813 H         1 RES1    0.0000
     20 H3        -0.3082    2.5297   -2.5474 H         1 RES1    0.0000
     21 H4         0.4837    3.6502   -0.6949 H         1 RES1    0.0000
     22 H5         2.6561    3.4065   -0.0235 H         1 RES1    0.0000
     23 H6         8.0507    0.5252    0.4904 H         1 RES1    0.0000
     24 H7         7.6752    1.6602    1.5046 H         1 RES1    0.0000
     25 H8         8.5476    1.9914    0.2448 H         1 RES1    0.0000
     26 H9         2.9476    2.1665    3.2456 H         1 RES1    0.0000
     27 H10        3.2279    0.6186    3.2909 H         1 RES1    0.0000
     28 H11        1.0100    1.7711    2.0243 H         1 RES1    0.0000
     29 H12        0.9423    1.0198    3.3990 H         1 RES1    0.0000
     30 H13        1.2850    0.2290    2.0897 H         1 RES1    0.0000
@<TRIPOS>BOND
     1    1    4 1
     2    2   15 2
     3    3   15 1
     4    4   11 2
     5    5    6 ar
     6    6    7 ar
     7    7    8 ar
     8    8    9 ar
     9    9   10 ar
    10   10    5 ar
    11   11   10 1
    12   12    1 1
    13   13   12 1
    14   14   11 1
    15   15   14 1
    16   16    3 1
    17   17   16 1
    18   18    5 1
    19   19    6 1
    20   20    7 1
    21   21    8 1
    22   22    9 1
    23   23   13 1
    24   24   13 1
    25   25   13 1
    26   26   16 1
    27   27   16 1
    28   28   17 1
    29   29   17 1
    30   30   17 1
    31   12   14 2
@<TRIPOS>SUBSTRUCTURE
     1 RES1 1

@<TRIPOS>CRYSIN
   9.7500   14.5890    9.3970  90.0000 116.8720  90.0000  14 1

