# MOL2 file generated by ConQuest
# Please check atom types

@<TRIPOS>MOLECULE
FIDPIR
    12    14     1
SMALL
NO_CHARGES
****
Generated from CSD

@<TRIPOS>ATOM
      1 N1         0.5269    2.2561    0.9631 N.2       1 RES1    0.0000
      2 N2         1.7164    1.6938    1.4414 N.2       1 RES1    0.0000
      3 C1         1.7055    1.8089    2.7977 C.2       1 RES1    0.0000
      4 N3         2.6288    1.4024    3.6741 N.2       1 RES1    0.0000
      5 C2         2.2052    1.7276    4.9373 C.2       1 RES1    0.0000
      6 N4         2.8896    1.4566    6.0560 N.2       1 RES1    0.0000
      7 O1         2.0803    2.0393    6.9918 O.3       1 RES1    0.0000
      8 N5         0.9668    2.6287    6.5263 N.2       1 RES1    0.0000
      9 C3         0.9940    2.4051    5.2102 C.2       1 RES1    0.0000
     10 N6         0.0923    2.8387    4.3370 N.2       1 RES1    0.0000
     11 C4         0.4834    2.5000    3.1332 C.2       1 RES1    0.0000
     12 N7        -0.2064    2.7168    1.9502 N.pl3     1 RES1    0.0000
@<TRIPOS>BOND
     1    1    2 2
     2    2    3 1
     3    3    4 2
     4    4    5 1
     5    5    6 2
     6    6    7 1
     7    7    8 1
     8    8    9 2
     9    9    5 1
    10   10    9 1
    11   11    3 1
    12   12    1 1
    13   10   11 2
    14   11   12 1
@<TRIPOS>SUBSTRUCTURE
     1 RES1 1

@<TRIPOS>CRYSIN
   5.4315    6.7750   16.0510  90.0000  90.0000  90.0000  19 1

