# MOL2 file generated by ConQuest
# Please check atom types

@<TRIPOS>MOLECULE
FIDSIX
    28    28     1
SMALL
USER_CHARGES
****
Generated from CSD

@<TRIPOS>ATOM
      1 O1        -1.8165    0.9631   14.8509 O.2       1 RES1   -1.0000
      2 N1        -1.7329   -0.3180   14.9827 N.pl3     1 RES1    1.0000
      3 C1        -1.2601   -0.9322   16.0279 C.2       1 RES1    0.0000
      4 C2        -0.7500   -0.2461   17.2280 C.ar      1 RES1    0.0000
      5 C3        -0.8339   -0.0142   19.6326 C.ar      1 RES1    0.0000
      6 C4         0.6900    1.3190   18.3652 C.ar      1 RES1    0.0000
      7 C5         0.2743    0.7160   17.1789 C.ar      1 RES1    0.0000
      8 C6        -1.2943   -0.6360   18.4740 C.ar      1 RES1    0.0000
      9 C7         0.9660    1.0770   15.8931 C.3       1 RES1    0.0000
     10 C8        -2.2796   -1.0907   13.8547 C.3       1 RES1    0.0000
     11 C9         0.1440    0.9712   19.5958 C.ar      1 RES1    0.0000
     12 C10       -2.3737   -1.6821   18.5629 C.3       1 RES1    0.0000
     13 C11        0.5995    1.6643   20.8572 C.3       1 RES1    0.0000
     14 H1        -1.2446   -1.8618   16.0157 H         1 RES1    0.0000
     15 H2        -1.1913   -0.2653   20.4541 H         1 RES1    0.0000
     16 H3         1.3492    1.9732   18.3314 H         1 RES1    0.0000
     17 H4         1.2500    0.2760   15.4471 H         1 RES1    0.0000
     18 H5         1.7318    1.6254   16.0831 H         1 RES1    0.0000
     19 H6         0.3582    1.5600   15.3275 H         1 RES1    0.0000
     20 H7        -3.2214   -0.9175   13.7750 H         1 RES1    0.0000
     21 H8        -2.1374   -2.0274   14.0110 H         1 RES1    0.0000
     22 H9        -1.8348   -0.8309   13.0440 H         1 RES1    0.0000
     23 H10       -3.1204   -1.4162   18.0218 H         1 RES1    0.0000
     24 H11       -2.6563   -1.7747   19.4748 H         1 RES1    0.0000
     25 H12       -2.0336   -2.5216   18.2456 H         1 RES1    0.0000
     26 H13       -0.1465    1.7636   21.4533 H         1 RES1    0.0000
     27 H14        0.9510    2.5302   20.6380 H         1 RES1    0.0000
     28 H15        1.2820    1.1403   21.2832 H         1 RES1    0.0000
@<TRIPOS>BOND
     1    1    2 1
     2    2    3 2
     3    3    4 1
     4    4    7 ar
     5    5    8 ar
     6    6    7 ar
     7    7    9 1
     8    8    4 ar
     9    9   17 1
    10   10    2 1
    11   11    5 ar
    12   12    8 1
    13   13   11 1
    14   14    3 1
    15   15    5 1
    16   16    6 1
    17   18    9 1
    18   19    9 1
    19   20   10 1
    20   21   10 1
    21   22   10 1
    22   23   12 1
    23   24   12 1
    24   25   12 1
    25   26   13 1
    26   27   13 1
    27   28   13 1
    28    6   11 ar
@<TRIPOS>SUBSTRUCTURE
     1 RES1 1

@<TRIPOS>CRYSIN
  25.6557    5.0634   15.7014  90.0000 102.5540  90.0000  15 1

