# MOL2 file generated by ConQuest
# Please check atom types

@<TRIPOS>MOLECULE
FIDZID
    48    50     1
SMALL
NO_CHARGES
****
Generated from CSD

@<TRIPOS>ATOM
      1 C1         6.2187    0.7620    7.9291 C.3       1 RES1    0.0000
      2 H1         7.0835    0.4487    8.2684 H         1 RES1    0.0000
      3 H2         5.4960    0.3369    8.4352 H         1 RES1    0.0000
      4 H3         6.1611    1.7357    8.0320 H         1 RES1    0.0000
      5 C2         6.0905    0.4027    6.4742 C.3       1 RES1    0.0000
      6 H4         6.1420   -0.5796    6.3560 H         1 RES1    0.0000
      7 H5         5.2227    0.7185    6.1174 H         1 RES1    0.0000
      8 C3         7.0912    1.1089    4.4549 C.2       1 RES1    0.0000
      9 C4         8.3351    1.7306    3.8139 C.3       1 RES1    0.0000
     10 C5         9.2985    0.6171    3.3783 C.3       1 RES1    0.0000
     11 H6        10.1946    1.0091    3.2223 H         1 RES1    0.0000
     12 H7         9.3814   -0.0431    4.1121 H         1 RES1    0.0000
     13 C6         8.8434   -0.1019    2.1125 C.3       1 RES1    0.0000
     14 H8         9.5355   -0.7553    1.8386 H         1 RES1    0.0000
     15 H9         8.0083   -0.6004    2.2998 H         1 RES1    0.0000
     16 C7         8.6003    0.8852    0.9761 C.3       1 RES1    0.0000
     17 H10        8.3142    0.3928    0.1657 H         1 RES1    0.0000
     18 H11        9.4424    1.3620    0.7652 H         1 RES1    0.0000
     19 C8         7.5243    1.8968    1.3670 C.3       1 RES1    0.0000
     20 H12        7.4043    2.5548    0.6375 H         1 RES1    0.0000
     21 H13        6.6630    1.4307    1.5072 H         1 RES1    0.0000
     22 C9         7.9273    2.6094    2.6320 C.3       1 RES1    0.0000
     23 C10        8.5107    3.9593    2.5621 C.3       1 RES1    0.0000
     24 H14        8.6090    4.3448    1.6444 H         1 RES1    0.0000
     25 C11        9.5214    4.4193    3.5777 C.3       1 RES1    0.0000
     26 H15       10.2754    4.8717    3.1220 H         1 RES1    0.0000
     27 H16        9.1031    5.0649    4.2018 H         1 RES1    0.0000
     28 C12       11.0344    3.3498    5.2531 C.2       1 RES1    0.0000
     29 C13       13.0770    4.6539    5.6534 C.3       1 RES1    0.0000
     30 C14       14.0085    3.4587    5.6427 C.3       1 RES1    0.0000
     31 H17       13.5776    2.7049    6.0963 H         1 RES1    0.0000
     32 H18       14.8400    3.6885    6.1090 H         1 RES1    0.0000
     33 H19       14.2109    3.2111    4.7168 H         1 RES1    0.0000
     34 C15       12.7094    5.0839    7.0625 C.3       1 RES1    0.0000
     35 H20       12.0247    5.7834    7.0220 H         1 RES1    0.0000
     36 H21       13.5058    5.4305    7.5159 H         1 RES1    0.0000
     37 H22       12.3599    4.3144    7.5581 H         1 RES1    0.0000
     38 C16       13.6512    5.8123    4.8586 C.3       1 RES1    0.0000
     39 H23       13.8099    5.5279    3.9347 H         1 RES1    0.0000
     40 H24       14.4974    6.0980    5.2625 H         1 RES1    0.0000
     41 H25       13.0173    6.5594    4.8657 H         1 RES1    0.0000
     42 N1        10.0110    3.2588    4.3165 N.am      1 RES1    0.0000
     43 O1         7.1929    1.0559    5.7777 O.3       1 RES1    0.0000
     44 O2         6.1651    0.6839    3.8157 O.2       1 RES1    0.0000
     45 O3         8.9166    2.5374    4.8565 O.3       1 RES1    0.0000
     46 O4         7.1430    3.7519    3.0198 O.3       1 RES1    0.0000
     47 O5        11.1702    2.6009    6.1867 O.2       1 RES1    0.0000
     48 O6        11.8388    4.3590    4.8926 O.3       1 RES1    0.0000
@<TRIPOS>BOND
     1    1    2 1
     2    3    1 1
     3    4    1 1
     4    5    1 1
     5    6    5 1
     6    7    5 1
     7    8    9 1
     8    9   10 1
     9   10   11 1
    10   12   10 1
    11   13   10 1
    12   14   13 1
    13   15   13 1
    14   16   13 1
    15   17   16 1
    16   18   16 1
    17   19   16 1
    18   20   19 1
    19   21   19 1
    20   22    9 1
    21   23   22 1
    22   24   23 1
    23   25   23 1
    24   26   25 1
    25   27   25 1
    26   28   42 1
    27   29   30 1
    28   30   31 1
    29   32   30 1
    30   33   30 1
    31   34   29 1
    32   35   34 1
    33   36   34 1
    34   37   34 1
    35   38   29 1
    36   39   38 1
    37   40   38 1
    38   41   38 1
    39   42   25 1
    40   43    5 1
    41   44    8 2
    42   45    9 1
    43   46   22 1
    44   47   28 2
    45   48   28 1
    46    8   43 1
    47   19   22 1
    48   23   46 1
    49   29   48 1
    50   42   45 1
@<TRIPOS>SUBSTRUCTURE
     1 RES1 1

@<TRIPOS>CRYSIN
   9.8524   15.9675   10.5673  90.0000  92.8130  90.0000  14 1

