# MOL2 file generated by ConQuest
# Please check atom types

@<TRIPOS>MOLECULE
FIFCIH
    54    55     1
SMALL
NO_CHARGES
****
Generated from CSD

@<TRIPOS>ATOM
      1 N1         4.7701    3.4877   23.9897 N.3       1 RES1    0.0000
      2 O1         5.0051    2.6455   21.4550 O.3       1 RES1    0.0000
      3 H1         4.9399    3.1366   22.4233 H         1 RES1    0.0000
      4 O2         3.8790   -0.4892   22.9010 O.3       1 RES1    0.0000
      5 O3         2.6560    0.5237   24.5223 O.3       1 RES1    0.0000
      6 O4         3.6680    4.4094   24.2460 O.3       1 RES1    0.0000
      7 H2         3.3860    4.5370   23.3501 H         1 RES1    0.0000
      8 C1         4.9965    1.2700   21.8301 C.3       1 RES1    0.0000
      9 H3         5.7437    1.0973   22.4233 H         1 RES1    0.0000
     10 H4         5.1145    0.7242   21.0376 H         1 RES1    0.0000
     11 C2         3.7179    0.8777   22.5143 C.3       1 RES1    0.0000
     12 H5         2.9802    0.9400   21.8690 H         1 RES1    0.0000
     13 C3         2.9553   -0.7539   23.9455 C.3       1 RES1    0.0000
     14 C4         3.6267   -1.6249   24.9658 C.3       1 RES1    0.0000
     15 H6         3.0090   -1.8206   25.6755 H         1 RES1    0.0000
     16 H7         4.3922   -1.1693   25.3248 H         1 RES1    0.0000
     17 H8         3.9078   -2.4431   24.5496 H         1 RES1    0.0000
     18 C5         1.6968   -1.3467   23.4280 C.3       1 RES1    0.0000
     19 H9         1.0964   -1.5136   24.1599 H         1 RES1    0.0000
     20 H10        1.8935   -2.1716   22.9776 H         1 RES1    0.0000
     21 H11        1.2853   -0.7376   22.8087 H         1 RES1    0.0000
     22 C6         3.3054    1.5664   23.7991 C.3       1 RES1    0.0000
     23 H12        2.6359    2.2474   23.5796 H         1 RES1    0.0000
     24 C7         4.3999    2.2244   24.6665 C.3       1 RES1    0.0000
     25 H13        5.1854    1.6383   24.6579 H         1 RES1    0.0000
     26 C8         3.9509    2.3836   26.1272 C.3       1 RES1    0.0000
     27 H14        4.2800    3.2306   26.4637 H         1 RES1    0.0000
     28 H15        2.9802    2.4133   26.1519 H         1 RES1    0.0000
     29 C9         4.4190    1.2988   27.0323 C.2       1 RES1    0.0000
     30 H16        5.3341    1.1242   27.0353 H         1 RES1    0.0000
     31 C10        3.6881    0.5726   27.8178 C.2       1 RES1    0.0000
     32 H17        2.7673    0.7069   27.8538 H         1 RES1    0.0000
     33 H18        4.0833   -0.0825   28.3431 H         1 RES1    0.0000
     34 C11        5.9701    4.2253   24.5236 C.3       1 RES1    0.0000
     35 H19        5.7188    4.6646   25.3637 H         1 RES1    0.0000
     36 C12        6.3403    5.3044   23.4925 C.3       1 RES1    0.0000
     37 H20        6.6501    4.8718   22.6832 H         1 RES1    0.0000
     38 H21        5.5442    5.8128   23.2721 H         1 RES1    0.0000
     39 C13        7.3945    6.2406   23.9689 C.2       1 RES1    0.0000
     40 H22        8.2491    5.9854   24.4240 H         1 RES1    0.0000
     41 C14        7.3321    7.5096   23.9390 C.2       1 RES1    0.0000
     42 H23        6.5763    7.9287   23.5926 H         1 RES1    0.0000
     43 H24        8.0419    8.0170   24.2595 H         1 RES1    0.0000
     44 C15        7.1221    3.2670   24.8012 C.ar      1 RES1    0.0000
     45 C16        7.8472    2.6560   23.8009 C.ar      1 RES1    0.0000
     46 H25        7.6343    2.8268   22.9127 H         1 RES1    0.0000
     47 C17        8.8822    1.7975   24.0958 C.ar      1 RES1    0.0000
     48 H26        9.3628    1.3976   23.4064 H         1 RES1    0.0000
     49 C18        9.2026    1.5328   25.3936 C.ar      1 RES1    0.0000
     50 H27        9.8903    0.9371   25.5889 H         1 RES1    0.0000
     51 C19        8.5273    2.1333   26.4026 C.ar      1 RES1    0.0000
     52 H28        8.7594    1.9625   27.2865 H         1 RES1    0.0000
     53 C20        7.4818    3.0090   26.1120 C.ar      1 RES1    0.0000
     54 H29        7.0223    3.4243   26.8058 H         1 RES1    0.0000
@<TRIPOS>BOND
     1    1    6 1
     2    2    3 1
     3    4   11 1
     4    5   13 1
     5    6    7 1
     6    8    2 1
     7    9    8 1
     8   10    8 1
     9   11    8 1
    10   12   11 1
    11   13    4 1
    12   14   13 1
    13   15   14 1
    14   16   14 1
    15   17   14 1
    16   18   13 1
    17   19   18 1
    18   20   18 1
    19   21   18 1
    20   22    5 1
    21   23   22 1
    22   24    1 1
    23   25   24 1
    24   26   24 1
    25   27   26 1
    26   28   26 1
    27   29   26 1
    28   30   29 1
    29   31   29 2
    30   32   31 1
    31   33   31 1
    32   34    1 1
    33   35   34 1
    34   36   34 1
    35   37   36 1
    36   38   36 1
    37   39   36 1
    38   40   39 1
    39   41   39 2
    40   42   41 1
    41   43   41 1
    42   44   34 1
    43   45   44 ar
    44   46   45 1
    45   47   45 ar
    46   48   47 1
    47   49   47 ar
    48   50   49 1
    49   51   49 ar
    50   52   51 1
    51   53   44 ar
    52   54   53 1
    53   11   22 1
    54   22   24 1
    55   51   53 ar
@<TRIPOS>SUBSTRUCTURE
     1 RES1 1

@<TRIPOS>CRYSIN
   9.5920    9.5920   43.3050  90.0000  90.0000  90.0000  92 1

