# MOL2 file generated by ConQuest
# Please check atom types

@<TRIPOS>MOLECULE
FIFDAA
    46    47     1
SMALL
NO_CHARGES
****
Generated from CSD

@<TRIPOS>ATOM
      1 N1        -9.7374    0.3389  -17.1652 N.3       1 RES1    0.0000
      2 O1        -9.4021    3.6857  -15.6599 O.3       1 RES1    0.0000
      3 O2       -11.5725    4.0704  -15.8642 O.3       1 RES1    0.0000
      4 O3       -12.3544    0.9151  -17.4697 O.3       1 RES1    0.0000
      5 H1       -11.5179    0.6528  -17.5027 H         1 RES1    0.0000
      6 O4        -8.9483    0.5805  -18.3639 O.3       1 RES1    0.0000
      7 H2        -9.5329    0.9092  -18.8476 H         1 RES1    0.0000
      8 C1       -12.3177    1.9024  -16.4483 C.3       1 RES1    0.0000
      9 H3       -13.2606    2.3081  -16.3547 H         1 RES1    0.0000
     10 H4       -12.0373    1.4338  -15.6129 H         1 RES1    0.0000
     11 C2       -11.3390    3.0075  -16.7842 C.3       1 RES1    0.0000
     12 H5       -11.5525    3.3339  -17.6365 H         1 RES1    0.0000
     13 C3        -9.8052    2.7382  -16.6494 C.3       1 RES1    0.0000
     14 H6        -9.3482    2.8676  -17.5002 H         1 RES1    0.0000
     15 C4       -10.3361    4.7339  -15.6601 C.3       1 RES1    0.0000
     16 C5       -10.0811    5.7282  -16.7572 C.3       1 RES1    0.0000
     17 H7       -10.7435    6.4218  -16.7206 H         1 RES1    0.0000
     18 H8       -10.1272    5.2841  -17.6062 H         1 RES1    0.0000
     19 H9        -9.2086    6.1129  -16.6449 H         1 RES1    0.0000
     20 C6       -10.3442    5.3622  -14.2974 C.3       1 RES1    0.0000
     21 H10      -10.9790    6.0838  -14.2807 H         1 RES1    0.0000
     22 H11       -9.4694    5.7014  -14.0966 H         1 RES1    0.0000
     23 H12      -10.5912    4.7048  -13.6424 H         1 RES1    0.0000
     24 C7        -9.3251    1.3755  -16.1900 C.3       1 RES1    0.0000
     25 H13       -9.8560    1.0258  -15.3379 H         1 RES1    0.0000
     26 C8        -7.8202    1.4210  -15.9346 C.3       1 RES1    0.0000
     27 H14       -7.5190    0.5584  -15.6407 H         1 RES1    0.0000
     28 H15       -7.6298    2.0738  -15.2572 H         1 RES1    0.0000
     29 H16       -7.3643    1.6600  -16.7458 H         1 RES1    0.0000
     30 C9        -9.3944   -1.0538  -16.7559 C.3       1 RES1    0.0000
     31 H17       -8.4134   -1.1774  -16.6777 H         1 RES1    0.0000
     32 C10       -9.9333   -2.0167  -17.8005 C.3       1 RES1    0.0000
     33 H18       -9.5640   -1.7963  -18.6583 H         1 RES1    0.0000
     34 H19      -10.8901   -1.9479  -17.8358 H         1 RES1    0.0000
     35 H20       -9.6852   -2.9143  -17.5658 H         1 RES1    0.0000
     36 C11       -9.9668   -1.3557  -15.3780 C.ar      1 RES1    0.0000
     37 C12      -11.3310   -1.3720  -15.1363 C.ar      1 RES1    0.0000
     38 H21      -11.9219   -1.1832  -15.8299 H         1 RES1    0.0000
     39 C13      -11.8284   -1.6670  -13.8735 C.ar      1 RES1    0.0000
     40 H22      -12.7459   -1.6611  -13.7156 H         1 RES1    0.0000
     41 C14      -10.9455   -1.9665  -12.8529 C.ar      1 RES1    0.0000
     42 H23      -11.2686   -2.1647  -12.0049 H         1 RES1    0.0000
     43 C15       -9.5998   -1.9759  -13.0845 C.ar      1 RES1    0.0000
     44 H24       -9.0147   -2.1880  -12.3935 H         1 RES1    0.0000
     45 C16       -9.0989   -1.6704  -14.3423 C.ar      1 RES1    0.0000
     46 H25       -8.1814   -1.6763  -14.4902 H         1 RES1    0.0000
@<TRIPOS>BOND
     1    1    6 1
     2    2   13 1
     3    3   11 1
     4    4    5 1
     5    6    7 1
     6    8    4 1
     7    9    8 1
     8   10    8 1
     9   11    8 1
    10   12   11 1
    11   13   11 1
    12   14   13 1
    13   15    2 1
    14   16   15 1
    15   17   16 1
    16   18   16 1
    17   19   16 1
    18   20   15 1
    19   21   20 1
    20   22   20 1
    21   23   20 1
    22   24    1 1
    23   25   24 1
    24   26   24 1
    25   27   26 1
    26   28   26 1
    27   29   26 1
    28   30    1 1
    29   31   30 1
    30   32   30 1
    31   33   32 1
    32   34   32 1
    33   35   32 1
    34   36   30 1
    35   37   36 ar
    36   38   37 1
    37   39   37 ar
    38   40   39 1
    39   41   39 ar
    40   42   41 1
    41   43   41 ar
    42   44   43 1
    43   45   36 ar
    44   46   45 1
    45    3   15 1
    46   13   24 1
    47   43   45 ar
@<TRIPOS>SUBSTRUCTURE
     1 RES1 1

@<TRIPOS>CRYSIN
  11.5410   11.6570   25.2310  90.0000  90.0000  90.0000  20 1

