# MOL2 file generated by ConQuest
# Please check atom types

@<TRIPOS>MOLECULE
FIFPOZ
    37    40     1
SMALL
NO_CHARGES
****
Generated from CSD

@<TRIPOS>ATOM
      1 O1         4.7205    2.7340    1.8587 O.3       1 RES1    0.0000
      2 O2         4.6670    0.5682    3.7087 O.3       1 RES1    0.0000
      3 O3         1.9844   -0.2820    2.9270 O.3       1 RES1    0.0000
      4 O4        -2.3849   -2.2937    7.2567 O.3       1 RES1    0.0000
      5 O5         4.7341    2.3765   -0.3518 O.2       1 RES1    0.0000
      6 O6         9.3508    7.6620    1.0770 O.2       1 RES1    0.0000
      7 O7        10.3541    6.4083   -0.3214 O.2       1 RES1    0.0000
      8 O8         4.3504   -0.2495    7.1524 O.2       1 RES1    0.0000
      9 O9         1.4183    3.0002    5.8757 O.2       1 RES1    0.0000
     10 N1         9.4190    6.6976    0.3865 N.pl3     1 RES1    0.0000
     11 N2         2.8011    1.1741    6.2101 N.am      1 RES1    0.0000
     12 C1         3.5674    1.8702    2.0063 C.3       1 RES1    0.0000
     13 C2         3.5747    1.4676    3.4828 C.3       1 RES1    0.0000
     14 C3         2.2497    0.7894    3.8129 C.3       1 RES1    0.0000
     15 C4         2.3220    0.1876    5.2503 C.3       1 RES1    0.0000
     16 C5         1.0221   -0.4371    5.7107 C.ar      1 RES1    0.0000
     17 C6        -0.2065    0.2264    5.6803 C.ar      1 RES1    0.0000
     18 C7        -1.3701   -0.3376    6.2014 C.ar      1 RES1    0.0000
     19 C8        -1.3030   -1.6259    6.7138 C.ar      1 RES1    0.0000
     20 C9        -0.0964   -2.3283    6.7182 C.ar      1 RES1    0.0000
     21 C10        1.0410   -1.7318    6.2274 C.ar      1 RES1    0.0000
     22 C11       -3.6303   -1.5599    7.3609 C.3       1 RES1    0.0000
     23 C12        5.1859    2.9153    0.6384 C.2       1 RES1    0.0000
     24 C13        6.3150    3.8902    0.6123 C.ar      1 RES1    0.0000
     25 C14        7.2815    3.7466   -0.4039 C.ar      1 RES1    0.0000
     26 C15        8.3235    4.6545   -0.4864 C.ar      1 RES1    0.0000
     27 C16        8.3130    5.6818    0.4299 C.ar      1 RES1    0.0000
     28 C17        7.3591    5.8967    1.4157 C.ar      1 RES1    0.0000
     29 C18        6.3464    4.9260    1.5069 C.ar      1 RES1    0.0000
     30 C19        3.8148    0.8250    7.1177 C.2       1 RES1    0.0000
     31 C20        2.3167    2.4583    6.4706 C.2       1 RES1    0.0000
     32 C21        3.1522    2.9918    7.5954 C.ar      1 RES1    0.0000
     33 C22        3.0610    4.2351    8.2034 C.ar      1 RES1    0.0000
     34 C23        4.0360    4.4238    9.2717 C.ar      1 RES1    0.0000
     35 C24        4.9270    3.4279    9.6104 C.ar      1 RES1    0.0000
     36 C25        4.9585    2.1700    8.9981 C.ar      1 RES1    0.0000
     37 C26        4.0538    2.0117    7.9645 C.ar      1 RES1    0.0000
@<TRIPOS>BOND
     1    1   12 1
     2    2   13 1
     3    3   14 1
     4    4   19 1
     5    5   23 2
     6    6   10 2
     7    7   10 2
     8    8   30 2
     9    9   31 2
    10   10   27 1
    11   11   15 1
    12   12   13 1
    13   13   14 1
    14   14   15 1
    15   15   16 1
    16   16   17 ar
    17   17   18 ar
    18   18   19 ar
    19   19   20 ar
    20   20   21 ar
    21   21   16 ar
    22   22    4 1
    23   23    1 1
    24   24   23 1
    25   25   24 ar
    26   26   25 ar
    27   27   26 ar
    28   28   27 ar
    29   29   24 ar
    30   30   11 1
    31   31   11 1
    32   32   31 1
    33   33   32 ar
    34   34   33 ar
    35   35   34 ar
    36   36   35 ar
    37   37   30 1
    38   28   29 ar
    39   32   37 ar
    40   36   37 ar
@<TRIPOS>SUBSTRUCTURE
     1 RES1 1

@<TRIPOS>CRYSIN
  10.4830   10.4830   43.4270  90.0000  90.0000  90.0000  96 1

