# MOL2 file generated by ConQuest
# Please check atom types

@<TRIPOS>MOLECULE
FIFRAN
     9     9     1
SMALL
NO_CHARGES
****
Generated from CSD

@<TRIPOS>ATOM
      1 O1        10.9754    1.5970    6.2637 O.2       1 RES1    0.0000
      2 O2        12.5668    1.5970    4.8373 O.2       1 RES1    0.0000
      3 N1        10.8940    1.5970    2.8350 N.ar      1 RES1    0.0000
      4 N2        11.3962    1.5970    5.1283 N.pl3     1 RES1    0.0000
      5 C1        10.3804    1.5970    4.0357 C.ar      1 RES1    0.0000
      6 C2         9.0642    1.5970    4.3688 C.ar      1 RES1    0.0000
      7 C3         8.1860    1.5970    3.3136 C.ar      1 RES1    0.0000
      8 C4         8.6480    1.5970    2.0474 C.ar      1 RES1    0.0000
      9 C5         9.9952    1.5970    1.8443 C.ar      1 RES1    0.0000
@<TRIPOS>BOND
     1    1    4 2
     2    2    4 2
     3    3    5 ar
     4    4    5 1
     5    5    6 ar
     6    6    7 ar
     7    7    8 ar
     8    8    9 ar
     9    9    3 ar
@<TRIPOS>SUBSTRUCTURE
     1 RES1 1

@<TRIPOS>CRYSIN
  11.4650    6.3880    7.7820  90.0000  90.0000  90.0000  62 1

