# MOL2 file generated by ConQuest
# Please check atom types

@<TRIPOS>MOLECULE
FIFTAP
    56    58     1
SMALL
NO_CHARGES
****
Generated from CSD

@<TRIPOS>ATOM
      1 C1        11.3409    3.7503    9.9896 C.2       1 RES1    0.0000
      2 C2        10.6815    4.8935   10.1855 C.2       1 RES1    0.0000
      3 C3         9.1839    4.8558   10.3814 C.3       1 RES1    0.0000
      4 C4         8.7224    3.5834   11.1324 C.3       1 RES1    0.0000
      5 C5         9.4097    2.3475   10.5867 C.2       1 RES1    0.0000
      6 C6        10.6640    2.4457   10.0126 C.2       1 RES1    0.0000
      7 C7        11.3606    6.2303   10.1895 C.3       1 RES1    0.0000
      8 C8         8.4078    4.9866    9.0697 C.2       1 RES1    0.0000
      9 O1         7.2411    4.7164    8.9494 O.2       1 RES1    0.0000
     10 O2         9.1465    5.4874    8.0903 O.3       1 RES1    0.0000
     11 C9         8.4504    5.7613    6.8462 C.3       1 RES1    0.0000
     12 C10        8.8257    3.7689   12.6332 C.2       1 RES1    0.0000
     13 C11        7.8651    4.4769   13.3951 C.2       1 RES1    0.0000
     14 N1         8.1564    4.4752   14.6784 N.2       1 RES1    0.0000
     15 O3         9.3592    3.7476   14.7973 O.3       1 RES1    0.0000
     16 C12        9.7265    3.3341   13.5586 C.2       1 RES1    0.0000
     17 C13        6.6309    5.1721   12.9169 C.3       1 RES1    0.0000
     18 C14       10.9721    2.5244   13.5167 C.3       1 RES1    0.0000
     19 C15        8.7590    1.0622   10.7474 C.2       1 RES1    0.0000
     20 O4         9.1775   -0.0165   10.3395 O.2       1 RES1    0.0000
     21 O5         7.5995    1.1624   11.4431 O.3       1 RES1    0.0000
     22 C16        6.8828   -0.0650   11.6890 C.3       1 RES1    0.0000
     23 N2        11.3452    1.3799    9.5222 N.3       1 RES1    0.0000
     24 C17       12.5355    1.4572    8.6982 C.3       1 RES1    0.0000
     25 C18       12.3059    1.9764    7.2852 C.ar      1 RES1    0.0000
     26 C19       13.4201    2.2209    6.4747 C.ar      1 RES1    0.0000
     27 C20       13.2501    2.6596    5.1630 C.ar      1 RES1    0.0000
     28 C21       11.9849    2.8666    4.6537 C.ar      1 RES1    0.0000
     29 C22       10.8796    2.6090    5.4426 C.ar      1 RES1    0.0000
     30 C23       11.0416    2.1682    6.7556 C.ar      1 RES1    0.0000
     31 H1        12.2859    3.7794    9.8248 H         1 RES1    0.0000
     32 H2         8.9853    5.6237   10.9231 H         1 RES1    0.0000
     33 H3         7.7880    3.4371   10.9676 H         1 RES1    0.0000
     34 H4        12.3042    6.1710   10.0234 H         1 RES1    0.0000
     35 H5        11.2120    6.6216   11.0541 H         1 RES1    0.0000
     36 H6        10.9511    6.7777    9.5155 H         1 RES1    0.0000
     37 H7         9.1214    6.1105    6.2558 H         1 RES1    0.0000
     38 H8         7.7608    6.4169    6.9718 H         1 RES1    0.0000
     39 H9         8.0695    4.9674    6.4625 H         1 RES1    0.0000
     40 H10        6.0920    5.4955   13.6423 H         1 RES1    0.0000
     41 H11        6.1244    4.5421   12.3982 H         1 RES1    0.0000
     42 H12        6.8921    5.9090   12.3590 H         1 RES1    0.0000
     43 H13       11.2608    2.2573   14.3894 H         1 RES1    0.0000
     44 H14       11.6916    2.9146   13.9301 H         1 RES1    0.0000
     45 H15       11.6996    2.9053   13.0209 H         1 RES1    0.0000
     46 H16        7.3021   -0.5402   12.3496 H         1 RES1    0.0000
     47 H17        7.3799   -0.7349   11.4647 H         1 RES1    0.0000
     48 H18        6.7324   -0.4715   10.8825 H         1 RES1    0.0000
     49 H19       10.8746    0.5981    9.5627 H         1 RES1    0.0000
     50 H20       13.1608    2.0425    9.1318 H         1 RES1    0.0000
     51 H21       12.9124    0.5770    8.6347 H         1 RES1    0.0000
     52 H22       14.3045    2.0852    6.8245 H         1 RES1    0.0000
     53 H23       14.0168    2.8227    4.6078 H         1 RES1    0.0000
     54 H24       11.8708    3.1845    3.7554 H         1 RES1    0.0000
     55 H25        9.9972    2.7356    5.0846 H         1 RES1    0.0000
     56 H26       10.2677    1.9957    7.2973 H         1 RES1    0.0000
@<TRIPOS>BOND
     1    1    2 2
     2    2    3 1
     3    3    4 1
     4    4    5 1
     5    5    6 2
     6    6    1 1
     7    7    2 1
     8    8    3 1
     9    9    8 2
    10   10    8 1
    11   11   10 1
    12   12    4 1
    13   13   12 1
    14   14   13 2
    15   15   14 1
    16   16   12 2
    17   17   13 1
    18   18   16 1
    19   19    5 1
    20   20   19 2
    21   21   19 1
    22   22   21 1
    23   23    6 1
    24   24   23 1
    25   25   24 1
    26   26   25 ar
    27   27   26 ar
    28   28   27 ar
    29   29   28 ar
    30   30   25 ar
    31   31    1 1
    32   32    3 1
    33   33    4 1
    34   34    7 1
    35   35    7 1
    36   36    7 1
    37   37   11 1
    38   38   11 1
    39   39   11 1
    40   40   17 1
    41   41   17 1
    42   42   17 1
    43   43   18 1
    44   44   18 1
    45   45   18 1
    46   46   22 1
    47   47   22 1
    48   48   22 1
    49   49   23 1
    50   50   24 1
    51   51   24 1
    52   52   26 1
    53   53   27 1
    54   54   28 1
    55   55   29 1
    56   56   30 1
    57   15   16 1
    58   29   30 ar
@<TRIPOS>SUBSTRUCTURE
     1 RES1 1

@<TRIPOS>CRYSIN
   7.0750   11.3820   13.9800  84.0600  75.2900  75.8500   2 1

