# MOL2 file generated by ConQuest
# Please check atom types

@<TRIPOS>MOLECULE
FIGDOR
    38    41     1
SMALL
NO_CHARGES
****
Generated from CSD

@<TRIPOS>ATOM
      1 O1        -5.4342   -3.6730    8.5444 O.2       1 RES1    0.0000
      2 C1        -4.3745   -3.6804    7.8742 C.2       1 RES1    0.0000
      3 N1        -3.8619   -4.8385    7.3545 N.am      1 RES1    0.0000
      4 C2        -2.7297   -4.8357    6.5672 C.2       1 RES1    0.0000
      5 H1        -2.3977   -5.6520    6.2131 H         1 RES1    0.0000
      6 C3        -2.0999   -3.6941    6.3000 C.2       1 RES1    0.0000
      7 O2        -0.9485   -3.6584    5.5254 O.3       1 RES1    0.0000
      8 C4        -0.5617   -2.4124    5.0460 C.ar      1 RES1    0.0000
      9 C5         0.2959   -2.3656    3.9430 C.ar      1 RES1    0.0000
     10 H2         0.6168   -3.1646    3.5413 H         1 RES1    0.0000
     11 C6         0.6717   -1.1068    3.4429 C.ar      1 RES1    0.0000
     12 C7         1.5045   -0.8411    2.2098 C.3       1 RES1    0.0000
     13 O3         2.0078    1.3377    1.2693 O.2       1 RES1    0.0000
     14 N2         1.4214    0.6432    2.1841 N.3       1 RES1    0.0000
     15 C8         0.6826    1.2754    3.3074 C.3       1 RES1    0.0000
     16 C9         0.2231    0.0632    4.0512 C.ar      1 RES1    0.0000
     17 C10       -0.6318   -0.0046    5.1383 C.ar      1 RES1    0.0000
     18 H3        -0.9370    0.7953    5.5499 H         1 RES1    0.0000
     19 C11       -1.0423   -1.2250    5.6254 C.ar      1 RES1    0.0000
     20 N3        -2.0124   -1.2964    6.6560 N.pl3     1 RES1    0.0000
     21 C12       -2.6086   -2.5021    6.8813 C.2       1 RES1    0.0000
     22 N4        -3.7045   -2.5031    7.6616 N.2       1 RES1    0.0000
     23 C13        0.8999   -1.3926    0.9278 C.3       1 RES1    0.0000
     24 H4        -0.0339   -1.1040    0.8568 H         1 RES1    0.0000
     25 H5         0.9386   -2.3720    0.9424 H         1 RES1    0.0000
     26 H6         1.4053   -1.0582    0.1587 H         1 RES1    0.0000
     27 C14        2.9392   -1.2699    2.3320 C.3       1 RES1    0.0000
     28 H7         3.3216   -0.9006    3.1541 H         1 RES1    0.0000
     29 H8         3.4458   -0.9391    1.5612 H         1 RES1    0.0000
     30 H9         2.9868   -2.2474    2.3577 H         1 RES1    0.0000
     31 C15       -0.4703    2.1503    2.7657 C.3       1 RES1    0.0000
     32 H10       -1.0778    1.5960    2.2339 H         1 RES1    0.0000
     33 H11       -0.1024    2.8650    2.2054 H         1 RES1    0.0000
     34 H12       -0.9615    2.5443    3.5159 H         1 RES1    0.0000
     35 C16        1.6354    2.1549    4.1457 C.3       1 RES1    0.0000
     36 H13        2.3691    1.6043    4.4900 H         1 RES1    0.0000
     37 H14        1.1419    2.5489    4.8962 H         1 RES1    0.0000
     38 H15        2.0006    2.8695    3.5825 H         1 RES1    0.0000
@<TRIPOS>BOND
     1    1    2 2
     2    2    3 1
     3    3    4 1
     4    4    5 1
     5    6    4 2
     6    7    6 1
     7    8    7 1
     8    9    8 ar
     9   10    9 1
    10   11    9 ar
    11   12   11 1
    12   13   14 1
    13   14   12 1
    14   15   14 1
    15   16   11 ar
    16   17   16 ar
    17   18   17 1
    18   19    8 ar
    19   20   19 1
    20   21    6 1
    21   22    2 1
    22   23   12 1
    23   24   23 1
    24   25   23 1
    25   26   23 1
    26   27   12 1
    27   28   27 1
    28   29   27 1
    29   30   27 1
    30   31   15 1
    31   32   31 1
    32   33   31 1
    33   34   31 1
    34   35   15 1
    35   36   35 1
    36   37   35 1
    37   38   35 1
    38   15   16 1
    39   17   19 ar
    40   20   21 1
    41   21   22 2
@<TRIPOS>SUBSTRUCTURE
     1 RES1 1

@<TRIPOS>CRYSIN
   5.7310    9.1620   31.7390  90.0000  91.2300  90.0000 231 1

