# MOL2 file generated by ConQuest
# Please check atom types

@<TRIPOS>MOLECULE
FIGNIS
    50    52     1
SMALL
NO_CHARGES
****
Generated from CSD

@<TRIPOS>ATOM
      1 N1         4.8088    3.9805    8.3111 N.2       1 RES1    0.0000
      2 C1         4.4146    3.2774    9.2605 C.2       1 RES1    0.0000
      3 C2         3.1092    3.3700   10.0281 C.3       1 RES1    0.0000
      4 N2         2.1502    4.2824    9.4368 N.2       1 RES1    0.0000
      5 C3         2.5773    5.0424    8.5281 C.2       1 RES1    0.0000
      6 C4         3.9516    5.0791    7.8961 C.3       1 RES1    0.0000
      7 O1         5.1377    2.2386    9.7460 O.3       1 RES1    0.0000
      8 C5         6.4081    2.0071    9.1249 C.3       1 RES1    0.0000
      9 O2         1.7802    5.9924    7.9937 O.3       1 RES1    0.0000
     10 C6         0.4505    6.0850    8.5471 C.3       1 RES1    0.0000
     11 C7         3.8689    5.1379    6.3581 C.3       1 RES1    0.0000
     12 C8         5.2447    5.2353    5.7478 C.3       1 RES1    0.0000
     13 C9         3.0835    3.9651    5.7966 C.3       1 RES1    0.0000
     14 C10        3.3590    3.7606   11.5091 C.3       1 RES1    0.0000
     15 C11        3.9985    5.1302   11.6258 C.ar      1 RES1    0.0000
     16 C12        3.2315    6.2828   11.6285 C.ar      1 RES1    0.0000
     17 C13        3.8161    7.5569   11.7153 C.ar      1 RES1    0.0000
     18 C14        5.1612    7.6080   11.8102 C.ar      1 RES1    0.0000
     19 C15        5.9275    6.4747   11.8292 C.ar      1 RES1    0.0000
     20 C16        5.3766    5.2295   11.7424 C.ar      1 RES1    0.0000
     21 O3         5.9480    8.7307   11.9459 O.3       1 RES1    0.0000
     22 O4         7.2542    6.8267   11.9459 O.3       1 RES1    0.0000
     23 C17        7.3004    8.2580   11.8943 C.3       1 RES1    0.0000
     24 C18        2.0725    3.6497   12.3120 C.3       1 RES1    0.0000
     25 N3         1.5363    2.2579   12.3337 N.pl3     1 RES1    0.0000
     26 O5         0.3553    2.1287   12.2686 O.2       1 RES1    0.0000
     27 O6         2.3011    1.3358   12.4178 O.2       1 RES1    0.0000
     28 H1         2.7238    2.4913    9.9874 H         1 RES1    0.0000
     29 H2         4.3575    5.8902    8.2134 H         1 RES1    0.0000
     30 H3         6.8007    1.2211    9.5127 H         1 RES1    0.0000
     31 H4         6.9707    2.7652    9.2984 H         1 RES1    0.0000
     32 H5         6.3194    1.8866    8.1755 H         1 RES1    0.0000
     33 H6        -0.0022    6.8344    8.1538 H         1 RES1    0.0000
     34 H7         0.6022    6.2557    9.4802 H         1 RES1    0.0000
     35 H8        -0.0894    5.2970    8.4494 H         1 RES1    0.0000
     36 H9         3.3905    5.9336    6.1167 H         1 RES1    0.0000
     37 H10        5.6234    6.0763    6.0109 H         1 RES1    0.0000
     38 H11        4.6440    5.2237    4.7957 H         1 RES1    0.0000
     39 H12        5.8352    4.5235    6.0028 H         1 RES1    0.0000
     40 H13        2.2066    3.9110    6.1845 H         1 RES1    0.0000
     41 H14        3.5590    3.1481    5.9675 H         1 RES1    0.0000
     42 H15        3.0081    4.1020    4.8500 H         1 RES1    0.0000
     43 H16        3.9868    3.1404   11.8889 H         1 RES1    0.0000
     44 H17        2.2769    6.2095   11.5661 H         1 RES1    0.0000
     45 H18        3.2835    8.3545   11.7099 H         1 RES1    0.0000
     46 H19        5.9275    4.4435   11.7614 H         1 RES1    0.0000
     47 H20        7.7956    8.5976   12.6430 H         1 RES1    0.0000
     48 H21        7.7179    8.5435   11.0779 H         1 RES1    0.0000
     49 H22        1.4147    4.2274   11.9187 H         1 RES1    0.0000
     50 H23        2.2447    3.9294   13.2126 H         1 RES1    0.0000
@<TRIPOS>BOND
     1    1    2 2
     2    2    3 1
     3    3    4 1
     4    4    5 2
     5    5    6 1
     6    6    1 1
     7    7    2 1
     8    8    7 1
     9    9    5 1
    10   10    9 1
    11   11    6 1
    12   12   11 1
    13   13   11 1
    14   14    3 1
    15   15   14 1
    16   16   15 ar
    17   17   16 ar
    18   18   17 ar
    19   19   18 ar
    20   20   15 ar
    21   21   18 1
    22   22   19 1
    23   23   21 1
    24   24   14 1
    25   25   24 1
    26   26   25 2
    27   27   25 2
    28   28    3 1
    29   29    6 1
    30   30    8 1
    31   31    8 1
    32   32    8 1
    33   33   10 1
    34   34   10 1
    35   35   10 1
    36   36   11 1
    37   37   12 1
    38   38   12 1
    39   39   12 1
    40   40   13 1
    41   41   13 1
    42   42   13 1
    43   43   14 1
    44   44   16 1
    45   45   17 1
    46   46   20 1
    47   47   23 1
    48   48   23 1
    49   49   24 1
    50   50   24 1
    51   19   20 ar
    52   22   23 1
@<TRIPOS>SUBSTRUCTURE
     1 RES1 1

@<TRIPOS>CRYSIN
   7.3260    9.6450   27.1250  90.0000  90.0000  90.0000  19 1

