# MOL2 file generated by ConQuest
# Please check atom types

@<TRIPOS>MOLECULE
FIHLAK
    22    22     1
SMALL
NO_CHARGES
****
Generated from CSD

@<TRIPOS>ATOM
      1 O1         7.7933    6.1459    2.3845 O.2       1 RES1    0.0000
      2 O2         7.7029    8.2936    2.4998 O.2       1 RES1    0.0000
      3 O3         4.3498    8.2745    6.7940 O.2       1 RES1    0.0000
      4 O4         2.6502    6.9926    6.4148 O.2       1 RES1    0.0000
      5 N1         7.2005    7.1885    2.6067 N.pl3     1 RES1    0.0000
      6 N2         3.6959    7.5280    6.0659 N.pl3     1 RES1    0.0000
      7 C1         4.8568    6.8067    2.0455 C.ar      1 RES1    0.0000
      8 C2         5.7890    7.1104    3.0322 C.ar      1 RES1    0.0000
      9 C3         5.5268    7.3502    4.3837 C.ar      1 RES1    0.0000
     10 C4         4.1700    7.2958    4.6917 C.ar      1 RES1    0.0000
     11 C5         3.1864    7.0044    3.7641 C.ar      1 RES1    0.0000
     12 H1         2.2966    6.9804    4.0424 H         1 RES1    0.0000
     13 C6         3.5360    6.7594    2.4520 C.ar      1 RES1    0.0000
     14 H2         2.8968    6.5474    1.7975 H         1 RES1    0.0000
     15 C7         5.2514    6.5432    0.6196 C.3       1 RES1    0.0000
     16 H3         5.8028    5.7487    0.5764 H         1 RES1    0.0000
     17 H4         4.5138    6.4781    0.0834 H         1 RES1    0.0000
     18 H5         5.6834    7.2929    0.2730 H         1 RES1    0.0000
     19 C8         6.6509    7.5673    5.3576 C.3       1 RES1    0.0000
     20 H6         7.5196    7.1073    4.9981 H         1 RES1    0.0000
     21 H7         6.8657    8.4761    5.4228 H         1 RES1    0.0000
     22 H8         6.4625    7.1781    6.2647 H         1 RES1    0.0000
@<TRIPOS>BOND
     1    1    5 2
     2    2    5 2
     3    3    6 2
     4    4    6 2
     5    5    8 1
     6    6   10 1
     7    7    8 ar
     8    8    9 ar
     9    9   10 ar
    10   10   11 ar
    11   11   12 1
    12   13    7 ar
    13   14   13 1
    14   15    7 1
    15   16   15 1
    16   17   15 1
    17   18   15 1
    18   19    9 1
    19   20   19 1
    20   21   19 1
    21   22   19 1
    22   11   13 ar
@<TRIPOS>SUBSTRUCTURE
     1 RES1 1

@<TRIPOS>CRYSIN
   7.5579    8.2416    8.6652  62.8980  70.5650  66.1470   2 1

