# MOL2 file generated by ConQuest
# Please check atom types

@<TRIPOS>MOLECULE
FIHLUE
    38    38     2
SMALL
NO_CHARGES
****
Generated from CSD

@<TRIPOS>ATOM
      1 O1        -0.3820    5.7291   10.7591 O.2       1 RES1    0.0000
      2 O2         1.6846    5.7507   10.1975 O.2       1 RES1    0.0000
      3 O3         0.8815    5.5896    7.5645 O.2       1 RES1    0.0000
      4 O4         2.1366    4.1016    6.6502 O.2       1 RES1    0.0000
      5 N1         0.5940    5.2189   10.2712 N.pl3     1 RES1    0.0000
      6 N2         1.3574    4.4679    7.5171 N.pl3     1 RES1    0.0000
      7 C1        -0.1204    1.5747   10.2498 C.ar      1 RES1    0.0000
      8 C2        -0.0623    2.9139   10.6217 C.ar      1 RES1    0.0000
      9 H1        -0.3666    3.1895   11.4806 H         1 RES1    0.0000
     10 C3         0.4585    3.8516    9.7598 C.ar      1 RES1    0.0000
     11 C4         0.9187    3.4825    8.4998 C.ar      1 RES1    0.0000
     12 C5         0.8504    2.1593    8.1148 C.ar      1 RES1    0.0000
     13 H2         1.1267    1.9555    7.2146 H         1 RES1    0.0000
     14 C6         0.3376    1.2201    8.9863 C.ar      1 RES1    0.0000
     15 H3         0.2877    0.2943    8.7139 H         1 RES1    0.0000
     16 C7        -0.6530    0.5550   11.2095 C.3       1 RES1    0.0000
     17 H4         0.0240    0.0158   11.5487 H         1 RES1    0.0000
     18 H5        -1.2383    0.0000   10.8285 H         1 RES1    0.0000
     19 H6        -1.2528    0.9651   11.9022 H         1 RES1    0.0000
     20 O5         5.6199    0.5143    6.6394 O.2       2 RES2    0.0000
     21 O6         4.2836    1.9596    5.7745 O.2       2 RES2    0.0000
     22 O7         6.1122    3.8501    6.6362 O.2       2 RES2    0.0000
     23 O8         4.9885    5.4497    7.5343 O.2       2 RES2    0.0000
     24 N3         4.8551    1.4514    6.7155 N.pl3     2 RES2    0.0000
     25 N4         5.3042    4.2777    7.4469 N.pl3     2 RES2    0.0000
     26 C8         3.7313    1.5142   10.2588 C.ar      2 RES2    0.0000
     27 C9         4.1145    1.0820    8.9909 C.ar      2 RES2    0.0000
     28 H7         3.9936    0.1661    8.7649 H         2 RES2    0.0000
     29 C10        4.5859    1.9773    8.0665 C.ar      2 RES2    0.0000
     30 C11        4.7042    3.3204    8.3785 C.ar      2 RES2    0.0000
     31 C12        4.3280    3.7729    9.6273 C.ar      2 RES2    0.0000
     32 H8         4.4527    4.7242    9.7928 H         2 RES2    0.0000
     33 C13        3.8337    2.8677   10.5453 C.ar      2 RES2    0.0000
     34 H9         3.5573    3.1959   11.3392 H         2 RES2    0.0000
     35 C14        3.2224    0.5427   11.2842 C.3       2 RES2    0.0000
     36 H10        3.9680   -0.0158   11.6272 H         2 RES2    0.0000
     37 H11        2.6108    0.9651   11.8891 H         2 RES2    0.0000
     38 H12        2.7160   -0.1107   10.8547 H         2 RES2    0.0000
@<TRIPOS>BOND
     1    1    5 2
     2    2    5 2
     3    3    6 2
     4    4    6 2
     5    5   10 1
     6    6   11 1
     7    7    8 ar
     8    8    9 1
     9   10    8 ar
    10   11   10 ar
    11   12   11 ar
    12   13   12 1
    13   14    7 ar
    14   15   14 1
    15   16    7 1
    16   17   16 1
    17   18   16 1
    18   19   16 1
    19   20   24 2
    20   21   24 2
    21   22   25 2
    22   23   25 2
    23   24   29 1
    24   25   30 1
    25   26   27 ar
    26   27   28 1
    27   29   27 ar
    28   30   29 ar
    29   31   30 ar
    30   32   31 1
    31   33   26 ar
    32   34   33 1
    33   35   26 1
    34   36   35 1
    35   37   35 1
    36   38   35 1
    37   12   14 ar
    38   31   33 ar
@<TRIPOS>SUBSTRUCTURE
     1 RES1 1
     2 RES2 20

@<TRIPOS>CRYSIN
   7.7258   15.8211   13.1097  90.0000  92.8300  90.0000  14 1

