# MOL2 file generated by ConQuest
# Please check atom types

@<TRIPOS>MOLECULE
FIHLEO
    34    35     1
SMALL
NO_CHARGES
****
Generated from CSD

@<TRIPOS>ATOM
      1 O1         1.1497    2.2031    2.9509 O.2       1 RES1    0.0000
      2 O2         3.1066    2.3593    2.0351 O.2       1 RES1    0.0000
      3 O3         2.3081   -2.9516    5.1744 O.2       1 RES1    0.0000
      4 O4         0.7843   -3.7923    3.8854 O.2       1 RES1    0.0000
      5 O5        -2.0675    1.7578    9.9783 O.3       1 RES1    0.0000
      6 N1         2.1636    1.7057    2.4744 N.pl3     1 RES1    0.0000
      7 N2         1.6472   -2.9642    4.1423 N.pl3     1 RES1    0.0000
      8 C1         1.7904   -0.5857    3.4079 C.ar      1 RES1    0.0000
      9 C2         2.2544    0.2387    2.3622 C.ar      1 RES1    0.0000
     10 C3         2.7798   -0.2269    1.1723 C.ar      1 RES1    0.0000
     11 H1         3.0317    0.4147    0.5280 H         1 RES1    0.0000
     12 C4         2.8484   -1.5829    0.9348 C.ar      1 RES1    0.0000
     13 H2         3.2038   -1.9025    0.1056 H         1 RES1    0.0000
     14 C5         2.4283   -2.4550    1.9236 C.ar      1 RES1    0.0000
     15 H3         2.4659   -3.3840    1.7972 H         1 RES1    0.0000
     16 C6         1.9434   -1.9481    3.1151 C.ar      1 RES1    0.0000
     17 C7         1.2463   -0.0324    4.6504 C.2       1 RES1    0.0000
     18 H4         1.5952    0.8001    4.8552 H         1 RES1    0.0000
     19 C8         0.3308   -0.5903    5.4455 C.2       1 RES1    0.0000
     20 H5        -0.0262   -1.4631    5.2374 H         1 RES1    0.0000
     21 C9        -0.2373    0.0521    6.6388 C.ar      1 RES1    0.0000
     22 C10       -0.1134    1.4239    6.8741 C.ar      1 RES1    0.0000
     23 H6         0.3822    1.9734    6.2722 H         1 RES1    0.0000
     24 C11       -0.6991    2.0310    7.9747 C.ar      1 RES1    0.0000
     25 H7        -0.6085    2.9955    8.1095 H         1 RES1    0.0000
     26 C12       -1.4374    1.2576    8.8663 C.ar      1 RES1    0.0000
     27 C13       -1.5693   -0.1139    8.6600 C.ar      1 RES1    0.0000
     28 H8        -2.0932   -0.6228    9.2880 H         1 RES1    0.0000
     29 C14       -0.9772   -0.7012    7.5544 C.ar      1 RES1    0.0000
     30 H9        -1.0753   -1.6542    7.4411 H         1 RES1    0.0000
     31 C15       -2.0303    3.1764   10.1660 C.3       1 RES1    0.0000
     32 H10       -1.0842    3.4765   10.3164 H         1 RES1    0.0000
     33 H11       -2.4184    3.6261    9.3978 H         1 RES1    0.0000
     34 H12       -2.5851    3.3332   10.9500 H         1 RES1    0.0000
@<TRIPOS>BOND
     1    1    6 2
     2    2    6 2
     3    3    7 2
     4    4    7 2
     5    5   26 1
     6    6    9 1
     7    7   16 1
     8    8    9 ar
     9    9   10 ar
    10   10   11 1
    11   12   10 ar
    12   13   12 1
    13   14   12 ar
    14   15   14 1
    15   16    8 ar
    16   17    8 1
    17   18   17 1
    18   19   17 2
    19   20   19 1
    20   21   19 1
    21   22   21 ar
    22   23   22 1
    23   24   22 ar
    24   25   24 1
    25   26   24 ar
    26   27   26 ar
    27   28   27 1
    28   29   21 ar
    29   30   29 1
    30   31    5 1
    31   32   31 1
    32   33   31 1
    33   34   31 1
    34   14   16 ar
    35   27   29 ar
@<TRIPOS>SUBSTRUCTURE
     1 RES1 1

@<TRIPOS>CRYSIN
   8.2041   15.4170   10.9410  90.0000 105.1790  90.0000  14 1

