# MOL2 file generated by ConQuest
# Please check atom types

@<TRIPOS>MOLECULE
FIHLOY
    38    38     2
SMALL
NO_CHARGES
****
Generated from CSD

@<TRIPOS>ATOM
      1 O1         3.8902    8.9378    4.5545 O.2       1 RES1    0.0000
      2 O2         4.5149    8.8557    2.5049 O.2       1 RES1    0.0000
      3 O3         5.1001    6.3414    3.8238 O.2       1 RES1    0.0000
      4 O4         4.2647    4.3992    3.4851 O.2       1 RES1    0.0000
      5 N1         3.8114    8.5095    3.4250 N.pl3     1 RES1    0.0000
      6 N2         4.1753    5.6182    3.5141 N.pl3     1 RES1    0.0000
      7 C1         1.4721    8.1516    2.8658 C.ar      1 RES1    0.0000
      8 C2         2.6937    7.5765    3.1576 C.ar      1 RES1    0.0000
      9 C3         2.8786    6.2109    3.1747 C.ar      1 RES1    0.0000
     10 C4         1.8166    5.3601    2.9096 C.ar      1 RES1    0.0000
     11 H1         2.0318    4.3567    3.0596 H         1 RES1    0.0000
     12 C5         0.5768    5.8984    2.6408 C.ar      1 RES1    0.0000
     13 H2        -0.1858    5.2662    2.3170 H         1 RES1    0.0000
     14 C6         0.4265    7.2553    2.6274 C.ar      1 RES1    0.0000
     15 H3        -0.2361    7.5839    2.5175 H         1 RES1    0.0000
     16 C7         1.2502    9.6287    2.8294 C.3       1 RES1    0.0000
     17 H4         1.4167   10.0072    3.7183 H         1 RES1    0.0000
     18 H5         0.3253    9.8136    2.5643 H         1 RES1    0.0000
     19 H6         1.8632   10.0365    2.1818 H         1 RES1    0.0000
     20 O5         0.3314   -1.9099    5.2288 O.2       2 RES2    0.0000
     21 O6         0.9065   -1.7573    3.1725 O.2       2 RES2    0.0000
     22 O7         1.4645    0.7349    4.4884 O.2       2 RES2    0.0000
     23 O8         0.6152    2.6698    4.1713 O.2       2 RES2    0.0000
     24 N3         0.2128   -1.4522    4.1208 N.pl3     2 RES2    0.0000
     25 N4         0.5321    1.4493    4.1995 N.pl3     2 RES2    0.0000
     26 C8        -2.1536   -1.1310    3.6678 C.ar      2 RES2    0.0000
     27 C9        -0.9348   -0.5428    3.8914 C.ar      2 RES2    0.0000
     28 C10       -0.7618    0.8332    3.9144 C.ar      2 RES2    0.0000
     29 C11       -1.8239    1.6811    3.7102 C.ar      2 RES2    0.0000
     30 H7        -1.5591    2.7578    3.6760 H         2 RES2    0.0000
     31 C12       -3.0714    1.1119    3.4695 C.ar      2 RES2    0.0000
     32 H8        -3.8309    1.7749    3.5423 H         2 RES2    0.0000
     33 C13       -3.2239   -0.2655    3.4562 C.ar      2 RES2    0.0000
     34 H9        -4.1089   -0.6014    3.2973 H         2 RES2    0.0000
     35 C14       -2.3337   -2.6214    3.6062 C.3       2 RES2    0.0000
     36 H10       -1.7517   -2.9925    2.9111 H         2 RES2    0.0000
     37 H11       -3.2685   -2.8282    3.3945 H         2 RES2    0.0000
     38 H12       -2.1005   -3.0145    4.4728 H         2 RES2    0.0000
@<TRIPOS>BOND
     1    1    5 2
     2    2    5 2
     3    3    6 2
     4    4    6 2
     5    5    8 1
     6    6    9 1
     7    7    8 ar
     8    8    9 ar
     9    9   10 ar
    10   10   11 1
    11   12   10 ar
    12   13   12 1
    13   14    7 ar
    14   15   14 1
    15   16    7 1
    16   17   16 1
    17   18   16 1
    18   19   16 1
    19   20   24 2
    20   21   24 2
    21   22   25 2
    22   23   25 2
    23   24   27 1
    24   25   28 1
    25   26   27 ar
    26   27   28 ar
    27   28   29 ar
    28   29   30 1
    29   31   29 ar
    30   32   31 1
    31   33   26 ar
    32   34   33 1
    33   35   26 1
    34   36   35 1
    35   37   35 1
    36   38   35 1
    37   12   14 ar
    38   31   33 ar
@<TRIPOS>SUBSTRUCTURE
     1 RES1 1
     2 RES2 20

@<TRIPOS>CRYSIN
   7.6169   14.6690    7.8126  90.0000 108.0940  90.0000   7 1

