# MOL2 file generated by ConQuest
# Please check atom types

@<TRIPOS>MOLECULE
FIHMEP01
    42    42     2
SMALL
NO_CHARGES
****
Generated from CSD

@<TRIPOS>ATOM
      1 C1         1.4694    7.8981    3.2782 C.ar      1 RES1    0.0000
      2 N1         1.1600    9.1896    3.8893 N.pl3     1 RES1    0.0000
      3 O1         0.6991    9.2042    5.0231 O.2       1 RES1    0.0000
      4 O2         1.3556   10.2174    3.2597 O.2       1 RES1    0.0000
      5 C2         1.7893    7.7771    1.9156 C.ar      1 RES1    0.0000
      6 C3         1.8229    8.9040    0.9146 C.3       1 RES1    0.0000
      7 H1         2.0672    8.5508    0.0334 H         1 RES1    0.0000
      8 H2         2.4854    9.5702    1.1943 H         1 RES1    0.0000
      9 H3         0.9388    9.3231    0.8648 H         1 RES1    0.0000
     10 C4         2.0745    6.4932    1.4598 C.ar      1 RES1    0.0000
     11 H4         2.2957    6.3683    0.5438 H         1 RES1    0.0000
     12 C5         2.0460    5.3831    2.3060 C.ar      1 RES1    0.0000
     13 O3         2.3789    4.1993    1.7250 O.3       1 RES1    0.0000
     14 C6         2.2563    3.0081    2.5123 C.3       1 RES1    0.0000
     15 H5         2.5243    2.2332    1.9761 H         1 RES1    0.0000
     16 H6         1.3254    2.9009    2.7989 H         1 RES1    0.0000
     17 H7         2.8354    3.0764    3.2997 H         1 RES1    0.0000
     18 C7         1.6968    5.5306    3.6479 C.ar      1 RES1    0.0000
     19 H8         1.6549    4.7758    4.2237 H         1 RES1    0.0000
     20 C8         1.4127    6.7981    4.1243 C.ar      1 RES1    0.0000
     21 H9         1.1766    6.9169    5.0367 H         1 RES1    0.0000
     22 C9         0.1364    2.9104    8.3352 C.ar      2 RES2    0.0000
     23 N2         0.0054    4.3496    8.1378 N.pl3     2 RES2    0.0000
     24 O4        -0.4517    5.0217    9.0606 O.2       2 RES2    0.0000
     25 O5         0.3465    4.8516    7.0694 O.2       2 RES2    0.0000
     26 C10        0.4146    2.0444    7.2678 C.ar      2 RES2    0.0000
     27 C11        0.6005    2.4417    5.8264 C.3       2 RES2    0.0000
     28 H10        0.7771    1.6425    5.2877 H         2 RES2    0.0000
     29 H11        1.3581    3.0593    5.7529 H         2 RES2    0.0000
     30 H12       -0.2128    2.8812    5.5009 H         2 RES2    0.0000
     31 C12        0.5076    0.6839    7.5722 C.ar      2 RES2    0.0000
     32 H13        0.6979    0.0654    6.8761 H         2 RES2    0.0000
     33 C13        0.3284    0.2119    8.8699 C.ar      2 RES2    0.0000
     34 O6         0.4014   -1.0978    9.2154 O.3       2 RES2    0.0000
     35 C14        0.6833   -2.0424    8.1760 C.3       2 RES2    0.0000
     36 H14        0.7086   -2.9463    8.5539 H         2 RES2    0.0000
     37 H15        1.5507   -1.8336    7.7710 H         2 RES2    0.0000
     38 H16       -0.0166   -1.9943    7.4921 H         2 RES2    0.0000
     39 C15        0.0592    1.1033    9.9139 C.ar      2 RES2    0.0000
     40 H17       -0.0549    0.7841   10.8015 H         2 RES2    0.0000
     41 C16       -0.0388    2.4461    9.6410 C.ar      2 RES2    0.0000
     42 H18       -0.2259    3.0603   10.3416 H         2 RES2    0.0000
@<TRIPOS>BOND
     1    1    2 1
     2    2    3 2
     3    4    2 2
     4    5    1 ar
     5    6    5 1
     6    7    6 1
     7    8    6 1
     8    9    6 1
     9   10    5 ar
    10   11   10 1
    11   12   10 ar
    12   13   12 1
    13   14   13 1
    14   15   14 1
    15   16   14 1
    16   17   14 1
    17   18   12 ar
    18   19   18 1
    19   20    1 ar
    20   21   20 1
    21   22   23 1
    22   23   24 2
    23   25   23 2
    24   26   22 ar
    25   27   26 1
    26   28   27 1
    27   29   27 1
    28   30   27 1
    29   31   26 ar
    30   32   31 1
    31   33   31 ar
    32   34   33 1
    33   35   34 1
    34   36   35 1
    35   37   35 1
    36   38   35 1
    37   39   33 ar
    38   40   39 1
    39   41   22 ar
    40   42   41 1
    41   18   20 ar
    42   39   41 ar
@<TRIPOS>SUBSTRUCTURE
     1 RES1 1
     2 RES2 22

@<TRIPOS>CRYSIN
   7.1120   10.3940   10.8490  95.9700  92.9700  95.4800   2 1

