# MOL2 file generated by ConQuest
# Please check atom types

@<TRIPOS>MOLECULE
FIHMEP
    42    42     2
SMALL
NO_CHARGES
****
Generated from CSD

@<TRIPOS>ATOM
      1 O1         2.8666    0.5049   -3.8215 O.3       1 RES1    0.0000
      2 O2         2.9066   -5.4462   -1.6821 O.2       1 RES1    0.0000
      3 O3         3.6928   -5.6119   -3.6752 O.2       1 RES1    0.0000
      4 N1         3.2503   -4.9391   -2.7561 N.pl3     1 RES1    0.0000
      5 C1         2.9340   -0.8136   -3.4750 C.ar      1 RES1    0.0000
      6 C2         2.7627   -1.2913   -2.1857 C.ar      1 RES1    0.0000
      7 H1         2.5572   -0.7431   -1.5389 H         1 RES1    0.0000
      8 C3         2.8485   -2.6340   -1.8833 C.ar      1 RES1    0.0000
      9 C4         3.1147   -3.4987   -2.9391 C.ar      1 RES1    0.0000
     10 C5         3.2912   -3.0382   -4.2412 C.ar      1 RES1    0.0000
     11 H2         3.4723   -3.6465   -4.8966 H         1 RES1    0.0000
     12 C6         3.1982   -1.6952   -4.5178 C.ar      1 RES1    0.0000
     13 H3         3.3335   -1.4883   -5.4455 H         1 RES1    0.0000
     14 C7         2.5900    1.4471   -2.7841 C.3       1 RES1    0.0000
     15 H4         2.6653    2.3348   -3.2285 H         1 RES1    0.0000
     16 H5         3.3127    1.3416   -2.0770 H         1 RES1    0.0000
     17 H6         1.7574    1.2397   -2.2815 H         1 RES1    0.0000
     18 C8         2.6568   -3.0358   -0.4455 C.3       1 RES1    0.0000
     19 H7         2.4610   -2.2333    0.0969 H         1 RES1    0.0000
     20 H8         3.4011   -3.4920   -0.1184 H         1 RES1    0.0000
     21 H9         1.8267   -3.5549   -0.3013 H         1 RES1    0.0000
     22 O4        -0.0710    5.5558    3.6579 O.3       2 RES2    0.0000
     23 O5         0.9286   -0.4557    2.1168 O.2       2 RES2    0.0000
     24 O6         1.5852    0.5563    0.3616 O.2       2 RES2    0.0000
     25 N2         1.1262    0.5701    1.4948 N.pl3     2 RES2    0.0000
     26 C9         0.2565    4.3722    3.0746 C.ar      2 RES2    0.0000
     27 C10        0.2296    3.2579    3.9216 C.ar      2 RES2    0.0000
     28 H10        0.0062    3.3445    4.8213 H         2 RES2    0.0000
     29 C11        0.5026    1.9772    3.4707 C.ar      2 RES2    0.0000
     30 C12        0.8258    1.8620    2.1093 C.ar      2 RES2    0.0000
     31 C13        0.8762    2.9631    1.2699 C.ar      2 RES2    0.0000
     32 H11        1.1380    2.7197    0.3767 H         2 RES2    0.0000
     33 C14        0.6004    4.2181    1.7477 C.ar      2 RES2    0.0000
     34 H12        0.6395    4.9126    1.1300 H         2 RES2    0.0000
     35 C15        0.0491    6.7490    2.8745 C.3       2 RES2    0.0000
     36 H13       -0.2067    7.4535    3.4438 H         2 RES2    0.0000
     37 H14       -0.5253    6.7330    2.0770 H         2 RES2    0.0000
     38 H15        0.9565    6.8737    2.4967 H         2 RES2    0.0000
     39 C16        0.4665    0.8546    4.4705 C.3       2 RES2    0.0000
     40 H16       -0.2295    0.2574    4.3047 H         2 RES2    0.0000
     41 H17        1.3346    0.3629    4.4769 H         2 RES2    0.0000
     42 H18        0.3248    1.2723    5.4347 H         2 RES2    0.0000
@<TRIPOS>BOND
     1    1    5 1
     2    2    4 2
     3    3    4 2
     4    4    9 1
     5    5    6 ar
     6    6    7 1
     7    8    6 ar
     8    9    8 ar
     9   10    9 ar
    10   11   10 1
    11   12    5 ar
    12   13   12 1
    13   14    1 1
    14   15   14 1
    15   16   14 1
    16   17   14 1
    17   18    8 1
    18   19   18 1
    19   20   18 1
    20   21   18 1
    21   22   26 1
    22   23   25 2
    23   24   25 2
    24   25   30 1
    25   26   27 ar
    26   27   28 1
    27   29   27 ar
    28   30   29 ar
    29   31   30 ar
    30   32   31 1
    31   33   26 ar
    32   34   33 1
    33   35   22 1
    34   36   35 1
    35   37   35 1
    36   38   35 1
    37   39   29 1
    38   40   39 1
    39   41   39 1
    40   42   39 1
    41   10   12 ar
    42   31   33 ar
@<TRIPOS>SUBSTRUCTURE
     1 RES1 1
     2 RES2 22

@<TRIPOS>CRYSIN
   7.1047   10.3834   10.8386  95.8780  92.8960  95.3120   2 1

