# MOL2 file generated by ConQuest
# Please check atom types

@<TRIPOS>MOLECULE
FIHMIT
    24    24     1
SMALL
NO_CHARGES
****
Generated from CSD

@<TRIPOS>ATOM
      1 O1        -0.1730    3.0670    8.6093 O.3       1 RES1    0.0000
      2 O2        -0.5077    0.8224    7.4036 O.3       1 RES1    0.0000
      3 O3        -3.5730    1.7621    3.5875 O.2       1 RES1    0.0000
      4 O4        -4.4635    3.6674    4.0571 O.2       1 RES1    0.0000
      5 O5        -2.6193    5.7127    4.2981 O.2       1 RES1    0.0000
      6 O6        -3.6425    6.1371    6.1624 O.2       1 RES1    0.0000
      7 N1        -3.6411    2.7798    4.2543 N.pl3     1 RES1    0.0000
      8 N2        -2.9727    5.4230    5.4345 N.pl3     1 RES1    0.0000
      9 C1        -2.7070    2.9301    5.3668 C.ar      1 RES1    0.0000
     10 C2        -2.4795    4.1429    5.9767 C.ar      1 RES1    0.0000
     11 C3        -1.6576    4.2339    7.0941 C.ar      1 RES1    0.0000
     12 H1        -1.4935    5.0703    7.4688 H         1 RES1    0.0000
     13 C4        -1.0170    3.1019    7.5579 C.ar      1 RES1    0.0000
     14 C5        -1.2143    1.8651    6.9076 C.ar      1 RES1    0.0000
     15 C6        -2.0787    1.7869    5.8356 C.ar      1 RES1    0.0000
     16 H2        -2.2105    0.9755    5.4303 H         1 RES1    0.0000
     17 C7         0.0338    4.2832    9.3562 C.3       1 RES1    0.0000
     18 H3         0.6969    4.0088   10.0437 H         1 RES1    0.0000
     19 H4         0.3507    5.0182    8.7810 H         1 RES1    0.0000
     20 H5        -0.8613    4.5696    9.7878 H         1 RES1    0.0000
     21 C8        -0.6259   -0.4366    6.7145 C.3       1 RES1    0.0000
     22 H6        -1.5684   -0.7720    6.7508 H         1 RES1    0.0000
     23 H7        -0.0203   -1.0511    7.1634 H         1 RES1    0.0000
     24 H8        -0.3368   -0.3678    5.7357 H         1 RES1    0.0000
@<TRIPOS>BOND
     1    1   13 1
     2    2   14 1
     3    3    7 2
     4    4    7 2
     5    5    8 2
     6    6    8 2
     7    7    9 1
     8    8   10 1
     9    9   10 ar
    10   10   11 ar
    11   11   12 1
    12   13   11 ar
    13   14   13 ar
    14   15    9 ar
    15   16   15 1
    16   17    1 1
    17   18   17 1
    18   19   17 1
    19   20   17 1
    20   21    2 1
    21   22   21 1
    22   23   21 1
    23   24   21 1
    24   14   15 ar
@<TRIPOS>SUBSTRUCTURE
     1 RES1 1

@<TRIPOS>CRYSIN
   4.4627   26.0820    8.4270  90.0000 101.6700  90.0000 231 1

