# MOL2 file generated by ConQuest
# Please check atom types

@<TRIPOS>MOLECULE
FIHNOA
    29    29     2
SMALL
NO_CHARGES
****
Generated from CSD

@<TRIPOS>ATOM
      1 O1         1.2564   -0.9960    5.1271 O.3       1 RES1    0.0000
      2 O2         3.6740   -3.2539    6.4404 O.2       1 RES1    0.0000
      3 O3         1.9086   -2.8525    2.0069 O.2       1 RES1    0.0000
      4 O4         0.7204   -1.1161    1.3829 O.3       1 RES1    0.0000
      5 N1         1.2684   -0.1478    3.9617 N.3       1 RES1    0.0000
      6 N2         1.4621   -3.4690    6.0619 N.am      1 RES1    0.0000
      7 H1         0.7751   -3.1061    5.8447 H         1 RES1    0.0000
      8 H2         1.4405   -4.2802    6.5095 H         1 RES1    0.0000
      9 C1         2.3201   -0.7202    3.0717 C.3       1 RES1    0.0000
     10 C2         2.9154    0.5145    2.3531 C.3       1 RES1    0.0000
     11 H3         3.8455    0.5118    2.4376 H         1 RES1    0.0000
     12 H4         2.6791    0.4406    1.3573 H         1 RES1    0.0000
     13 C3         2.1930    1.7283    2.9639 C.3       1 RES1    0.0000
     14 H5         3.1122    1.4053    3.5456 Du        2 SUP2    0.0000
     15 H6         2.8331    2.5915    3.0747 H         1 RES1    0.0000
     16 C4         1.7183    1.2190    4.2943 C.3       1 RES1    0.0000
     17 H7         1.0048    1.6480    4.6675 H         1 RES1    0.0000
     18 H8         2.4840    1.1843    4.9860 H         1 RES1    0.0000
     19 C5         2.6084   -1.4369    5.3702 C.3       1 RES1    0.0000
     20 H9         3.0129   -0.8505    5.9555 H         1 RES1    0.0000
     21 C6         2.5973   -2.8021    6.0177 C.2       1 RES1    0.0000
     22 C7         3.2897   -1.4673    4.0052 C.3       1 RES1    0.0000
     23 H10        3.4236   -2.4361    3.6841 H         1 RES1    0.0000
     24 H11        4.1816   -1.1086    4.0304 H         1 RES1    0.0000
     25 C8         1.6462   -1.6908    2.1095 C.2       1 RES1    0.0000
     26 C9         0.0042   -1.9438    0.4404 C.3       1 RES1    0.0000
     27 H12       -0.6398   -1.4097   -0.0305 H         1 RES1    0.0000
     28 H13       -0.4473   -2.6479    0.9127 H         1 RES1    0.0000
     29 H14        0.6238   -2.3250   -0.1856 H         1 RES1    0.0000
@<TRIPOS>BOND
     1    1    5 1
     2    2   21 2
     3    3   25 2
     4    4   25 1
     5    5    9 1
     6    6    7 1
     7    8    6 1
     8    9   10 1
     9   10   11 1
    10   12   10 1
    11   13   10 1
    12   15   13 1
    13   16    5 1
    14   17   16 1
    15   18   16 1
    16   19    1 1
    17   20   19 1
    18   21    6 1
    19   22    9 1
    20   23   22 1
    21   24   22 1
    22   25    9 1
    23   26    4 1
    24   27   26 1
    25   28   26 1
    26   29   26 1
    27   13   16 1
    28   19   21 1
    29   19   22 1
@<TRIPOS>SUBSTRUCTURE
     1 RES1 1
     2 SUP2 14

@<TRIPOS>CRYSIN
   5.1780    7.5360   14.2320  95.1700  99.8400 108.9900   2 1

