# MOL2 file generated by ConQuest
# Please check atom types

@<TRIPOS>MOLECULE
FIJBUY
   104   108     2
SMALL
USER_CHARGES
****
Generated from CSD

@<TRIPOS>ATOM
      1 O1         1.6127   16.2920    2.4671 O.3       1 RES1    0.0000
      2 O2         2.9592   16.3080    4.2509 O.2       1 RES1    0.0000
      3 O3        -2.6042   15.1710    8.4626 O.2       1 RES1    0.0000
      4 O4         0.4516   11.1544   11.5031 O.2       1 RES1   -1.0000
      5 N1        -0.5358   11.9626   11.2668 N.pl3     1 RES1    1.0000
      6 C1         2.8045   16.1015    1.6719 C.3       1 RES1    0.0000
      7 H1         2.5582   16.0320    0.7264 H         1 RES1    0.0000
      8 H2         3.2563   15.2789    1.9538 H         1 RES1    0.0000
      9 H3         3.4061   16.8646    1.7983 H         1 RES1    0.0000
     10 C2         1.8526   16.3679    3.7767 C.2       1 RES1    0.0000
     11 C3         0.5789   16.5183    4.5852 C.3       1 RES1    0.0000
     12 H4        -0.2112   16.3944    4.0016 H         1 RES1    0.0000
     13 H5         0.5341   17.4232    4.9845 H         1 RES1    0.0000
     14 C4         0.5902   15.4476    5.6973 C.3       1 RES1    0.0000
     15 H6         1.4817   15.4810    6.1491 H         1 RES1    0.0000
     16 C5         0.4195   14.0480    5.0870 C.ar      1 RES1    0.0000
     17 C6        -0.7872   13.6683    4.4676 C.ar      1 RES1    0.0000
     18 H7        -1.4941   14.2988    4.3948 H         1 RES1    0.0000
     19 C7        -0.9607   12.3771    3.9586 C.ar      1 RES1    0.0000
     20 H8        -1.7745   12.1303    3.5357 H         1 RES1    0.0000
     21 C8         0.0653   11.4725    4.0807 C.ar      1 RES1    0.0000
     22 H9        -0.0303   10.5917    3.7363 H         1 RES1    0.0000
     23 C9         1.2382   11.8534    4.7048 C.ar      1 RES1    0.0000
     24 H10        1.9460   11.2249    4.7864 H         1 RES1    0.0000
     25 C10        1.4038   13.1210    5.2114 C.ar      1 RES1    0.0000
     26 H11        2.2134   13.3499    5.6531 H         1 RES1    0.0000
     27 C11       -0.4738   15.6696    6.7474 C.3       1 RES1    0.0000
     28 H12       -1.3713   15.5688    6.3174 H         1 RES1    0.0000
     29 C12       -0.3551   17.1267    7.3231 C.ar      1 RES1    0.0000
     30 C13       -1.3918   18.0023    7.1366 C.ar      1 RES1    0.0000
     31 H13       -2.1640   17.7280    6.6565 H         1 RES1    0.0000
     32 C14       -1.3143   19.2930    7.6501 C.ar      1 RES1    0.0000
     33 H14       -2.0305   19.8984    7.4972 H         1 RES1    0.0000
     34 C15       -0.2284   19.7092    8.3732 C.ar      1 RES1    0.0000
     35 H15       -0.2159   20.5776    8.7582 H         1 RES1    0.0000
     36 C16        0.8541   18.8578    8.5413 C.ar      1 RES1    0.0000
     37 H16        1.6234   19.1435    9.0202 H         1 RES1    0.0000
     38 C17        0.7939   17.5695    7.9933 C.ar      1 RES1    0.0000
     39 H17        1.5409   16.9887    8.0779 H         1 RES1    0.0000
     40 C18       -0.3582   14.6464    7.8846 C.3       1 RES1    0.0000
     41 H18       -0.1544   13.7586    7.4966 H         1 RES1    0.0000
     42 H19        0.4005   14.9011    8.4676 H         1 RES1    0.0000
     43 C19       -1.5904   14.5369    8.7177 C.2       1 RES1    0.0000
     44 C20       -1.5800   13.6268    9.8991 C.ar      1 RES1    0.0000
     45 C21       -2.7004   13.6128   10.7424 C.ar      1 RES1    0.0000
     46 H20       -3.4463   14.1729   10.5635 H         1 RES1    0.0000
     47 C22       -2.7004   12.7719   11.8361 C.ar      1 RES1    0.0000
     48 H21       -3.4569   12.7442   12.4103 H         1 RES1    0.0000
     49 C23       -1.6192   11.9787   12.0979 C.ar      1 RES1    0.0000
     50 H22       -1.6213   11.4281   12.8720 H         1 RES1    0.0000
     51 C24       -0.5061   12.7865   10.1734 C.ar      1 RES1    0.0000
     52 H23        0.2512   12.7842    9.5997 H         1 RES1    0.0000
     53 O5         7.0253    2.0889   12.3358 O.3       2 RES2    0.0000
     54 O6         8.4519    3.8010   12.0901 O.2       2 RES2    0.0000
     55 O7         2.7931    8.2113   11.2283 O.2       2 RES2    0.0000
     56 O8         1.8250   11.9392    8.1581 O.2       2 RES2   -1.0000
     57 N2         2.8274   11.1258    8.3281 N.pl3     2 RES2    1.0000
     58 C25        8.1378    1.2480   12.6865 C.3       2 RES2    0.0000
     59 H24        8.7078    1.1153   11.9017 H         2 RES2    0.0000
     60 H25        7.8053    0.3809   13.0003 H         2 RES2    0.0000
     61 H26        8.6574    1.6752   13.4000 H         2 RES2    0.0000
     62 C26        7.3260    3.3702   12.0523 C.2       2 RES2    0.0000
     63 C27        6.1158    4.1340   11.6802 C.3       2 RES2    0.0000
     64 H27        5.3611    3.8030   12.2286 H         2 RES2    0.0000
     65 H28        5.9029    3.9325   10.7341 H         2 RES2    0.0000
     66 C28        6.1889    5.6390   11.8368 C.3       2 RES2    0.0000
     67 H29        7.0838    5.9501   11.5170 H         2 RES2    0.0000
     68 C29        6.0717    5.9430   13.3728 C.ar      2 RES2    0.0000
     69 C30        4.9076    5.6115   14.0936 C.ar      2 RES2    0.0000
     70 H30        4.1889    5.1840   13.6441 H         2 RES2    0.0000
     71 C31        4.7848    5.9004   15.4730 C.ar      2 RES2    0.0000
     72 H31        3.9877    5.6714   15.9359 H         2 RES2    0.0000
     73 C32        5.8347    6.5231   16.1546 C.ar      2 RES2    0.0000
     74 H32        5.7828    6.6874   17.0881 H         2 RES2    0.0000
     75 C33        6.9556    6.8940   15.4246 C.ar      2 RES2    0.0000
     76 H33        7.6701    7.3397   15.8634 H         2 RES2    0.0000
     77 C34        7.0544    6.6262   14.0613 C.ar      2 RES2    0.0000
     78 H34        7.8236    6.9236   13.5898 H         2 RES2    0.0000
     79 C35        5.1224    6.3595   11.0561 C.3       2 RES2    0.0000
     80 H35        4.2357    6.0071   11.3546 H         2 RES2    0.0000
     81 C36        5.2755    6.0353    9.5730 C.ar      2 RES2    0.0000
     82 C37        4.2750    5.3682    8.9029 C.ar      2 RES2    0.0000
     83 H36        3.4874    5.1159    9.3705 H         2 RES2    0.0000
     84 C38        4.3937    5.0662    7.5903 C.ar      2 RES2    0.0000
     85 H37        3.6858    4.6175    7.1431 H         2 RES2    0.0000
     86 C39        5.5289    5.4036    6.9040 C.ar      2 RES2    0.0000
     87 H38        5.5976    5.2087    5.9759 H         2 RES2    0.0000
     88 C40        6.5804    6.0301    7.5603 C.ar      2 RES2    0.0000
     89 H39        7.3728    6.2529    7.0859 H         2 RES2    0.0000
     90 C41        6.4724    6.3236    8.8822 C.ar      2 RES2    0.0000
     91 H40        7.2018    6.7223    9.3430 H         2 RES2    0.0000
     92 C42        5.1402    7.8973   11.3301 C.3       2 RES2    0.0000
     93 H41        5.1784    8.0670   12.3052 H         2 RES2    0.0000
     94 H42        5.9373    8.3074   10.9107 H         2 RES2    0.0000
     95 C43        3.8814    8.4998   10.7496 C.2       2 RES2    0.0000
     96 C44        3.9372    9.4406    9.5956 C.ar      2 RES2    0.0000
     97 C45        5.0272    9.4785    8.7072 C.ar      2 RES2    0.0000
     98 H43        5.7913    8.9311    8.8453 H         2 RES2    0.0000
     99 C46        4.9502   10.3407    7.6248 C.ar      2 RES2    0.0000
    100 H44        5.6649   10.3734    6.9991 H         2 RES2    0.0000
    101 C47        3.8626   11.1422    7.4452 C.ar      2 RES2    0.0000
    102 H45        3.8267   11.7209    6.6926 H         2 RES2    0.0000
    103 C48        2.8595   10.2721    9.3853 C.ar      2 RES2    0.0000
    104 H46        2.1264   10.2484    9.9891 H         2 RES2    0.0000
@<TRIPOS>BOND
     1    1    6 1
     2    2   10 2
     3    3   43 2
     4    4    5 1
     5    5   49 ar
     6    6    7 1
     7    8    6 1
     8    9    6 1
     9   10    1 1
    10   11   10 1
    11   12   11 1
    12   13   11 1
    13   14   11 1
    14   15   14 1
    15   16   14 1
    16   17   16 ar
    17   18   17 1
    18   19   17 ar
    19   20   19 1
    20   21   19 ar
    21   22   21 1
    22   23   21 ar
    23   24   23 1
    24   25   16 ar
    25   26   25 1
    26   27   14 1
    27   28   27 1
    28   29   27 1
    29   30   29 ar
    30   31   30 1
    31   32   30 ar
    32   33   32 1
    33   34   32 ar
    34   35   34 1
    35   36   34 ar
    36   37   36 1
    37   38   29 ar
    38   39   38 1
    39   40   27 1
    40   41   40 1
    41   42   40 1
    42   43   40 1
    43   44   43 1
    44   45   44 ar
    45   46   45 1
    46   47   45 ar
    47   48   47 1
    48   49   47 ar
    49   50   49 1
    50   51    5 ar
    51   52   51 1
    52   53   58 1
    53   54   62 2
    54   55   95 2
    55   56   57 1
    56   57  101 ar
    57   58   59 1
    58   60   58 1
    59   61   58 1
    60   62   53 1
    61   63   62 1
    62   64   63 1
    63   65   63 1
    64   66   63 1
    65   67   66 1
    66   68   66 1
    67   69   68 ar
    68   70   69 1
    69   71   69 ar
    70   72   71 1
    71   73   71 ar
    72   74   73 1
    73   75   73 ar
    74   76   75 1
    75   77   68 ar
    76   78   77 1
    77   79   66 1
    78   80   79 1
    79   81   79 1
    80   82   81 ar
    81   83   82 1
    82   84   82 ar
    83   85   84 1
    84   86   84 ar
    85   87   86 1
    86   88   86 ar
    87   89   88 1
    88   90   81 ar
    89   91   90 1
    90   92   79 1
    91   93   92 1
    92   94   92 1
    93   95   92 1
    94   96   95 1
    95   97   96 ar
    96   98   97 1
    97   99   97 ar
    98  100   99 1
    99  101   99 ar
   100  102  101 1
   101  103   57 ar
   102  104  103 1
   103   23   25 ar
   104   36   38 ar
   105   44   51 ar
   106   75   77 ar
   107   88   90 ar
   108   96  103 ar
@<TRIPOS>SUBSTRUCTURE
     1 RES1 1
     2 RES2 53

@<TRIPOS>CRYSIN
   5.8253   29.2070   23.1765  90.0000  96.4740  90.0000 231 1

