# MOL2 file generated by ConQuest
# Please check atom types

@<TRIPOS>MOLECULE
FIJFAF
    41    42     1
SMALL
NO_CHARGES
****
Generated from CSD

@<TRIPOS>ATOM
      1 N1         5.2389    2.6513    0.6023 N.3       1 RES1    0.0000
      2 C1         4.8132    2.9823    1.8608 C.2       1 RES1    0.0000
      3 C2         4.8336    2.0470    2.8282 C.2       1 RES1    0.0000
      4 C3         5.3486    0.6371    2.6173 C.3       1 RES1    0.0000
      5 C4         5.5754    0.3779    1.1321 C.2       1 RES1    0.0000
      6 C5         5.5460    1.3678    0.2175 C.2       1 RES1    0.0000
      7 C6         6.6407    0.4325    3.4173 C.ar      1 RES1    0.0000
      8 C7         7.7757    1.1351    3.0232 C.ar      1 RES1    0.0000
      9 C8         8.9720    1.0212    3.7032 C.ar      1 RES1    0.0000
     10 C9         9.0700    0.1796    4.7813 C.ar      1 RES1    0.0000
     11 C10        7.9869   -0.5605    5.1793 C.ar      1 RES1    0.0000
     12 C11        6.7892   -0.4309    4.4940 C.ar      1 RES1    0.0000
     13 C12        4.3518    4.3860    2.0322 C.3       1 RES1    0.0000
     14 C13        4.4111    2.4295    4.1421 C.1       1 RES1    0.0000
     15 C14        5.8217   -1.0102    0.7222 C.2       1 RES1    0.0000
     16 C15        5.8897   -3.2696    1.5024 C.3       1 RES1    0.0000
     17 C16        7.3158   -3.6240    1.5907 C.3       1 RES1    0.0000
     18 C17        5.8064    1.2257   -1.2507 C.3       1 RES1    0.0000
     19 N2         5.6678   -1.2569    4.9605 N.pl3     1 RES1    0.0000
     20 N3         4.0905    2.7527    5.1872 N.1       1 RES1    0.0000
     21 O1         4.5556   -0.7542    5.0514 O.2       1 RES1    0.0000
     22 O2         5.9159   -2.4046    5.2531 O.2       1 RES1    0.0000
     23 O3         6.1042   -1.4084   -0.3756 O.2       1 RES1    0.0000
     24 O4         5.6636   -1.8596    1.7567 O.3       1 RES1    0.0000
     25 H1         5.2344    3.2477    0.0132 H         1 RES1    0.0000
     26 H2         4.5685   -0.0156    2.9916 H         1 RES1    0.0000
     27 H3         7.7203    1.6863    2.2272 H         1 RES1    0.0000
     28 H4         9.7023    1.5614    3.3738 H         1 RES1    0.0000
     29 H5         9.9227    0.1249    5.1925 H         1 RES1    0.0000
     30 H6         7.9352   -1.2179    5.8778 H         1 RES1    0.0000
     31 H7         4.3019    4.6686    2.9652 H         1 RES1    0.0000
     32 H8         4.2001    4.8560    1.2388 H         1 RES1    0.0000
     33 H9         5.1762    4.9653    2.3854 H         1 RES1    0.0000
     34 H10        5.5496   -3.4507    0.5930 H         1 RES1    0.0000
     35 H11        5.4660   -3.7630    2.2009 H         1 RES1    0.0000
     36 H12        7.4496   -3.4039    2.6094 H         1 RES1    0.0000
     37 H13        7.4149   -4.6217    1.5946 H         1 RES1    0.0000
     38 H14        7.7173   -3.0760    0.6985 H         1 RES1    0.0000
     39 H15        6.7353    0.9993   -1.4892 H         1 RES1    0.0000
     40 H16        5.6121    2.0767   -1.6737 H         1 RES1    0.0000
     41 H17        5.2910    0.5309   -1.6210 H         1 RES1    0.0000
@<TRIPOS>BOND
     1    1    2 1
     2    2    3 2
     3    3    4 1
     4    4    5 1
     5    5    6 2
     6    6    1 1
     7    7    4 1
     8    8    7 ar
     9    9    8 ar
    10   10    9 ar
    11   11   10 ar
    12   12    7 ar
    13   13    2 1
    14   14    3 1
    15   15    5 1
    16   16   17 1
    17   17   36 1
    18   18    6 1
    19   19   12 1
    20   20   14 3
    21   21   19 2
    22   22   19 2
    23   23   15 2
    24   24   15 1
    25   25    1 1
    26   26    4 1
    27   27    8 1
    28   28    9 1
    29   29   10 1
    30   30   11 1
    31   31   13 1
    32   32   13 1
    33   33   13 1
    34   34   16 1
    35   35   16 1
    36   37   17 1
    37   38   17 1
    38   39   18 1
    39   40   18 1
    40   41   18 1
    41   11   12 ar
    42   16   24 1
@<TRIPOS>SUBSTRUCTURE
     1 RES1 1

@<TRIPOS>CRYSIN
   7.9830   15.6140   13.4050  90.0000 100.5400  90.0000  14 1

