# MOL2 file generated by ConQuest
# Please check atom types

@<TRIPOS>MOLECULE
FIJHAH01
    60    64     2
SMALL
NO_CHARGES
****
Generated from CSD

@<TRIPOS>ATOM
      1 O1         3.7537    0.1544    3.5599 O.2       1 RES1    0.0000
      2 O2         8.3201    1.3200    5.9967 O.2       1 RES1    0.0000
      3 O3         8.2142    2.6976    7.6246 O.2       1 RES1    0.0000
      4 O4         3.9291    3.3924    9.7902 O.2       1 RES1    0.0000
      5 O5         2.3034    2.1713    9.0665 O.2       1 RES1    0.0000
      6 O6         1.7097    4.3786    7.5236 O.2       1 RES1    0.0000
      7 O7        -0.1914    3.5653    8.2224 O.2       1 RES1    0.0000
      8 O8        -2.6198    1.3265    4.6784 O.2       1 RES1    0.0000
      9 O9        -1.5425    0.6317    2.9813 O.2       1 RES1    0.0000
     10 N1         7.7065    1.9995    6.7840 N.pl3     1 RES1    0.0000
     11 N2         3.3995    2.7128    8.9258 N.pl3     1 RES1    0.0000
     12 N3         0.7874    3.5772    7.4828 N.pl3     1 RES1    0.0000
     13 N4        -1.5950    1.0840    4.0931 N.pl3     1 RES1    0.0000
     14 C1         5.6520    1.3830    5.6030 C.ar      1 RES1    0.0000
     15 C2         6.2355    1.9658    6.7046 C.ar      1 RES1    0.0000
     16 C3         5.5146    2.4845    7.7505 C.ar      1 RES1    0.0000
     17 C4         4.1251    2.4464    7.6858 C.ar      1 RES1    0.0000
     18 C5         0.8671    2.5117    6.4788 C.ar      1 RES1    0.0000
     19 C6        -0.3401    2.2137    5.8390 C.ar      1 RES1    0.0000
     20 C7        -0.3071    1.3798    4.7510 C.ar      1 RES1    0.0000
     21 C8         0.8465    0.8242    4.2519 C.ar      1 RES1    0.0000
     22 C9         3.4019    0.7937    4.5208 C.2       1 RES1    0.0000
     23 C10        4.2767    1.4222    5.5463 C.ar      1 RES1    0.0000
     24 C11        3.4685    2.0072    6.5344 C.ar      1 RES1    0.0000
     25 C12        2.0508    1.9321    6.0851 C.ar      1 RES1    0.0000
     26 C13        2.0115    1.1264    4.9246 C.ar      1 RES1    0.0000
     27 H1         6.1986    0.9546    4.8758 H         1 RES1    0.0000
     28 H2         5.9774    2.8813    8.5480 H         1 RES1    0.0000
     29 H3        -1.2044    2.6052    6.1634 H         1 RES1    0.0000
     30 H4         0.8412    0.2327    3.4419 H         1 RES1    0.0000
     31 O10        4.0393   -0.3664   -0.7907 O.2       2 RES2    0.0000
     32 O11        9.0057    0.1240    1.0244 O.2       2 RES2    0.0000
     33 O12        9.3461    1.5972    2.5411 O.2       2 RES2    0.0000
     34 O13        5.7024    4.5601    3.8707 O.2       2 RES2    0.0000
     35 O14        4.5572    5.1005    2.1078 O.2       2 RES2    0.0000
     36 O15        2.7897    3.7099    3.6563 O.2       2 RES2    0.0000
     37 O16        1.5292    5.2038    2.6410 O.2       2 RES2    0.0000
     38 O17       -1.5085    3.0738   -0.5309 O.2       2 RES2    0.0000
     39 O18       -1.0047    1.1297   -1.2808 O.2       2 RES2    0.0000
     40 N5         8.6292    1.0188    1.7504 N.pl3     2 RES2    0.0000
     41 N6         5.2226    4.3003    2.7964 N.pl3     2 RES2    0.0000
     42 N7         2.1400    4.1480    2.6693 N.pl3     2 RES2    0.0000
     43 N8        -0.7423    2.1496   -0.6739 N.pl3     2 RES2    0.0000
     44 C14        6.3681    0.7307    0.8599 C.ar      2 RES2    0.0000
     45 C15        7.2168    1.4505    1.6563 C.ar      2 RES2    0.0000
     46 C16        6.8156    2.5715    2.3415 C.ar      2 RES2    0.0000
     47 C17        5.5041    3.0009    2.1997 C.ar      2 RES2    0.0000
     48 C18        2.0722    3.2967    1.4838 C.ar      2 RES2    0.0000
     49 C19        0.8245    3.2358    0.8792 C.ar      2 RES2    0.0000
     50 C20        0.5949    2.2692   -0.0692 C.ar      2 RES2    0.0000
     51 C21        1.5765    1.3700   -0.4526 C.ar      2 RES2    0.0000
     52 C22        3.9832    0.6035   -0.0794 C.2       2 RES2    0.0000
     53 C23        5.0649    1.1656    0.7703 C.ar      2 RES2    0.0000
     54 C24        4.5776    2.2975    1.4215 C.ar      2 RES2    0.0000
     55 C25        3.1264    2.4703    1.0845 C.ar      2 RES2    0.0000
     56 C26        2.8167    1.4874    0.1350 C.ar      2 RES2    0.0000
     57 H5         6.6800   -0.0837    0.3676 H         2 RES2    0.0000
     58 H6         7.4561    3.0667    2.9223 H         2 RES2    0.0000
     59 H7         0.1008    4.0774    1.1333 H         2 RES2    0.0000
     60 H8         1.3953    0.6546   -1.1310 H         2 RES2    0.0000
@<TRIPOS>BOND
     1    1   22 2
     2    2   10 2
     3    3   10 2
     4    4   11 2
     5    5   11 2
     6    6   12 2
     7    7   12 2
     8    8   13 2
     9    9   13 2
    10   10   15 1
    11   11   17 1
    12   12   18 1
    13   13   20 1
    14   14   15 ar
    15   15   16 ar
    16   16   17 ar
    17   17   24 ar
    18   18   19 ar
    19   19   20 ar
    20   20   21 ar
    21   21   26 ar
    22   22   23 1
    23   23   14 ar
    24   24   23 ar
    25   25   18 ar
    26   26   22 1
    27   27   14 1
    28   28   16 1
    29   29   19 1
    30   30   21 1
    31   31   52 2
    32   32   40 2
    33   33   40 2
    34   34   41 2
    35   35   41 2
    36   36   42 2
    37   37   42 2
    38   38   43 2
    39   39   43 2
    40   40   45 1
    41   41   47 1
    42   42   48 1
    43   43   50 1
    44   44   45 ar
    45   45   46 ar
    46   46   47 ar
    47   47   54 ar
    48   48   49 ar
    49   49   50 ar
    50   50   51 ar
    51   51   56 ar
    52   52   53 1
    53   53   44 ar
    54   54   53 ar
    55   55   48 ar
    56   56   52 1
    57   57   44 1
    58   58   46 1
    59   59   49 1
    60   60   51 1
    61   24   25 1
    62   25   26 ar
    63   54   55 1
    64   55   56 ar
@<TRIPOS>SUBSTRUCTURE
     1 RES1 1
     2 RES2 31

@<TRIPOS>CRYSIN
  22.9550   10.8730   11.6590  90.0000 103.3400  90.0000  14 2

