# MOL2 file generated by ConQuest
# Please check atom types

@<TRIPOS>MOLECULE
FIJHAH03
    60    64     2
SMALL
NO_CHARGES
****
Generated from CSD

@<TRIPOS>ATOM
      1 C1         9.7884    0.8381    1.8175 C.ar      1 RES1    0.0000
      2 H1         9.0470    0.3041    1.6451 H         1 RES1    0.0000
      3 C2        10.5415    1.3765    0.7957 C.ar      1 RES1    0.0000
      4 C3        11.5952    2.2244    1.0193 C.ar      1 RES1    0.0000
      5 H2        12.0659    2.5938    0.3062 H         1 RES1    0.0000
      6 C4        11.9487    2.5186    2.3329 C.ar      1 RES1    0.0000
      7 C5        11.2883    1.9378    3.4076 C.ar      1 RES1    0.0000
      8 C6        11.4146    2.0086    4.8889 C.ar      1 RES1    0.0000
      9 C7        12.3737    2.4642    5.7893 C.ar      1 RES1    0.0000
     10 C8        12.1305    2.4870    7.1548 C.ar      1 RES1    0.0000
     11 H3        12.7574    2.8445    7.7406 H         1 RES1    0.0000
     12 C9        10.9468    1.9715    7.6244 C.ar      1 RES1    0.0000
     13 C10       10.0095    1.3874    6.7951 C.ar      1 RES1    0.0000
     14 H4         9.2466    0.9830    7.1371 H         1 RES1    0.0000
     15 C11       10.2524    1.4277    5.4410 C.ar      1 RES1    0.0000
     16 C12        9.4580    0.7945    4.3654 C.2       1 RES1    0.0000
     17 C13       10.1807    1.1258    3.0949 C.ar      1 RES1    0.0000
     18 O1         8.4401    0.1624    4.4716 O.2       1 RES1    0.0000
     19 N1        10.1851    1.0746   -0.6100 N.pl3     1 RES1    0.0000
     20 O2         9.0958    0.6212   -0.8065 O.2       1 RES1    0.0000
     21 O3        10.9974    1.3198   -1.4766 O.2       1 RES1    0.0000
     22 N2        12.9505    3.5867    2.4945 N.pl3     1 RES1    0.0000
     23 O4        12.7726    4.3943    3.4121 O.2       1 RES1    0.0000
     24 O5        13.8839    3.5758    1.7088 O.2       1 RES1    0.0000
     25 N3        13.7636    2.7290    5.3758 N.pl3     1 RES1    0.0000
     26 O6        14.4699    3.3916    6.0908 O.2       1 RES1    0.0000
     27 O7        14.1462    2.1721    4.3317 O.2       1 RES1    0.0000
     28 N4        10.6798    1.9988    9.0661 N.pl3     1 RES1    0.0000
     29 O8         9.7654    1.3231    9.4973 O.2       1 RES1    0.0000
     30 O9        11.3838    2.7061    9.7660 O.2       1 RES1    0.0000
     31 C14        5.0369    1.3721    1.4198 C.ar      2 RES2    0.0000
     32 H5         4.4674    0.7073    1.1064 H         2 RES2    0.0000
     33 C15        5.6242    2.2702    0.5675 C.ar      2 RES2    0.0000
     34 C16        6.4977    3.2445    1.0023 C.ar      2 RES2    0.0000
     35 H6         6.8759    3.8504    0.4046 H         2 RES2    0.0000
     36 C17        6.7993    3.2968    2.3682 C.ar      2 RES2    0.0000
     37 C18        6.1797    2.4707    3.2934 C.ar      2 RES2    0.0000
     38 C19        6.1836    2.3192    4.7892 C.ar      2 RES2    0.0000
     39 C20        6.7203    3.0113    5.8639 C.ar      2 RES2    0.0000
     40 C21        6.5535    2.5775    7.1671 C.ar      2 RES2    0.0000
     41 H7         6.9400    3.0440    7.8725 H         2 RES2    0.0000
     42 C22        5.8067    1.4462    7.4058 C.ar      2 RES2    0.0000
     43 C23        5.2243    0.7237    6.3917 C.ar      2 RES2    0.0000
     44 H8         4.7152   -0.0349    6.5671 H         2 RES2    0.0000
     45 C24        5.4256    1.1694    5.1057 C.ar      2 RES2    0.0000
     46 C25        4.8416    0.5994    3.8594 C.2       2 RES2    0.0000
     47 C26        5.3233    1.4964    2.7607 C.ar      2 RES2    0.0000
     48 O10        4.1394   -0.3727    3.7436 O.2       2 RES2    0.0000
     49 N5         5.3531    2.1590   -0.8787 N.pl3     2 RES2    0.0000
     50 O11        4.8230    1.1345   -1.2701 O.2       2 RES2    0.0000
     51 O12        5.6680    3.0875   -1.5993 O.2       2 RES2    0.0000
     52 N6         7.9464    4.1752    2.7008 N.pl3     2 RES2    0.0000
     53 O13        8.7573    3.7273    3.5621 O.2       2 RES2    0.0000
     54 O14        8.0656    5.2204    2.1031 O.2       2 RES2    0.0000
     55 N7         7.3598    4.3071    5.7343 N.pl3     2 RES2    0.0000
     56 O15        8.3085    4.5687    6.4458 O.2       2 RES2    0.0000
     57 O16        6.8512    5.1125    4.9178 O.2       2 RES2    0.0000
     58 N8         5.5711    1.0168    8.8084 N.pl3     2 RES2    0.0000
     59 O17        4.7792    0.1177    9.0006 O.2       2 RES2    0.0000
     60 O18        6.1844    1.6086    9.6860 O.2       2 RES2    0.0000
@<TRIPOS>BOND
     1    1    2 1
     2    3    1 ar
     3    4    3 ar
     4    5    4 1
     5    6    4 ar
     6    7    6 ar
     7    8    7 1
     8    9    8 ar
     9   10    9 ar
    10   11   10 1
    11   12   10 ar
    12   13   12 ar
    13   14   13 1
    14   15    8 ar
    15   16   15 1
    16   17    1 ar
    17   18   16 2
    18   19    3 1
    19   20   19 2
    20   21   19 2
    21   22    6 1
    22   23   22 2
    23   24   22 2
    24   25    9 1
    25   26   25 2
    26   27   25 2
    27   28   12 1
    28   29   28 2
    29   30   28 2
    30   31   32 1
    31   33   31 ar
    32   34   33 ar
    33   35   34 1
    34   36   34 ar
    35   37   36 ar
    36   38   37 1
    37   39   38 ar
    38   40   39 ar
    39   41   40 1
    40   42   40 ar
    41   43   42 ar
    42   44   43 1
    43   45   38 ar
    44   46   45 1
    45   47   31 ar
    46   48   46 2
    47   49   33 1
    48   50   49 2
    49   51   49 2
    50   52   36 1
    51   53   52 2
    52   54   52 2
    53   55   39 1
    54   56   55 2
    55   57   55 2
    56   58   42 1
    57   59   58 2
    58   60   58 2
    59    7   17 ar
    60   13   15 ar
    61   16   17 1
    62   37   47 ar
    63   43   45 ar
    64   46   47 1
@<TRIPOS>SUBSTRUCTURE
     1 RES1 1
     2 RES2 31

@<TRIPOS>CRYSIN
  11.6686   10.8985   22.9590  90.0000 103.2000  90.0000  14 1

