# MOL2 file generated by ConQuest
# Please check atom types

@<TRIPOS>MOLECULE
FIJHAH02
    60    64     2
SMALL
NO_CHARGES
****
Generated from CSD

@<TRIPOS>ATOM
      1 C1         3.9436    0.8426    1.8150 C.ar      1 RES1    0.0000
      2 H1         3.1832    0.2819    1.6366 H         1 RES1    0.0000
      3 C2         4.6912    1.3738    0.7960 C.ar      1 RES1    0.0000
      4 C3         5.7510    2.2142    1.0235 C.ar      1 RES1    0.0000
      5 H2         6.2552    2.5691    0.2899 H         1 RES1    0.0000
      6 C4         6.0962    2.5125    2.3323 C.ar      1 RES1    0.0000
      7 C5         5.4378    1.9323    3.4026 C.ar      1 RES1    0.0000
      8 C6         4.3287    1.1289    3.0882 C.ar      1 RES1    0.0000
      9 C7         3.6099    0.8001    4.3502 C.2       1 RES1    0.0000
     10 C8         4.4009    1.4293    5.4339 C.ar      1 RES1    0.0000
     11 C9         5.5618    2.0128    4.8787 C.ar      1 RES1    0.0000
     12 C10        6.5113    2.4646    5.7795 C.ar      1 RES1    0.0000
     13 C11        6.2799    2.4972    7.1330 C.ar      1 RES1    0.0000
     14 H3         6.9250    2.8772    7.7350 H         1 RES1    0.0000
     15 C12        5.0954    1.9823    7.6057 C.ar      1 RES1    0.0000
     16 C13        4.1568    1.3880    6.7717 C.ar      1 RES1    0.0000
     17 H4         3.3659    0.9689    7.1218 H         1 RES1    0.0000
     18 N1         7.1006    3.5815    2.4884 N.pl3     1 RES1    0.0000
     19 N2         7.9023    2.7389    5.3648 N.pl3     1 RES1    0.0000
     20 N3         4.3369    1.0690   -0.5976 N.pl3     1 RES1    0.0000
     21 N4         4.8242    2.0030    9.0483 N.pl3     1 RES1    0.0000
     22 O1         6.9171    4.3871    3.4026 O.2       1 RES1    0.0000
     23 O2         8.0388    3.5663    1.7124 O.2       1 RES1    0.0000
     24 O3         8.2858    2.1761    4.3288 O.2       1 RES1    0.0000
     25 O4         8.6107    3.3986    6.0783 O.2       1 RES1    0.0000
     26 O5         3.9034    1.3281    9.4697 O.2       1 RES1    0.0000
     27 O6         5.5286    2.7041    9.7395 O.2       1 RES1    0.0000
     28 O7         5.1518    1.3074   -1.4583 O.2       1 RES1    0.0000
     29 O8         3.2554    0.6325   -0.8072 O.2       1 RES1    0.0000
     30 O9         2.5969    0.1611    4.4617 O.2       1 RES1    0.0000
     31 C14       -3.4306    4.0648   12.5758 C.ar      2 RES2    0.0000
     32 H5        -4.0204    4.7507   12.2525 H         2 RES2    0.0000
     33 C15       -2.8449    3.1689   11.7196 C.ar      2 RES2    0.0000
     34 C16       -1.9756    2.2001   12.1566 C.ar      2 RES2    0.0000
     35 H6        -1.5872    1.5730   11.5434 H         2 RES2    0.0000
     36 C17       -1.6788    2.1402   13.5123 C.ar      2 RES2    0.0000
     37 C18       -2.2921    2.9762   14.4465 C.ar      2 RES2    0.0000
     38 C19       -3.1447    3.9396   13.9092 C.ar      2 RES2    0.0000
     39 C20       -3.6267    4.8345   14.9973 C.2       2 RES2    0.0000
     40 C21       -3.0530    4.2651   16.2459 C.ar      2 RES2    0.0000
     41 C22       -2.2949    3.1221   15.9315 C.ar      2 RES2    0.0000
     42 C23       -1.7575    2.4406   17.0041 C.ar      2 RES2    0.0000
     43 C24       -1.9268    2.8587   18.3062 C.ar      2 RES2    0.0000
     44 H7        -1.5337    2.3710   19.0331 H         2 RES2    0.0000
     45 C25       -2.6750    3.9832   18.5448 C.ar      2 RES2    0.0000
     46 C26       -3.2576    4.7104   17.5303 C.ar      2 RES2    0.0000
     47 H8        -3.7779    5.4985   17.7064 H         2 RES2    0.0000
     48 N5        -0.5392    1.2726   13.8557 N.pl3     2 RES2    0.0000
     49 N6        -1.1078    1.1452   16.8770 N.pl3     2 RES2    0.0000
     50 N7        -3.1066    3.2865   10.2791 N.pl3     2 RES2    0.0000
     51 N8        -2.9066    4.4175   19.9384 N.pl3     2 RES2    0.0000
     52 O10        0.2752    1.7222   14.7319 O.2       2 RES2    0.0000
     53 O11       -0.4179    0.2308   13.2536 O.2       2 RES2    0.0000
     54 O12       -1.6320    0.3331   16.0542 O.2       2 RES2    0.0000
     55 O13       -0.1764    0.8709   17.5882 O.2       2 RES2    0.0000
     56 O14       -3.6436    4.3087    9.8800 O.2       2 RES2    0.0000
     57 O15       -2.7890    2.3677    9.5612 O.2       2 RES2    0.0000
     58 O16       -2.2973    3.8286   20.8147 O.2       2 RES2    0.0000
     59 O17       -3.6946    5.3233   20.1279 O.2       2 RES2    0.0000
     60 O18       -4.3319    5.8044   14.8858 O.2       2 RES2    0.0000
@<TRIPOS>BOND
     1    1    2 1
     2    3    1 ar
     3    4    3 ar
     4    5    4 1
     5    6    4 ar
     6    7    6 ar
     7    8    1 ar
     8    9    8 1
     9   10    9 1
    10   11    7 1
    11   12   11 ar
    12   13   12 ar
    13   14   13 1
    14   15   13 ar
    15   16   10 ar
    16   17   16 1
    17   18    6 1
    18   19   12 1
    19   20    3 1
    20   21   15 1
    21   22   18 2
    22   23   18 2
    23   24   19 2
    24   25   19 2
    25   26   21 2
    26   27   21 2
    27   28   20 2
    28   29   20 2
    29   30    9 2
    30   31   32 1
    31   33   31 ar
    32   34   33 ar
    33   35   34 1
    34   36   34 ar
    35   37   36 ar
    36   38   31 ar
    37   39   38 1
    38   40   39 1
    39   41   37 1
    40   42   41 ar
    41   43   42 ar
    42   44   43 1
    43   45   43 ar
    44   46   40 ar
    45   47   46 1
    46   48   36 1
    47   49   42 1
    48   50   33 1
    49   51   45 1
    50   52   48 2
    51   53   48 2
    52   54   49 2
    53   55   49 2
    54   56   50 2
    55   57   50 2
    56   58   51 2
    57   59   51 2
    58   60   39 2
    59    7    8 ar
    60   10   11 ar
    61   15   16 ar
    62   37   38 ar
    63   40   41 ar
    64   45   46 ar
@<TRIPOS>SUBSTRUCTURE
     1 RES1 1
     2 RES2 31

@<TRIPOS>CRYSIN
  11.6480   10.8860   22.9120  90.0000 103.3000  90.0000  14 1

