# MOL2 file generated by ConQuest
# Please check atom types

@<TRIPOS>MOLECULE
FIJHAH
    60    64     2
SMALL
NO_CHARGES
****
Generated from CSD

@<TRIPOS>ATOM
      1 O1         3.7551    0.1522    3.5560 O.2       1 RES1    0.0000
      2 O2         8.3238    1.3232    5.9769 O.2       1 RES1    0.0000
      3 O3         8.2124    2.7009    7.6234 O.2       1 RES1    0.0000
      4 O4         3.9450    3.3869    9.7858 O.2       1 RES1    0.0000
      5 O5         2.3158    2.1616    9.0578 O.2       1 RES1    0.0000
      6 O6         1.7378    4.3829    7.5191 O.2       1 RES1    0.0000
      7 O7        -0.1780    3.5827    8.2085 O.2       1 RES1    0.0000
      8 O8        -2.6042    1.3243    4.6786 O.2       1 RES1    0.0000
      9 O9        -1.5348    0.6143    2.9800 O.2       1 RES1    0.0000
     10 N1         7.7075    1.9898    6.7786 N.pl3     1 RES1    0.0000
     11 N2         3.4174    2.7204    8.9206 N.pl3     1 RES1    0.0000
     12 N3         0.7973    3.5848    7.4771 N.pl3     1 RES1    0.0000
     13 N4        -1.5868    1.0797    4.0901 N.pl3     1 RES1    0.0000
     14 C1         5.6485    1.3841    5.6084 C.ar      1 RES1    0.0000
     15 C2         6.2337    1.9811    6.7060 C.ar      1 RES1    0.0000
     16 C3         5.5076    2.4780    7.7515 C.ar      1 RES1    0.0000
     17 C4         4.1343    2.4464    7.6801 C.ar      1 RES1    0.0000
     18 C5         0.8671    2.5106    6.4668 C.ar      1 RES1    0.0000
     19 C6        -0.3194    2.2159    5.8239 C.ar      1 RES1    0.0000
     20 C7        -0.3012    1.3754    4.7500 C.ar      1 RES1    0.0000
     21 C8         0.8575    0.8405    4.2522 C.ar      1 RES1    0.0000
     22 C9         3.4145    0.7894    4.5198 C.2       1 RES1    0.0000
     23 C10        4.2757    1.4331    5.5347 C.ar      1 RES1    0.0000
     24 C11        3.4755    2.0104    6.5348 C.ar      1 RES1    0.0000
     25 C12        2.0605    1.9300    6.0847 C.ar      1 RES1    0.0000
     26 C13        2.0143    1.1221    4.9246 C.ar      1 RES1    0.0000
     27 H1         6.1104    1.0003    4.8986 H         1 RES1    0.0000
     28 H2         5.8344    2.8487    8.5158 H         1 RES1    0.0000
     29 H3        -1.0884    2.5443    6.2026 H         1 RES1    0.0000
     30 H4         0.9239    0.3153    3.4812 H         1 RES1    0.0000
     31 O10        4.0194   -0.3729   -0.7926 O.2       2 RES2    0.0000
     32 O11        8.9832    0.1218    1.0273 O.2       2 RES2    0.0000
     33 O12        9.3258    1.6103    2.5445 O.2       2 RES2    0.0000
     34 O13        5.6934    4.5667    3.8837 O.2       2 RES2    0.0000
     35 O14        4.5332    5.1016    2.1034 O.2       2 RES2    0.0000
     36 O15        2.8091    3.7186    3.6546 O.2       2 RES2    0.0000
     37 O16        1.5363    5.2125    2.6375 O.2       2 RES2    0.0000
     38 O17       -1.5168    3.0727   -0.5239 O.2       2 RES2    0.0000
     39 O18       -1.0088    1.1308   -1.2836 O.2       2 RES2    0.0000
     40 N5         8.6133    1.0199    1.7451 N.pl3     2 RES2    0.0000
     41 N6         5.2120    4.2872    2.8121 N.pl3     2 RES2    0.0000
     42 N7         2.1465    4.1676    2.6523 N.pl3     2 RES2    0.0000
     43 N8        -0.7471    2.1496   -0.6713 N.pl3     2 RES2    0.0000
     44 C14        6.3488    0.7339    0.8652 C.ar      2 RES2    0.0000
     45 C15        7.2020    1.4494    1.6601 C.ar      2 RES2    0.0000
     46 C16        6.8028    2.5671    2.3370 C.ar      2 RES2    0.0000
     47 C17        5.4958    2.9999    2.1976 C.ar      2 RES2    0.0000
     48 C18        2.0796    3.2956    1.4730 C.ar      2 RES2    0.0000
     49 C19        0.8327    3.2325    0.8822 C.ar      2 RES2    0.0000
     50 C20        0.5987    2.2714   -0.0726 C.ar      2 RES2    0.0000
     51 C21        1.5701    1.3787   -0.4456 C.ar      2 RES2    0.0000
     52 C22        3.9808    0.5969   -0.0816 C.2       2 RES2    0.0000
     53 C23        5.0440    1.1656    0.7654 C.ar      2 RES2    0.0000
     54 C24        4.5675    2.2996    1.4299 C.ar      2 RES2    0.0000
     55 C25        3.1181    2.4703    1.0874 C.ar      2 RES2    0.0000
     56 C26        2.8082    1.4896    0.1338 C.ar      2 RES2    0.0000
     57 H5         6.6853    0.0109    0.3969 H         2 RES2    0.0000
     58 H6         7.4470    3.0553    2.8121 H         2 RES2    0.0000
     59 H7         0.2458    3.8056    1.0999 H         2 RES2    0.0000
     60 H8         1.4046    0.7829   -1.0092 H         2 RES2    0.0000
@<TRIPOS>BOND
     1    1   22 2
     2    2   10 2
     3    3   10 2
     4    4   11 2
     5    5   11 2
     6    6   12 2
     7    7   12 2
     8    8   13 2
     9    9   13 2
    10   10   15 1
    11   11   17 1
    12   12   18 1
    13   13   20 1
    14   14   15 ar
    15   15   16 ar
    16   16   17 ar
    17   17   24 ar
    18   18   19 ar
    19   19   20 ar
    20   20   21 ar
    21   21   26 ar
    22   22   23 1
    23   23   14 ar
    24   24   23 ar
    25   25   18 ar
    26   26   22 1
    27   27   14 1
    28   28   16 1
    29   29   19 1
    30   30   21 1
    31   31   52 2
    32   32   40 2
    33   33   40 2
    34   34   41 2
    35   35   41 2
    36   36   42 2
    37   37   42 2
    38   38   43 2
    39   39   43 2
    40   40   45 1
    41   41   47 1
    42   42   48 1
    43   43   50 1
    44   44   45 ar
    45   45   46 ar
    46   46   47 ar
    47   47   54 ar
    48   48   49 ar
    49   49   50 ar
    50   50   51 ar
    51   51   56 ar
    52   52   53 1
    53   53   44 ar
    54   54   53 ar
    55   55   48 ar
    56   56   52 1
    57   57   44 1
    58   58   46 1
    59   59   49 1
    60   60   51 1
    61   24   25 1
    62   25   26 ar
    63   54   55 1
    64   55   56 ar
@<TRIPOS>SUBSTRUCTURE
     1 RES1 1
     2 RES2 31

@<TRIPOS>CRYSIN
  22.9000   10.8730   11.6470  90.0000 103.2000  90.0000  14 2

