# MOL2 file generated by ConQuest
# Please check atom types

@<TRIPOS>MOLECULE
FIJPIZ
    35    36     1
SMALL
NO_CHARGES
****
Generated from CSD

@<TRIPOS>ATOM
      1 O1         7.7402    4.3588    1.6815 O.2       1 RES1    0.0000
      2 O2         5.7214    3.3035    4.3001 O.2       1 RES1    0.0000
      3 O3         6.6231    5.3364    3.8847 O.3       1 RES1    0.0000
      4 O4         5.1810    0.3751    0.3902 O.2       1 RES1    0.0000
      5 O5         5.9957    1.1281   -1.4895 O.2       1 RES1    0.0000
      6 N1         5.9689    1.0519   -0.2559 N.pl3     1 RES1    0.0000
      7 C1         6.6759    2.2266    1.8712 C.3       1 RES1    0.0000
      8 H1         5.8114    1.8987    2.1954 H         1 RES1    0.0000
      9 C2         7.0024    1.8400    0.4691 C.3       1 RES1    0.0000
     10 H2         7.5256    2.4796   -0.0586 H         1 RES1    0.0000
     11 C3         7.7267    1.1153    1.5812 C.3       1 RES1    0.0000
     12 H3         7.3794    0.2125    1.7369 H         1 RES1    0.0000
     13 C4         7.0107    3.6166    2.2903 C.2       1 RES1    0.0000
     14 C5         6.3628    4.0565    3.6220 C.2       1 RES1    0.0000
     15 C6         6.0961    5.8816    5.1584 C.3       1 RES1    0.0000
     16 H4         6.0359    5.1637    5.8227 H         1 RES1    0.0000
     17 C7         7.1156    6.9072    5.6116 C.3       1 RES1    0.0000
     18 H5         7.9831    6.4990    5.6542 H         1 RES1    0.0000
     19 H6         6.8738    7.2365    6.4806 H         1 RES1    0.0000
     20 H7         7.1356    7.6366    4.9878 H         1 RES1    0.0000
     21 C8         4.7321    6.4518    4.9089 C.3       1 RES1    0.0000
     22 H8         4.1693    5.7770    4.5219 H         1 RES1    0.0000
     23 H9         4.8015    7.1946    4.3055 H         1 RES1    0.0000
     24 H10        4.3520    6.7486    5.7385 H         1 RES1    0.0000
     25 C9         9.2143    1.2105    1.7636 C.ar      1 RES1    0.0000
     26 C10        9.9995    2.2151    1.2112 C.ar      1 RES1    0.0000
     27 H11        9.6074    2.9034    0.7240 H         1 RES1    0.0000
     28 C11       11.3844    2.1821    1.3936 C.ar      1 RES1    0.0000
     29 H12       11.9081    2.8561    1.0236 H         1 RES1    0.0000
     30 C12       11.9911    1.1767    2.1079 C.ar      1 RES1    0.0000
     31 H13       12.9148    1.1680    2.2188 H         1 RES1    0.0000
     32 C13       11.2231    0.1970    2.6496 C.ar      1 RES1    0.0000
     33 H14       11.6271   -0.4824    3.1411 H         1 RES1    0.0000
     34 C14        9.8382    0.1923    2.4811 C.ar      1 RES1    0.0000
     35 H15        9.3302   -0.4932    2.8490 H         1 RES1    0.0000
@<TRIPOS>BOND
     1    1   13 2
     2    2   14 2
     3    3   14 1
     4    4    6 2
     5    5    6 2
     6    6    9 1
     7    7    8 1
     8    9    7 1
     9   10    9 1
    10   11    7 1
    11   12   11 1
    12   13    7 1
    13   14   13 1
    14   15    3 1
    15   16   15 1
    16   17   15 1
    17   18   17 1
    18   19   17 1
    19   20   17 1
    20   21   15 1
    21   22   21 1
    22   23   21 1
    23   24   21 1
    24   25   11 1
    25   26   25 ar
    26   27   26 1
    27   28   26 ar
    28   29   28 1
    29   30   28 ar
    30   31   30 1
    31   32   30 ar
    32   33   32 1
    33   34   25 ar
    34   35   34 1
    35    9   11 1
    36   32   34 ar
@<TRIPOS>SUBSTRUCTURE
     1 RES1 1

@<TRIPOS>CRYSIN
  10.0700    6.7473   11.1220  90.0000 106.5300  90.0000   4 1

