# MOL2 file generated by ConQuest
# Please check atom types

@<TRIPOS>MOLECULE
FIJQOG
    87    91     1
SMALL
NO_CHARGES
****
Generated from CSD

@<TRIPOS>ATOM
      1 N1        -0.5913   -1.8564    1.4358 N.pl3     1 RES1    0.0000
      2 O1         0.0719   -0.9587    1.9490 O.2       1 RES1    0.0000
      3 O2        -1.5221   -1.6197    0.6548 O.2       1 RES1    0.0000
      4 N2        -2.0571   -4.1585    0.4238 N.3       1 RES1    0.0000
      5 C1        -4.3161   -4.8662   -4.3960 C.3       1 RES1    0.0000
      6 H1        -4.4673   -5.6396   -4.9438 H         1 RES1    0.0000
      7 H2        -3.4443   -4.9224   -3.9966 H         1 RES1    0.0000
      8 H3        -4.3702   -4.0754   -4.9363 H         1 RES1    0.0000
      9 C2        -6.8783   -7.2316   -3.8901 C.2       1 RES1    0.0000
     10 H4        -7.3252   -8.0185   -4.1060 H         1 RES1    0.0000
     11 O3         2.4530   -6.0157    4.3453 O.2       1 RES1    0.0000
     12 C3        -0.2838   -3.2236    1.7817 C.ar      1 RES1    0.0000
     13 C4        -7.1555   -6.0022   -4.7074 C.3       1 RES1    0.0000
     14 H5        -6.5595   -6.0188   -5.4854 H         1 RES1    0.0000
     15 N3        -2.7921   -5.2533    0.0143 N.2       1 RES1    0.0000
     16 C5       -14.4083   -4.4142   -9.4394 C.3       1 RES1    0.0000
     17 H6       -14.6055   -5.3349   -9.2045 H         1 RES1    0.0000
     18 H7       -14.8680   -3.8458   -8.8026 H         1 RES1    0.0000
     19 N4         2.2055   -4.8828    3.9728 N.pl3     1 RES1    0.0000
     20 C6        -7.9339   -4.6913   -7.3781 C.3       1 RES1    0.0000
     21 H8        -8.1538   -5.4607   -7.9082 H         1 RES1    0.0000
     22 H9        -7.0119   -4.7364   -7.1157 H         1 RES1    0.0000
     23 H10       -8.0804   -3.8949   -7.8931 H         1 RES1    0.0000
     24 C7        -5.2684   -6.0758   -2.4506 C.2       1 RES1    0.0000
     25 C8        -9.1949   -7.0535   -6.0037 C.3       1 RES1    0.0000
     26 H11       -9.4615   -7.7739   -5.4118 H         1 RES1    0.0000
     27 H12       -8.5666   -7.3979   -6.6571 H         1 RES1    0.0000
     28 C9        -6.0268   -7.2467   -2.8750 C.2       1 RES1    0.0000
     29 H13       -5.9067   -8.0439   -2.4096 H         1 RES1    0.0000
     30 C10       -6.8182   -4.7427   -3.8813 C.3       1 RES1    0.0000
     31 H14       -7.4334   -4.7403   -3.1172 H         1 RES1    0.0000
     32 C11       -8.5905   -5.8977   -5.2208 C.3       1 RES1    0.0000
     33 H15       -9.1569   -5.7734   -4.4306 H         1 RES1    0.0000
     34 C12       -5.3862   -4.8060   -3.2880 C.3       1 RES1    0.0000
     35 O4         2.8264   -3.8996    4.3573 O.2       1 RES1    0.0000
     36 C13       -8.8240   -4.6604   -6.1222 C.3       1 RES1    0.0000
     37 C14       -1.0461   -4.3176    1.2933 C.ar      1 RES1    0.0000
     38 C15      -10.3140   -4.8765   -6.5073 C.3       1 RES1    0.0000
     39 H16      -10.8552   -4.6366   -5.7269 H         1 RES1    0.0000
     40 C16       -7.1113   -3.4634   -4.6743 C.3       1 RES1    0.0000
     41 H17       -7.0010   -2.6987   -4.0871 H         1 RES1    0.0000
     42 H18       -6.4602   -3.3819   -5.3891 H         1 RES1    0.0000
     43 C17        0.3625   -5.7837    2.6121 C.ar      1 RES1    0.0000
     44 H19        0.5858   -6.6387    2.9040 H         1 RES1    0.0000
     45 C18        1.0993   -4.6786    3.0504 C.ar      1 RES1    0.0000
     46 C19        0.7839   -3.4096    2.6447 C.ar      1 RES1    0.0000
     47 H20        1.2801   -2.6829    2.9436 H         1 RES1    0.0000
     48 C20       -0.6786   -5.6056    1.7605 C.ar      1 RES1    0.0000
     49 H21       -1.1639   -6.3466    1.4756 H         1 RES1    0.0000
     50 C21       -4.4462   -6.1336   -1.3886 C.2       1 RES1    0.0000
     51 H22       -4.3783   -6.9387   -0.9284 H         1 RES1    0.0000
     52 C22      -12.3919   -4.4205   -7.8774 C.3       1 RES1    0.0000
     53 H23      -12.5518   -5.3452   -7.6308 H         1 RES1    0.0000
     54 H24      -12.8944   -3.8600   -7.2647 H         1 RES1    0.0000
     55 C23      -16.4981   -4.2353  -10.7981 C.3       1 RES1    0.0000
     56 H25      -16.8449   -3.6265  -10.1423 H         1 RES1    0.0000
     57 H26      -16.7569   -5.1314  -10.5707 H         1 RES1    0.0000
     58 H27      -16.8492   -4.0097  -11.6632 H         1 RES1    0.0000
     59 C24      -14.9739   -4.1379  -10.8262 C.3       1 RES1    0.0000
     60 H28      -14.7313   -3.2220  -11.0764 H         1 RES1    0.0000
     61 C25       -8.5143   -3.4254   -5.2782 C.3       1 RES1    0.0000
     62 H29       -9.1654   -3.3589   -4.5626 H         1 RES1    0.0000
     63 H30       -8.5996   -2.6330   -5.8326 H         1 RES1    0.0000
     64 C26       -3.6575   -5.0095   -0.9206 C.2       1 RES1    0.0000
     65 C27      -10.8880   -4.1142   -7.7153 C.3       1 RES1    0.0000
     66 H31      -10.4268   -4.4324   -8.5196 H         1 RES1    0.0000
     67 C28      -12.9092   -4.1902   -9.2921 C.3       1 RES1    0.0000
     68 H32      -12.7009   -3.2813   -9.5574 H         1 RES1    0.0000
     69 H33      -12.4428   -4.7878   -9.8970 H         1 RES1    0.0000
     70 C29       -5.1580   -3.5972   -2.3808 C.3       1 RES1    0.0000
     71 H34       -5.9092   -3.5180   -1.7718 H         1 RES1    0.0000
     72 H35       -5.1380   -2.7961   -2.9285 H         1 RES1    0.0000
     73 C30      -10.4219   -6.4218   -6.6930 C.3       1 RES1    0.0000
     74 H36      -11.2404   -6.7527   -6.2911 H         1 RES1    0.0000
     75 H37      -10.4294   -6.6474   -7.6365 H         1 RES1    0.0000
     76 C31      -10.6906   -2.5910   -7.6284 C.3       1 RES1    0.0000
     77 H38       -9.7531   -2.3868   -7.6629 H         1 RES1    0.0000
     78 H39      -11.0584   -2.2673   -6.8024 H         1 RES1    0.0000
     79 H40      -11.1386   -2.1675   -8.3648 H         1 RES1    0.0000
     80 C32       -3.8671   -3.6669   -1.5624 C.3       1 RES1    0.0000
     81 H41       -3.1145   -3.4721   -2.1417 H         1 RES1    0.0000
     82 H42       -3.8942   -2.9869   -0.8718 H         1 RES1    0.0000
     83 C33      -14.4243   -5.0776  -11.8817 C.3       1 RES1    0.0000
     84 H43      -14.6402   -5.9832  -11.6481 H         1 RES1    0.0000
     85 H44      -13.4701   -4.9794  -11.9312 H         1 RES1    0.0000
     86 H45      -14.8125   -4.8646  -12.7331 H         1 RES1    0.0000
     87 H46       -2.1931   -3.3566    0.1038 H         1 RES1    0.0000
@<TRIPOS>BOND
     1    1    2 2
     2    3    1 2
     3    4   15 1
     4    5    6 1
     5    7    5 1
     6    8    5 1
     7    9   10 1
     8   11   19 2
     9   12    1 1
    10   13    9 1
    11   14   13 1
    12   15   64 2
    13   16   17 1
    14   18   16 1
    15   19   35 2
    16   20   21 1
    17   22   20 1
    18   23   20 1
    19   24   28 1
    20   25   26 1
    21   27   25 1
    22   28    9 2
    23   29   28 1
    24   30   13 1
    25   31   30 1
    26   32   13 1
    27   33   32 1
    28   34    5 1
    29   36   20 1
    30   37    4 1
    31   38   36 1
    32   39   38 1
    33   40   30 1
    34   41   40 1
    35   42   40 1
    36   43   44 1
    37   45   19 1
    38   46   12 ar
    39   47   46 1
    40   48   37 ar
    41   49   48 1
    42   50   24 2
    43   51   50 1
    44   52   53 1
    45   54   52 1
    46   55   56 1
    47   57   55 1
    48   58   55 1
    49   59   16 1
    50   60   59 1
    51   61   36 1
    52   62   61 1
    53   63   61 1
    54   64   50 1
    55   65   38 1
    56   66   65 1
    57   67   16 1
    58   68   67 1
    59   69   67 1
    60   70   34 1
    61   71   70 1
    62   72   70 1
    63   73   25 1
    64   74   73 1
    65   75   73 1
    66   76   65 1
    67   77   76 1
    68   78   76 1
    69   79   76 1
    70   80   64 1
    71   81   80 1
    72   82   80 1
    73   83   59 1
    74   84   83 1
    75   85   83 1
    76   86   83 1
    77   87    4 1
    78   12   37 ar
    79   24   34 1
    80   25   32 1
    81   30   34 1
    82   32   36 1
    83   38   73 1
    84   40   61 1
    85   43   45 ar
    86   43   48 ar
    87   45   46 ar
    88   52   65 1
    89   52   67 1
    90   55   59 1
    91   70   80 1
@<TRIPOS>SUBSTRUCTURE
     1 RES1 1

@<TRIPOS>CRYSIN
  10.2378    7.9164   18.8738  90.0000  91.2280  90.0000   4 1

