# MOL2 file generated by ConQuest
# Please check atom types

@<TRIPOS>MOLECULE
FIJROF
    27    29     1
SMALL
NO_CHARGES
****
Generated from CSD

@<TRIPOS>ATOM
      1 O1         8.1070    6.2555    1.6273 O.co2     1 RES1    0.0000
      2 O2         9.7177    5.5788    3.0025 O.co2     1 RES1    0.0000
      3 O3         7.3321    6.9365    4.9733 O.3       1 RES1    0.0000
      4 O4         6.7742    2.4035    4.2814 O.2       1 RES1    0.0000
      5 O5         8.5204    2.4510    5.7146 O.3       1 RES1    0.0000
      6 N1         7.9990    4.2897    4.6088 N.am      1 RES1    0.0000
      7 N2         6.6166    7.1001    6.2212 N.3       1 RES1    0.0000
      8 C1         8.5425    5.6697    2.6887 C.2       1 RES1    0.0000
      9 C2         7.4379    5.0713    3.5313 C.3       1 RES1    0.0000
     10 C3         6.5339    6.1731    4.0404 C.3       1 RES1    0.0000
     11 C4         5.2904    5.7116    4.7880 C.3       1 RES1    0.0000
     12 C5         5.5936    6.0123    6.2274 C.3       1 RES1    0.0000
     13 C6         6.0698    8.4703    6.2447 C.3       1 RES1    0.0000
     14 C7         7.1579    9.5008    6.1310 C.ar      1 RES1    0.0000
     15 C8         7.9704    9.7860    7.2184 C.ar      1 RES1    0.0000
     16 C9         8.9835   10.7172    7.0923 C.ar      1 RES1    0.0000
     17 C10        9.2150   11.3716    5.9432 C.ar      1 RES1    0.0000
     18 C11        8.4334   11.1101    4.8683 C.ar      1 RES1    0.0000
     19 C12        7.3905   10.1551    4.9535 C.ar      1 RES1    0.0000
     20 C13        7.6705    2.9866    4.8077 C.2       1 RES1    0.0000
     21 C14        8.2923    1.0794    6.0483 C.3       1 RES1    0.0000
     22 C15        7.3045    0.9004    7.1702 C.ar      1 RES1    0.0000
     23 C16        6.6662   -0.3048    7.2900 C.ar      1 RES1    0.0000
     24 C17        5.8427   -0.5327    8.3650 C.ar      1 RES1    0.0000
     25 C18        5.6002    0.4195    9.2670 C.ar      1 RES1    0.0000
     26 C19        6.2065    1.6653    9.1311 C.ar      1 RES1    0.0000
     27 C20        7.0543    1.8806    8.0808 C.ar      1 RES1    0.0000
@<TRIPOS>BOND
     1    1    8 2
     2    2    8 1
     3    3    7 1
     4    4   20 2
     5    5   20 1
     6    6    9 1
     7    7   12 1
     8    8    9 1
     9    9   10 1
    10   10    3 1
    11   11   10 1
    12   12   11 1
    13   13    7 1
    14   14   13 1
    15   15   14 ar
    16   16   15 ar
    17   17   16 ar
    18   18   17 ar
    19   19   14 ar
    20   20    6 1
    21   21    5 1
    22   22   21 1
    23   23   22 ar
    24   24   23 ar
    25   25   24 ar
    26   26   25 ar
    27   27   22 ar
    28   18   19 ar
    29   26   27 ar
@<TRIPOS>SUBSTRUCTURE
     1 RES1 1

@<TRIPOS>CRYSIN
  11.0240   13.9820   12.3560  90.0000  90.0000  90.0000  29 1

