# MOL2 file generated by ConQuest
# Please check atom types

@<TRIPOS>MOLECULE
FIKWED
    47    50     1
SMALL
NO_CHARGES
****
Generated from CSD

@<TRIPOS>ATOM
      1 O1         1.1340    0.9151    7.3026 O.3       1 RES1    0.0000
      2 C1         2.5377    2.1757    5.9192 C.ar      1 RES1    0.0000
      3 N1         3.8922    4.8003    7.0580 N.3       1 RES1    0.0000
      4 N2         4.4067    3.4430    6.9337 N.3       1 RES1    0.0000
      5 O2         0.5248    0.7347    2.5722 O.3       1 RES1    0.0000
      6 C2         1.4605    1.2702    6.0174 C.ar      1 RES1    0.0000
      7 O3         1.3429    6.2938    7.4332 O.3       1 RES1    0.0000
      8 C3         3.2320    2.6000    7.1889 C.3       1 RES1    0.0000
      9 H1         3.5123    1.7882    7.6997 H         1 RES1    0.0000
     10 C4         2.2733    2.1543    3.5064 C.ar      1 RES1    0.0000
     11 H2         2.5502    2.4565    2.6500 H         1 RES1    0.0000
     12 C5         0.8123    0.8024    4.8880 C.ar      1 RES1    0.0000
     13 H3         0.0957    0.1848    4.9654 H         1 RES1    0.0000
     14 C6         1.2275    1.2527    3.6321 C.ar      1 RES1    0.0000
     15 C7         3.0563    4.7766    8.2993 C.3       1 RES1    0.0000
     16 H4         3.6484    4.6826    9.0997 H         1 RES1    0.0000
     17 C8         2.9138    2.6098    4.6636 C.ar      1 RES1    0.0000
     18 H5         3.6260    3.2343    4.5831 H         1 RES1    0.0000
     19 C9         2.2305    5.9996    8.4348 C.2       1 RES1    0.0000
     20 C10        2.2821    3.4642    8.0735 C.3       1 RES1    0.0000
     21 H6         1.4362    3.6540    7.5746 H         1 RES1    0.0000
     22 N3         1.9600    2.8431    9.3990 N.pl3     1 RES1    0.0000
     23 C11        5.1153    5.5995    7.2321 C.3       1 RES1    0.0000
     24 H7         4.9114    6.4503    7.6957 H         1 RES1    0.0000
     25 H8         5.5232    5.8071    6.3544 H         1 RES1    0.0000
     26 O4         2.8442    2.2186    9.9769 O.2       1 RES1    0.0000
     27 C12        5.5140    3.3086    7.9340 C.3       1 RES1    0.0000
     28 H9         6.2134    2.6891    7.6054 H         1 RES1    0.0000
     29 H10        5.1693    2.9720    8.7988 H         1 RES1    0.0000
     30 C13        0.0332    0.0187    7.4837 C.3       1 RES1    0.0000
     31 H11        0.2326   -0.8348    7.0474 H         1 RES1    0.0000
     32 H12       -0.7735    0.4083    7.0861 H         1 RES1    0.0000
     33 H13       -0.1130   -0.1300    8.4414 H         1 RES1    0.0000
     34 C14        1.1799    7.8806    8.9879 C.2       1 RES1    0.0000
     35 H14        0.9066    8.6582    9.4611 H         1 RES1    0.0000
     36 O5         0.8456    3.0415    9.8605 O.2       1 RES1    0.0000
     37 C15        2.1633    6.9352    9.3999 C.2       1 RES1    0.0000
     38 H15        2.6724    6.9612   10.2018 H         1 RES1    0.0000
     39 C16        0.7200    7.4641    7.8129 C.2       1 RES1    0.0000
     40 H16        0.0542    7.9123    7.3046 H         1 RES1    0.0000
     41 C17        6.0690    4.7344    8.0810 C.3       1 RES1    0.0000
     42 H17        6.9962    4.7898    7.7394 H         1 RES1    0.0000
     43 H18        6.0584    5.0225    9.0282 H         1 RES1    0.0000
     44 C18        0.8122    1.2907    1.2921 C.3       1 RES1    0.0000
     45 H19        0.1772    0.9397    0.6335 H         1 RES1    0.0000
     46 H20        1.7242    1.0492    1.0276 H         1 RES1    0.0000
     47 H21        0.7330    2.2672    1.3344 H         1 RES1    0.0000
@<TRIPOS>BOND
     1    1    6 1
     2    2    6 ar
     3    3    4 1
     4    4    8 1
     5    5   14 1
     6    6   12 ar
     7    7   19 1
     8    8    2 1
     9    9    8 1
    10   10   11 1
    11   12   13 1
    12   14   10 ar
    13   15    3 1
    14   16   15 1
    15   17    2 ar
    16   18   17 1
    17   19   15 1
    18   20    8 1
    19   21   20 1
    20   22   20 1
    21   23    3 1
    22   24   23 1
    23   25   23 1
    24   26   22 2
    25   27    4 1
    26   28   27 1
    27   29   27 1
    28   30    1 1
    29   31   30 1
    30   32   30 1
    31   33   30 1
    32   34   35 1
    33   36   22 2
    34   37   19 2
    35   38   37 1
    36   39    7 1
    37   40   39 1
    38   41   23 1
    39   42   41 1
    40   43   41 1
    41   44    5 1
    42   45   44 1
    43   46   44 1
    44   47   44 1
    45   10   17 ar
    46   12   14 ar
    47   15   20 1
    48   27   41 1
    49   34   37 1
    50   34   39 2
@<TRIPOS>SUBSTRUCTURE
     1 RES1 1

@<TRIPOS>CRYSIN
   7.7577   22.8087   10.3037  90.0000 105.5050  90.0000 231 1

