# MOL2 file generated by ConQuest
# Please check atom types

@<TRIPOS>MOLECULE
FILGOY
    42    43     1
SMALL
NO_CHARGES
****
Generated from CSD

@<TRIPOS>ATOM
      1 O1         3.2773    1.5802    7.1720 O.2       1 RES1    0.0000
      2 O2         2.0307    0.3782    5.9102 O.2       1 RES1    0.0000
      3 O3         2.0202    5.5071    1.3261 O.3       1 RES1    0.0000
      4 H1         2.6827    5.8152    1.0918 H         1 RES1    0.0000
      5 O4        -0.9742    7.5931    1.2469 O.2       1 RES1    0.0000
      6 O5         0.2683    9.8352   -0.0696 O.3       1 RES1    0.0000
      7 H2        -0.4794    9.4928   -0.2413 H         1 RES1    0.0000
      8 O6         4.2029   14.5343    3.6973 O.2       1 RES1    0.0000
      9 O7         4.6506   14.8065    1.6026 O.2       1 RES1    0.0000
     10 N1         2.5885    1.4355    6.1832 N.pl3     1 RES1    0.0000
     11 N2         4.0362   14.2679    2.5070 N.pl3     1 RES1    0.0000
     12 C1         2.3772    2.5731    5.2811 C.ar      1 RES1    0.0000
     13 C2         2.8705    3.8008    5.6560 C.ar      1 RES1    0.0000
     14 H3         3.3317    3.9126    6.4784 H         1 RES1    0.0000
     15 C3         2.6746    4.8624    4.8008 C.ar      1 RES1    0.0000
     16 H4         3.0012    5.7220    5.0398 H         1 RES1    0.0000
     17 C4         2.0115    4.6991    3.6012 C.ar      1 RES1    0.0000
     18 C5         1.5228    3.4384    3.2591 C.ar      1 RES1    0.0000
     19 H5         1.0682    3.3152    2.4344 H         1 RES1    0.0000
     20 C6         1.6969    2.3682    4.1143 C.ar      1 RES1    0.0000
     21 H6         1.3521    1.5115    3.8964 H         1 RES1    0.0000
     22 C7         1.7877    5.8753    2.6734 C.3       1 RES1    0.0000
     23 H7         2.4028    6.6218    2.9288 H         1 RES1    0.0000
     24 C8         0.3636    6.3438    2.7648 C.3       1 RES1    0.0000
     25 H8         0.1610    6.5544    3.7113 H         1 RES1    0.0000
     26 H9        -0.2305    5.6003    2.4906 H         1 RES1    0.0000
     27 C9         0.0337    7.5616    1.9189 C.2       1 RES1    0.0000
     28 C10        0.9835    8.7292    1.9752 C.3       1 RES1    0.0000
     29 H10        1.8219    8.4871    1.5066 H         1 RES1    0.0000
     30 H11        1.2083    8.9183    2.9194 H         1 RES1    0.0000
     31 C11        0.4026   10.0014    1.3332 C.3       1 RES1    0.0000
     32 H12       -0.4956   10.1905    1.7315 H         1 RES1    0.0000
     33 C12        1.3191   11.1719    1.5932 C.ar      1 RES1    0.0000
     34 C13        1.3736   11.7163    2.8749 C.ar      1 RES1    0.0000
     35 H13        0.7998   11.3782    3.5520 H         1 RES1    0.0000
     36 C14        2.2468   12.7349    3.1701 C.ar      1 RES1    0.0000
     37 H14        2.2817   13.1017    4.0464 H         1 RES1    0.0000
     38 C15        3.0689   13.2134    2.1767 C.ar      1 RES1    0.0000
     39 C16        3.0178   12.7192    0.8880 C.ar      1 RES1    0.0000
     40 H15        3.5766   13.0788    0.2109 H         1 RES1    0.0000
     41 C17        2.1358   11.6905    0.6068 C.ar      1 RES1    0.0000
     42 H16        2.0917   11.3366   -0.2741 H         1 RES1    0.0000
@<TRIPOS>BOND
     1    1   10 2
     2    2   10 2
     3    3    4 1
     4    5   27 2
     5    6    7 1
     6    8   11 2
     7    9   11 2
     8   10   12 1
     9   11   38 1
    10   12   13 ar
    11   13   14 1
    12   15   13 ar
    13   16   15 1
    14   17   15 ar
    15   18   17 ar
    16   19   18 1
    17   20   12 ar
    18   21   20 1
    19   22    3 1
    20   23   22 1
    21   24   22 1
    22   25   24 1
    23   26   24 1
    24   27   24 1
    25   28   27 1
    26   29   28 1
    27   30   28 1
    28   31    6 1
    29   32   31 1
    30   33   31 1
    31   34   33 ar
    32   35   34 1
    33   36   34 ar
    34   37   36 1
    35   38   36 ar
    36   39   38 ar
    37   40   39 1
    38   41   33 ar
    39   42   41 1
    40   17   22 1
    41   18   20 ar
    42   28   31 1
    43   39   41 ar
@<TRIPOS>SUBSTRUCTURE
     1 RES1 1

@<TRIPOS>CRYSIN
   4.9791   14.3266   23.4670  90.0000  93.2140  90.0000 231 1

