# MOL2 file generated by ConQuest
# Please check atom types

@<TRIPOS>MOLECULE
FIMBEL
    27    28     1
SMALL
USER_CHARGES
****
Generated from CSD

@<TRIPOS>ATOM
      1 C1         1.6229    3.3438   11.4411 C.ar      1 RES1    0.0000
      2 C2         0.7181    3.5004   12.4676 C.ar      1 RES1    0.0000
      3 H1         0.7687    2.9624   13.2244 H         1 RES1    0.0000
      4 C3        -0.2587    4.4589   12.3618 C.ar      1 RES1    0.0000
      5 H2        -0.8763    4.5653   13.0491 H         1 RES1    0.0000
      6 C4        -0.3321    5.2561   11.2579 C.ar      1 RES1    0.0000
      7 H3        -0.9971    5.9030   11.1910 H         1 RES1    0.0000
      8 C5         0.5828    5.0972   10.2450 C.ar      1 RES1    0.0000
      9 H4         0.5346    5.6480    9.4969 H         1 RES1    0.0000
     10 C6         1.5738    4.1346   10.3150 C.ar      1 RES1    0.0000
     11 H5         2.1865    4.0251    9.6238 H         1 RES1    0.0000
     12 C7         5.2719    0.8770    9.8505 C.ar      1 RES1    0.0000
     13 C8         5.3334    1.5361    8.6395 C.ar      1 RES1    0.0000
     14 H6         4.6915    2.1730    8.4216 H         1 RES1    0.0000
     15 C9         6.3466    1.2478    7.7556 C.ar      1 RES1    0.0000
     16 H7         6.3854    1.6955    6.9408 H         1 RES1    0.0000
     17 C10        7.3085    0.3020    8.0593 C.ar      1 RES1    0.0000
     18 H8         7.9973    0.1149    7.4634 H         1 RES1    0.0000
     19 C11        7.2217   -0.3566    9.2677 C.ar      1 RES1    0.0000
     20 H9         7.8552   -1.0028    9.4823 H         1 RES1    0.0000
     21 C12        6.2242   -0.0775   10.1528 C.ar      1 RES1    0.0000
     22 H10        6.1844   -0.5309   10.9644 H         1 RES1    0.0000
     23 N1         2.6175    2.2988   11.5543 N.pl3     1 RES1    1.0000
     24 N2         3.4576    2.1652   10.5989 N.2       1 RES1    0.0000
     25 N3         4.2922    1.1593   10.8006 N.pl3     1 RES1    0.0000
     26 H11        4.2310    0.6826   11.5137 H         1 RES1    0.0000
     27 O1         2.6024    1.5353   12.5991 O.2       1 RES1   -1.0000
@<TRIPOS>BOND
     1    1    2 ar
     2    2    3 1
     3    4    2 ar
     4    5    4 1
     5    6    4 ar
     6    7    6 1
     7    8    6 ar
     8    9    8 1
     9   10    1 ar
    10   11   10 1
    11   12   13 ar
    12   13   14 1
    13   15   13 ar
    14   16   15 1
    15   17   15 ar
    16   18   17 1
    17   19   17 ar
    18   20   19 1
    19   21   12 ar
    20   22   21 1
    21   23    1 1
    22   24   23 2
    23   25   12 1
    24   26   25 1
    25   27   23 1
    26    8   10 ar
    27   19   21 ar
    28   24   25 1
@<TRIPOS>SUBSTRUCTURE
     1 RES1 1

@<TRIPOS>CRYSIN
   5.4917   16.1489   12.4976  90.0000 100.3820  90.0000 231 1

