# MOL2 file generated by ConQuest
# Please check atom types

@<TRIPOS>MOLECULE
FIMKER
    35    39     1
SMALL
NO_CHARGES
****
Generated from CSD

@<TRIPOS>ATOM
      1 C1        -0.9373    3.5840    4.6441 C.3       1 RES1    0.0000
      2 C2         0.4928    3.1655    4.2337 C.3       1 RES1    0.0000
      3 C3         0.9223    3.7061    2.8961 C.2       1 RES1    0.0000
      4 N1         1.0047    2.8373    1.9728 N.2       1 RES1    0.0000
      5 O1         0.6694    1.5588    2.4884 O.3       1 RES1    0.0000
      6 C4         0.3408    1.6745    3.9018 C.3       1 RES1    0.0000
      7 C5        -1.1407    1.3960    4.1599 C.3       1 RES1    0.0000
      8 C6        -1.3365    1.4669    5.6622 C.3       1 RES1    0.0000
      9 C7        -1.2141    2.9531    6.0164 C.3       1 RES1    0.0000
     10 C8        -1.7860    2.7124    3.7149 C.3       1 RES1    0.0000
     11 C9         1.2279    5.1319    2.6275 C.ar      1 RES1    0.0000
     12 C10        1.3762    5.5892    1.3193 C.ar      1 RES1    0.0000
     13 C11        1.6786    6.9230    1.0775 C.ar      1 RES1    0.0000
     14 C12        1.8121    7.8014    2.1172 C.ar      1 RES1    0.0000
     15 C13        1.6734    7.3662    3.4143 C.ar      1 RES1    0.0000
     16 C14        1.3715    6.0272    3.6646 C.ar      1 RES1    0.0000
     17 C15       -0.8916    0.3668    6.5764 C.3       1 RES1    0.0000
     18 C16       -2.3545    0.6075    6.3529 C.3       1 RES1    0.0000
     19 H1        -1.0722    4.5422    4.6330 H         1 RES1    0.0000
     20 H2         1.1185    3.4488    4.9329 H         1 RES1    0.0000
     21 H3         0.8971    1.0649    4.4187 H         1 RES1    0.0000
     22 H4        -1.4615    0.5701    3.7417 H         1 RES1    0.0000
     23 H5        -0.4998    3.1302    6.6404 H         1 RES1    0.0000
     24 H6        -2.0389    3.3043    6.3973 H         1 RES1    0.0000
     25 H7        -1.6471    2.9087    2.7811 H         1 RES1    0.0000
     26 H8        -2.7271    2.7569    3.9070 H         1 RES1    0.0000
     27 H9         1.2643    4.9674    0.5705 H         1 RES1    0.0000
     28 H10        1.8083    7.2442    0.1660 H         1 RES1    0.0000
     29 H11        2.0323    8.7290    1.9434 H         1 RES1    0.0000
     30 H12        1.7611    8.0165    4.1429 H         1 RES1    0.0000
     31 H13        1.2622    5.7095    4.5886 H         1 RES1    0.0000
     32 H14       -0.4599   -0.4238    6.2235 H         1 RES1    0.0000
     33 H15       -0.4843    0.5752    7.4311 H         1 RES1    0.0000
     34 H16       -2.9191    0.9739    7.0521 H         1 RES1    0.0000
     35 H17       -2.8952   -0.0260    5.8445 H         1 RES1    0.0000
@<TRIPOS>BOND
     1    1    2 1
     2    2    3 1
     3    3    4 2
     4    4    5 1
     5    5    6 1
     6    6    2 1
     7    7    6 1
     8    8    7 1
     9    9    1 1
    10   10    1 1
    11   11    3 1
    12   12   11 ar
    13   13   12 ar
    14   14   13 ar
    15   15   14 ar
    16   16   11 ar
    17   17    8 1
    18   18    8 1
    19   19    1 1
    20   20    2 1
    21   21    6 1
    22   22    7 1
    23   23    9 1
    24   24    9 1
    25   25   10 1
    26   26   10 1
    27   27   12 1
    28   28   13 1
    29   29   14 1
    30   30   15 1
    31   31   16 1
    32   32   17 1
    33   33   17 1
    34   34   18 1
    35   35   18 1
    36    7   10 1
    37    8    9 1
    38   15   16 ar
    39   17   18 1
@<TRIPOS>SUBSTRUCTURE
     1 RES1 1

@<TRIPOS>CRYSIN
   9.8600   11.0160    6.5970  95.2000  82.3900 116.0700   2 1

