# MOL2 file generated by ConQuest
# Please check atom types

@<TRIPOS>MOLECULE
FIMWUV
    49    36     2
SMALL
NO_CHARGES
****
Generated from CSD

@<TRIPOS>ATOM
      1 N1         0.8660    2.5235    2.1751 N.3       1 RES1    0.0000
      2 N2         2.3175    2.5651    3.7728 N.3       1 RES1    0.0000
      3 C1         1.5677    1.7675    3.0178 C.2       1 RES1    0.0000
      4 C2         1.1957    3.8619    2.3796 C.2       1 RES1    0.0000
      5 C3         2.1072    3.8823    3.3901 C.2       1 RES1    0.0000
      6 C4        -0.0831    1.9426    1.1897 C.3       1 RES1    0.0000
      7 H1        -0.1624    0.9261    1.4703 H         1 RES1    0.0000
      8 C5         0.4678    2.0600   -0.2121 C.3       1 RES1    0.0000
      9 H2         0.6033    2.9963   -0.4290 H         1 RES1    0.0000
     10 H3        -0.1593    1.6704   -0.8405 H         1 RES1    0.0000
     11 H4         1.3147    1.5902   -0.2666 H         1 RES1    0.0000
     12 C6        -1.4683    2.4700    1.3540 C.3       1 RES1    0.0000
     13 H5        -1.7917    2.2577    2.2439 H         1 RES1    0.0000
     14 H6        -2.0488    2.0623    0.6924 H         1 RES1    0.0000
     15 H7        -1.4644    3.4322    1.2322 H         1 RES1    0.0000
     16 C7         0.6674    5.0021    1.5976 C.3       1 RES1    0.0000
     17 H8         1.0769    5.8243    1.9081 H         1 RES1    0.0000
     18 H9        -0.2943    5.0552    1.7128 H         1 RES1    0.0000
     19 H10        0.8738    4.8734    0.6584 H         1 RES1    0.0000
     20 C8         2.7592    5.0507    4.0274 C.3       1 RES1    0.0000
     21 H11        2.5384    5.8548    3.5321 H         1 RES1    0.0000
     22 H12        3.7209    4.9242    4.0270 H         1 RES1    0.0000
     23 H13        2.4458    5.1376    4.9410 H         1 RES1    0.0000
     24 C9         3.2102    1.8477    4.7720 C.3       1 RES1    0.0000
     25 H14        2.9700    0.8900    4.8433 H         1 RES1    0.0000
     26 C10        4.6489    2.0239    4.2464 C.3       1 RES1    0.0000
     27 H15        4.8750    2.9669    4.2344 H         1 RES1    0.0000
     28 H16        4.7106    1.6647    3.3467 H         1 RES1    0.0000
     29 H17        5.2651    1.5507    4.8269 H         1 RES1    0.0000
     30 C11        3.1089    2.5502    6.1403 C.3       1 RES1    0.0000
     31 H18        3.5275    3.4232    6.0865 H         1 RES1    0.0000
     32 H19        3.5603    2.0160    6.8118 H         1 RES1    0.0000
     33 H20        2.1754    2.6530    6.3817 H         1 RES1    0.0000
     34 O1         2.6193    0.0147    1.6229 O.2       1 RES1    0.0000
     35 N3         1.2907    0.2880    3.2501 N.2       1 RES1    0.0000
     36 N4         1.9259   -0.5037    2.5215 N.2       1 RES1    0.0000
     37 C12        3.4213    2.4734    4.8192 Du        2 SUP2    0.0000
     38 H21        3.8047    3.3746    4.9673 Du        2 SUP2    0.0000
     39 C13        4.5224    1.5326    4.3013 Du        2 SUP2    0.0000
     40 H22        4.1246    0.6957    4.0160 Du        2 SUP2    0.0000
     41 H23        5.1613    1.3621    5.0101 Du        2 SUP2    0.0000
     42 H24        4.9753    1.9471    3.5508 Du        2 SUP2    0.0000
     43 C14        2.7644    2.0103    6.0646 Du        2 SUP2    0.0000
     44 H25        2.2570    1.2039    5.8824 Du        2 SUP2    0.0000
     45 H26        2.1658    2.7004    6.3916 Du        2 SUP2    0.0000
     46 H27        3.4388    1.8229    6.7361 Du        2 SUP2    0.0000
     47 O2         2.3099   -1.2841    2.1133 Du        2 SUP2    0.0000
     48 N5         2.2311   -0.0192    2.1188 Du        2 SUP2    0.0000
     49 N6         1.7025    0.5749    3.2468 Du        2 SUP2    0.0000
@<TRIPOS>BOND
     1    1    3 1
     2    2    3 1
     3    3   35 2
     4    4    1 1
     5    5    2 1
     6    6    1 1
     7    7    6 1
     8    8    6 1
     9    9    8 1
    10   10    8 1
    11   11    8 1
    12   12    6 1
    13   13   12 1
    14   14   12 1
    15   15   12 1
    16   16    4 1
    17   17   16 1
    18   18   16 1
    19   19   16 1
    20   20    5 1
    21   21   20 1
    22   22   20 1
    23   23   20 1
    24   24    2 1
    25   25   24 1
    26   26   24 1
    27   27   26 1
    28   28   26 1
    29   29   26 1
    30   30   24 1
    31   31   30 1
    32   32   30 1
    33   33   30 1
    34   34   36 2
    35   35   36 1
    36    4    5 2
@<TRIPOS>SUBSTRUCTURE
     1 RES1 1
     2 SUP2 37

@<TRIPOS>CRYSIN
  10.0480   11.2940   11.3210  90.0000 104.2500  90.0000  14 1

