# MOL2 file generated by ConQuest
# Please check atom types

@<TRIPOS>MOLECULE
FINFUE
    23    23     1
SMALL
NO_CHARGES
****
Generated from CSD

@<TRIPOS>ATOM
      1 O1         3.7330    0.4288    3.8266 O.2       1 RES1    0.0000
      2 O2         5.6219    1.4967    3.9687 O.2       1 RES1    0.0000
      3 O3         6.2929    1.4377    6.7760 O.2       1 RES1    0.0000
      4 O4         5.4732    3.4151    6.4540 O.2       1 RES1    0.0000
      5 O5         3.9046   -0.7370    6.2015 O.2       1 RES1    0.0000
      6 O6         3.7072    0.6565    7.8551 O.2       1 RES1    0.0000
      7 N1         2.9721    3.1473    4.4831 N.ar      1 RES1    0.0000
      8 N2         4.5611    1.1114    4.3980 N.pl3     1 RES1    0.0000
      9 N3         5.4318    2.2143    6.4102 N.pl3     1 RES1    0.0000
     10 N4         3.8988    0.3660    6.6815 N.pl3     1 RES1    0.0000
     11 C1         3.0113    2.5561    5.6742 C.ar      1 RES1    0.0000
     12 C2         2.1333    2.8323    6.7012 C.ar      1 RES1    0.0000
     13 H1         2.2114    2.4041    7.5460 H         1 RES1    0.0000
     14 C3         1.1334    3.7571    6.4554 C.ar      1 RES1    0.0000
     15 H2         0.5014    3.9597    7.1360 H         1 RES1    0.0000
     16 C4         1.0463    4.3858    5.2328 C.ar      1 RES1    0.0000
     17 C5         2.0063    4.0434    4.2830 C.ar      1 RES1    0.0000
     18 H3         1.9703    4.4763    3.4380 H         1 RES1    0.0000
     19 C6         4.1629    1.5849    5.7969 C.3       1 RES1    0.0000
     20 C7        -0.0252    5.3841    4.9051 C.3       1 RES1    0.0000
     21 H4        -0.8497    4.9117    4.6657 H         1 RES1    0.0000
     22 H5         0.2646    5.9378    4.1508 H         1 RES1    0.0000
     23 H6        -0.1891    5.9543    5.6846 H         1 RES1    0.0000
@<TRIPOS>BOND
     1    1    8 2
     2    2    8 2
     3    3    9 2
     4    4    9 2
     5    5   10 2
     6    6   10 2
     7    7   11 ar
     8    8   19 1
     9    9   19 1
    10   10   19 1
    11   11   12 ar
    12   12   13 1
    13   14   12 ar
    14   15   14 1
    15   16   14 ar
    16   17    7 ar
    17   18   17 1
    18   19   11 1
    19   20   16 1
    20   21   20 1
    21   22   20 1
    22   23   20 1
    23   16   17 ar
@<TRIPOS>SUBSTRUCTURE
     1 RES1 1

@<TRIPOS>CRYSIN
   8.0407   11.7673   11.2852  90.0000 108.4760  90.0000  14 1

