# MOL2 file generated by ConQuest
# Please check atom types

@<TRIPOS>MOLECULE
FINMUK
    68    73     1
SMALL
USER_CHARGES
****
Generated from CSD

@<TRIPOS>ATOM
      1 O1         8.8480    5.5272    0.9599 O.2       1 RES1   -1.0000
      2 O2         5.1098    6.8098   -1.6683 O.2       1 RES1    0.0000
      3 O3         0.6113    3.7775   -3.4738 O.3       1 RES1    0.0000
      4 O4        12.6780    2.0295   -7.9204 O.3       1 RES1    0.0000
      5 N1         8.0015    5.6066   -0.0163 N.pl3     1 RES1    1.0000
      6 N2         5.9991    4.8908   -4.2475 N.3       1 RES1    0.0000
      7 N3         8.3239    4.1890   -5.2106 N.2       1 RES1    0.0000
      8 C1         6.7121    6.3640    0.1322 C.3       1 RES1    0.0000
      9 C2         6.1188    6.2291   -1.3108 C.2       1 RES1    0.0000
     10 C3         7.0296    5.3947   -2.0780 C.2       1 RES1    0.0000
     11 C4         7.0342    4.9407   -3.3856 C.2       1 RES1    0.0000
     12 C5         8.3261    4.4376   -3.9423 C.2       1 RES1    0.0000
     13 C6         9.4121    4.1808   -3.0102 C.2       1 RES1    0.0000
     14 C7         9.3378    4.4843   -1.7059 C.2       1 RES1    0.0000
     15 C8         8.1714    5.1436   -1.2423 C.2       1 RES1    0.0000
     16 C9         5.8253    5.7055    1.1868 C.ar      1 RES1    0.0000
     17 C10        4.5437    5.2687    0.9076 C.ar      1 RES1    0.0000
     18 C11        3.7512    4.7010    1.9066 C.ar      1 RES1    0.0000
     19 C12        4.2369    4.5514    3.1734 C.ar      1 RES1    0.0000
     20 C13        5.5039    4.9644    3.4558 C.ar      1 RES1    0.0000
     21 C14        6.3029    5.5428    2.4829 C.ar      1 RES1    0.0000
     22 C15        4.6148    4.7346   -3.9716 C.ar      1 RES1    0.0000
     23 C16        4.1637    4.0057   -2.8796 C.ar      1 RES1    0.0000
     24 C17        2.8196    3.7121   -2.7441 C.ar      1 RES1    0.0000
     25 C18        1.9116    4.1456   -3.6925 C.ar      1 RES1    0.0000
     26 C19        2.3490    4.8884   -4.7650 C.ar      1 RES1    0.0000
     27 C20        3.6994    5.1763   -4.9021 C.ar      1 RES1    0.0000
     28 C21       -0.3754    4.3092   -4.3520 C.3       1 RES1    0.0000
     29 C22        9.4905    3.7121   -5.8636 C.ar      1 RES1    0.0000
     30 C23       10.7192    4.3329   -5.8097 C.ar      1 RES1    0.0000
     31 C24       11.8100    3.8012   -6.4986 C.ar      1 RES1    0.0000
     32 C25       11.6547    2.6446   -7.2266 C.ar      1 RES1    0.0000
     33 C26       10.4280    2.0278   -7.3099 C.ar      1 RES1    0.0000
     34 C27        9.3441    2.5783   -6.6635 C.ar      1 RES1    0.0000
     35 C28       13.9614    2.6151   -7.8551 C.3       1 RES1    0.0000
     36 C29        7.0650    7.8127    0.4554 C.ar      1 RES1    0.0000
     37 C30        6.2119    8.6037    1.1900 C.ar      1 RES1    0.0000
     38 C31        6.5365    9.9232    1.4757 C.ar      1 RES1    0.0000
     39 C32        7.7161   10.4565    1.0284 C.ar      1 RES1    0.0000
     40 C33        8.5737    9.6843    0.2889 C.ar      1 RES1    0.0000
     41 C34        8.2494    8.3649    0.0000 C.ar      1 RES1    0.0000
     42 H1         6.2793    4.6462   -5.0278 H         1 RES1    0.0000
     43 H2        10.2008    3.7219   -3.3628 H         1 RES1    0.0000
     44 H3        10.0739    4.3190   -1.1427 H         1 RES1    0.0000
     45 H4         4.1945    5.3906    0.0326 H         1 RES1    0.0000
     46 H5         2.8301    4.4417    1.6814 H         1 RES1    0.0000
     47 H6         3.5900    4.1636    3.8688 H         1 RES1    0.0000
     48 H7         5.9038    4.8671    4.3422 H         1 RES1    0.0000
     49 H8         7.2075    5.8487    2.6771 H         1 RES1    0.0000
     50 H9         4.7956    3.6810   -2.2037 H         1 RES1    0.0000
     51 H10        2.5154    3.1575   -1.9426 H         1 RES1    0.0000
     52 H11        1.7415    5.2434   -5.4686 H         1 RES1    0.0000
     53 H12        4.0175    5.6687   -5.6644 H         1 RES1    0.0000
     54 H13       -0.1489    3.9019   -5.1910 H         1 RES1    0.0000
     55 H14       -1.1311    3.9019   -4.0320 H         1 RES1    0.0000
     56 H15       -0.3645    5.4561   -4.1137 H         1 RES1    0.0000
     57 H16       10.8246    5.1943   -5.3216 H         1 RES1    0.0000
     58 H17       12.6448    4.2454   -6.3990 H         1 RES1    0.0000
     59 H18       10.3354    1.1534   -7.8682 H         1 RES1    0.0000
     60 H19        8.4481    2.1023   -6.7092 H         1 RES1    0.0000
     61 H20       14.1986    2.7894   -6.8724 H         1 RES1    0.0000
     62 H21       13.9616    3.5910   -8.2600 H         1 RES1    0.0000
     63 H22       14.5235    2.0123   -8.3579 H         1 RES1    0.0000
     64 H23        5.3735    8.2127    1.4855 H         1 RES1    0.0000
     65 H24        5.9354   10.4622    2.0079 H         1 RES1    0.0000
     66 H25        7.9591   11.3947    1.2733 H         1 RES1    0.0000
     67 H26        9.3635   10.0287   -0.0490 H         1 RES1    0.0000
     68 H27        8.9218    7.7792   -0.5224 H         1 RES1    0.0000
@<TRIPOS>BOND
     1    1    5 1
     2    2    9 2
     3    3   25 1
     4    4   32 1
     5    5    8 1
     6    6   11 1
     7    7   12 2
     8    8    9 1
     9    9   10 1
    10   10   11 2
    11   11   12 1
    12   12   13 1
    13   13   14 2
    14   14   15 1
    15   15    5 2
    16   16    8 1
    17   17   16 ar
    18   18   17 ar
    19   19   18 ar
    20   20   19 ar
    21   21   16 ar
    22   22    6 1
    23   23   22 ar
    24   24   23 ar
    25   25   24 ar
    26   26   25 ar
    27   27   22 ar
    28   28    3 1
    29   29    7 1
    30   30   29 ar
    31   31   30 ar
    32   32   31 ar
    33   33   32 ar
    34   34   29 ar
    35   35    4 1
    36   36    8 1
    37   37   36 ar
    38   38   37 ar
    39   39   38 ar
    40   40   39 ar
    41   41   36 ar
    42   42    6 1
    43   43   13 1
    44   44   14 1
    45   45   17 1
    46   46   18 1
    47   47   19 1
    48   48   20 1
    49   49   21 1
    50   50   23 1
    51   51   24 1
    52   52   26 1
    53   53   27 1
    54   54   28 1
    55   55   28 1
    56   56   28 1
    57   57   30 1
    58   58   31 1
    59   59   33 1
    60   60   34 1
    61   61   35 1
    62   62   35 1
    63   63   35 1
    64   64   37 1
    65   65   38 1
    66   66   39 1
    67   67   40 1
    68   68   41 1
    69   10   15 1
    70   20   21 ar
    71   26   27 ar
    72   33   34 ar
    73   40   41 ar
@<TRIPOS>SUBSTRUCTURE
     1 RES1 1

@<TRIPOS>CRYSIN
  20.5720    8.1800   16.3600  90.0000  93.8000  90.0000 231 1

