# MOL2 file generated by ConQuest
# Please check atom types

@<TRIPOS>MOLECULE
FINNIA
    31    32     1
SMALL
NO_CHARGES
****
Generated from CSD

@<TRIPOS>ATOM
      1 H1        -0.2736    5.2331   23.8094 H         1 RES1    0.0000
      2 H2         0.8002    2.9595   24.6133 H         1 RES1    0.0000
      3 H3         2.4343    4.6107   26.3863 H         1 RES1    0.0000
      4 H4         3.4277    0.9844   21.1065 H         1 RES1    0.0000
      5 H5         2.9782    1.7338   17.2085 H         1 RES1    0.0000
      6 H6        -0.0947    6.7382   25.6128 H         1 RES1    0.0000
      7 H7         0.8382    6.3000   23.3162 H         1 RES1    0.0000
      8 H8         2.4737    2.8515   24.6807 H         1 RES1    0.0000
      9 H9         2.5388    2.4578   22.8164 H         1 RES1    0.0000
     10 H10        1.5958    6.5096   25.6302 H         1 RES1    0.0000
     11 H11        1.7235    3.7406   17.6691 H         1 RES1    0.0000
     12 H12        1.3898    3.4231   26.8491 H         1 RES1    0.0000
     13 H13        1.3595    4.8901   20.8609 H         1 RES1    0.0000
     14 C1         3.2637    1.2092   19.1103 C.ar      1 RES1    0.0000
     15 O1         1.3601    4.7352   19.9475 O.3       1 RES1    0.0000
     16 N1         1.7636    4.2303   22.4938 N.2       1 RES1    0.0000
     17 N2         1.6716    4.5827   23.8311 N.3       1 RES1    0.0000
     18 C2         3.0809    1.5648   20.4249 C.ar      1 RES1    0.0000
     19 O2         0.4638    5.0235   26.3396 O.3       1 RES1    0.0000
     20 C3         2.2677    3.0960   22.1607 C.2       1 RES1    0.0000
     21 N3         3.9510   -0.0298   18.8063 N.pl3     1 RES1    0.0000
     22 C4         2.4499    2.7531   20.7553 C.ar      1 RES1    0.0000
     23 C5         1.9942    3.5698   19.7094 C.ar      1 RES1    0.0000
     24 C6         1.6137    3.5025   24.8106 C.3       1 RES1    0.0000
     25 O3         4.0744   -0.3626   17.6220 O.2       1 RES1    0.0000
     26 O4         4.4122   -0.7024   19.7226 O.2       1 RES1    0.0000
     27 C7         0.6214    5.5944   23.9956 C.3       1 RES1    0.0000
     28 C8         2.1719    3.1881   18.3757 C.ar      1 RES1    0.0000
     29 C9         2.8172    2.0170   18.0772 C.ar      1 RES1    0.0000
     30 C10        0.6486    6.1025   25.4236 C.3       1 RES1    0.0000
     31 C11        1.5224    4.0994   26.1999 C.3       1 RES1    0.0000
@<TRIPOS>BOND
     1    1   27 1
     2    2   24 1
     3    3   31 1
     4    4   18 1
     5    5   29 1
     6    6   30 1
     7    7   27 1
     8    8   24 1
     9    9   20 1
    10   10   30 1
    11   11   28 1
    12   12   31 1
    13   13   15 1
    14   14   18 ar
    15   15   23 1
    16   16   17 1
    17   17   24 1
    18   18   22 ar
    19   19   30 1
    20   20   16 2
    21   21   14 1
    22   22   20 1
    23   23   22 ar
    24   24   31 1
    25   25   21 2
    26   26   21 2
    27   27   17 1
    28   28   23 ar
    29   29   14 ar
    30   30   27 1
    31   31   19 1
    32   28   29 ar
@<TRIPOS>SUBSTRUCTURE
     1 RES1 1

@<TRIPOS>CRYSIN
   8.4105    6.3508   21.7280  90.0000  90.1930  90.0000  14 1

