# MOL2 file generated by ConQuest
# Please check atom types

@<TRIPOS>MOLECULE
FINVEG
    62    66     2
SMALL
NO_CHARGES
****
Generated from CSD

@<TRIPOS>ATOM
      1 O1        15.1006    7.0006    2.5566 O.3       1 RES1    0.0000
      2 O2        13.3909    8.8737    3.1395 O.2       1 RES1    0.0000
      3 O3        14.9158   10.4179    2.9577 O.2       1 RES1    0.0000
      4 N1        13.7112    4.6295    2.6312 N.3       1 RES1    0.0000
      5 N2        17.2898    4.2252    1.9203 N.ar      1 RES1    0.0000
      6 N3        16.2684    2.0877    1.9378 N.ar      1 RES1    0.0000
      7 N4        14.5266    9.2511    2.8912 N.pl3     1 RES1    0.0000
      8 C1        14.9293    4.0540    2.3452 C.ar      1 RES1    0.0000
      9 C2        12.4678    4.0181    2.8834 C.ar      1 RES1    0.0000
     10 C3        16.1985    6.2688    2.1814 C.2       1 RES1    0.0000
     11 C4        16.1032    4.8121    2.1652 C.ar      1 RES1    0.0000
     12 C5        15.4949    8.2942    2.4954 C.2       1 RES1    0.0000
     13 C6        12.3240    2.8067    3.5507 C.ar      1 RES1    0.0000
     14 H1        13.0772    2.3389    3.8325 H         1 RES1    0.0000
     15 C7        15.1001    2.6660    2.1704 C.ar      1 RES1    0.0000
     16 H2        14.3462    2.1234    2.2215 H         1 RES1    0.0000
     17 C8        17.3206    2.9087    1.8440 C.ar      1 RES1    0.0000
     18 H3        18.1522    2.5145    1.7133 H         1 RES1    0.0000
     19 C9        16.7767    8.4209    2.1018 C.2       1 RES1    0.0000
     20 H4        17.2580    9.2100    1.9959 H         1 RES1    0.0000
     21 C10       17.2320    7.1073    1.8856 C.2       1 RES1    0.0000
     22 H5        18.0804    6.8571    1.5949 H         1 RES1    0.0000
     23 C11       11.3252    4.7116    2.5115 C.ar      1 RES1    0.0000
     24 H6        11.4020    5.5320    2.0813 H         1 RES1    0.0000
     25 C12       11.0625    2.2954    3.7968 C.ar      1 RES1    0.0000
     26 H7        10.9772    1.4768    4.2306 H         1 RES1    0.0000
     27 C13        9.9315    2.9747    3.4097 C.ar      1 RES1    0.0000
     28 H8         9.0872    2.6203    3.5740 H         1 RES1    0.0000
     29 C14       10.0678    4.1883    2.7766 C.ar      1 RES1    0.0000
     30 H9         9.3087    4.6639    2.5239 H         1 RES1    0.0000
     31 H10       13.6384    5.4082    2.4830 H         1 RES1    0.0000
     32 O4         4.8567    4.9193    1.5948 O.3       2 RES2    0.0000
     33 O5         5.2120    1.5163    1.9513 O.2       2 RES2    0.0000
     34 O6         6.4831    3.1569    2.5684 O.2       2 RES2    0.0000
     35 N5         2.7323    7.5907    0.4761 N.ar      2 RES2    0.0000
     36 N6         5.9996    7.3225    2.1463 N.3       2 RES2    0.0000
     37 C15        3.8399    5.5944    0.9595 C.2       2 RES2    0.0000
     38 N7         3.4911    9.7602    1.0611 N.ar      2 RES2    0.0000
     39 C16        3.8436    7.0491    1.0180 C.ar      2 RES2    0.0000
     40 N8         5.4900    2.7041    2.0185 N.pl3     2 RES2    0.0000
     41 C17        7.2489    7.9629    2.3435 C.ar      2 RES2    0.0000
     42 C18        4.5753    3.6097    1.4153 C.2       2 RES2    0.0000
     43 C19        4.8529    7.8489    1.5869 C.ar      2 RES2    0.0000
     44 C20        2.9732    4.7106    0.4046 C.2       2 RES2    0.0000
     45 H11        2.2075    4.9173   -0.0818 H         2 RES2    0.0000
     46 C21        7.6647    9.0601    1.6176 C.ar      2 RES2    0.0000
     47 H12        7.1089    9.4255    0.9676 H         2 RES2    0.0000
     48 C22        2.6295    8.9068    0.5054 C.ar      2 RES2    0.0000
     49 H13        1.8808    9.2758    0.0971 H         2 RES2    0.0000
     50 C23        3.4530    3.4176    0.7069 C.2       2 RES2    0.0000
     51 H14        3.0714    2.6043    0.4659 H         2 RES2    0.0000
     52 C24        9.7556    9.0551    2.7780 C.ar      2 RES2    0.0000
     53 H15       10.5958    9.4255    2.9255 H         2 RES2    0.0000
     54 C25        4.5729    9.2245    1.6037 C.ar      2 RES2    0.0000
     55 H16        5.1820    9.7907    2.0185 H         2 RES2    0.0000
     56 C26        8.9034    9.6161    1.8549 C.ar      2 RES2    0.0000
     57 H17        9.1647   10.3774    1.3883 H         2 RES2    0.0000
     58 C27        8.0995    7.4049    3.2826 C.ar      2 RES2    0.0000
     59 H18        7.8241    6.6695    3.7807 H         2 RES2    0.0000
     60 C28        9.3587    7.9425    3.4798 C.ar      2 RES2    0.0000
     61 H19        9.9385    7.5496    4.0911 H         2 RES2    0.0000
     62 H20        5.9583    6.4879    2.2566 H         2 RES2    0.0000
@<TRIPOS>BOND
     1    1   10 1
     2    2    7 2
     3    3    7 2
     4    4    8 1
     5    5   11 ar
     6    6   15 ar
     7    7   12 1
     8    8   11 ar
     9    9    4 1
    10   10   11 1
    11   12    1 1
    12   13    9 ar
    13   14   13 1
    14   15    8 ar
    15   16   15 1
    16   17    5 ar
    17   18   17 1
    18   19   12 2
    19   20   19 1
    20   21   10 2
    21   22   21 1
    22   23    9 ar
    23   24   23 1
    24   25   13 ar
    25   26   25 1
    26   27   25 ar
    27   28   27 1
    28   29   23 ar
    29   30   29 1
    30   31    4 1
    31   32   37 1
    32   33   40 2
    33   34   40 2
    34   35   39 ar
    35   36   41 1
    36   37   39 1
    37   38   48 ar
    38   39   43 ar
    39   40   42 1
    40   41   46 ar
    41   42   32 1
    42   43   36 1
    43   44   37 2
    44   45   44 1
    45   46   47 1
    46   48   35 ar
    47   49   48 1
    48   50   42 2
    49   51   50 1
    50   52   53 1
    51   54   38 ar
    52   55   54 1
    53   56   46 ar
    54   57   56 1
    55   58   41 ar
    56   59   58 1
    57   60   52 ar
    58   61   60 1
    59   62   36 1
    60    6   17 ar
    61   19   21 1
    62   27   29 ar
    63   43   54 ar
    64   44   50 1
    65   52   56 ar
    66   58   60 ar
@<TRIPOS>SUBSTRUCTURE
     1 RES1 1
     2 RES2 32

@<TRIPOS>CRYSIN
  17.5800   19.9566    7.4025  90.0000  99.4110  90.0000  14 1

