# MOL2 file generated by ConQuest
# Please check atom types

@<TRIPOS>MOLECULE
FINWOO
    27    27     1
SMALL
NO_CHARGES
****
Generated from CSD

@<TRIPOS>ATOM
      1 O1         3.8772    1.5501    9.3847 O.2       1 RES1    0.0000
      2 O2        -0.0435    1.3892    1.5545 O.2       1 RES1    0.0000
      3 N1         2.7812    2.5513    7.2642 N.pl3     1 RES1    0.0000
      4 N2         1.9620    2.0292    8.2484 N.2       1 RES1    0.0000
      5 N3         2.6264    1.5819    9.2475 N.pl3     1 RES1    0.0000
      6 N4         0.5646    3.5519    1.3636 N.am      1 RES1    0.0000
      7 C1         2.1780    2.5548    5.9949 C.ar      1 RES1    0.0000
      8 C2         2.6212    3.4300    5.0043 C.ar      1 RES1    0.0000
      9 C3         2.0574    3.3986    3.7436 C.ar      1 RES1    0.0000
     10 C4         1.0657    2.4774    3.4198 C.ar      1 RES1    0.0000
     11 C5         0.6369    1.6037    4.4061 C.ar      1 RES1    0.0000
     12 C6         1.1835    1.6341    5.6711 C.ar      1 RES1    0.0000
     13 C7         0.5113    2.5497    2.0262 C.2       1 RES1    0.0000
     14 C8         1.8025    1.0978   10.3646 C.3       1 RES1    0.0000
     15 C9         3.6188    3.7032    7.6480 C.3       1 RES1    0.0000
     16 H1         3.3182    4.0725    5.1887 H         1 RES1    0.0000
     17 H2         2.3634    4.0472    3.0661 H         1 RES1    0.0000
     18 H3        -0.1031    0.9460    4.1810 H         1 RES1    0.0000
     19 H4         0.8723    1.0118    6.2822 H         1 RES1    0.0000
     20 H5         0.8533    1.0927   10.0558 H         1 RES1    0.0000
     21 H6         1.8951    1.7707   11.1279 H         1 RES1    0.0000
     22 H7         2.0525    0.1518   10.6347 H         1 RES1    0.0000
     23 H8         4.5390    3.5919    7.1613 H         1 RES1    0.0000
     24 H9         3.2765    4.5531    7.3757 H         1 RES1    0.0000
     25 H10        3.8230    3.6425    8.4478 H         1 RES1    0.0000
     26 H11        0.9497    4.3285    1.7196 H         1 RES1    0.0000
     27 H12        0.1955    3.5428    0.4867 H         1 RES1    0.0000
@<TRIPOS>BOND
     1    1    5 2
     2    2   13 2
     3    3    4 2
     4    4    5 1
     5    5   14 1
     6    6   13 1
     7    7    3 1
     8    8    7 ar
     9    9    8 ar
    10   10    9 ar
    11   11   10 ar
    12   12    7 ar
    13   13   10 1
    14   14   20 1
    15   15    3 1
    16   16    8 1
    17   17    9 1
    18   18   11 1
    19   19   12 1
    20   21   14 1
    21   22   14 1
    22   23   15 1
    23   24   15 1
    24   25   15 1
    25   26    6 1
    26   27    6 1
    27   11   12 ar
@<TRIPOS>SUBSTRUCTURE
     1 RES1 1

@<TRIPOS>CRYSIN
   9.3450    5.0590   21.5310  90.0000  95.2400  90.0000  14 1

