# MOL2 file generated by ConQuest
# Please check atom types

@<TRIPOS>MOLECULE
FINZUY
   116   120     1
SMALL
NO_CHARGES
****
Generated from CSD

@<TRIPOS>ATOM
      1 O1        14.8763   -1.3216    1.5569 O.2       1 RES1    0.0000
      2 O2        13.8815   -3.0547    0.7336 O.2       1 RES1    0.0000
      3 O3         6.3111   -7.8746   -0.4646 O.2       1 RES1    0.0000
      4 O4         4.1586   -7.7317   -0.4741 O.2       1 RES1    0.0000
      5 N1        13.8694   -1.9366    1.2132 N.pl3     1 RES1    0.0000
      6 N2         5.2562   -7.2399   -0.2826 N.pl3     1 RES1    0.0000
      7 N3         3.3748   11.1902    4.9330 N.3       1 RES1    0.0000
      8 N4        -3.7058    5.3572    4.4955 N.3       1 RES1    0.0000
      9 C1        12.5702   -1.2430    1.3395 C.ar      1 RES1    0.0000
     10 C2        12.5540    0.0711    1.7729 C.ar      1 RES1    0.0000
     11 H1        13.3623    0.5259    1.9794 H         1 RES1    0.0000
     12 C3        11.3264    0.7105    1.8993 C.ar      1 RES1    0.0000
     13 H2        11.2910    1.6175    2.1832 H         1 RES1    0.0000
     14 C4        10.1519    0.0347    1.6126 C.ar      1 RES1    0.0000
     15 C5        10.2081   -1.2887    1.1792 C.ar      1 RES1    0.0000
     16 H3         9.4026   -1.7525    0.9782 H         1 RES1    0.0000
     17 C6        11.4296   -1.9399    1.0407 C.ar      1 RES1    0.0000
     18 H4        11.4716   -2.8426    0.7472 H         1 RES1    0.0000
     19 C7         8.8669    0.6704    1.7593 C.1       1 RES1    0.0000
     20 C8         7.7841    1.1336    1.8898 C.1       1 RES1    0.0000
     21 C9         6.4385    1.6242    2.0419 C.ar      1 RES1    0.0000
     22 C10        5.3558    0.7191    1.8979 C.ar      1 RES1    0.0000
     23 C11        5.5351   -0.6736    1.5977 C.1       1 RES1    0.0000
     24 C12        5.5779   -1.8266    1.3355 C.1       1 RES1    0.0000
     25 C13        5.5064   -3.2127    0.9333 C.ar      1 RES1    0.0000
     26 C14        6.6521   -3.9791    0.7472 C.ar      1 RES1    0.0000
     27 H5         7.5047   -3.5847    0.8899 H         1 RES1    0.0000
     28 C15        6.5759   -5.2850    0.3641 C.ar      1 RES1    0.0000
     29 H6         7.3668   -5.7981    0.2541 H         1 RES1    0.0000
     30 C16        5.3489   -5.8502    0.1413 C.ar      1 RES1    0.0000
     31 C17        4.1863   -5.1190    0.3111 C.ar      1 RES1    0.0000
     32 H7         3.3405   -5.5184    0.1440 H         1 RES1    0.0000
     33 C18        4.2626   -3.8099    0.7200 C.ar      1 RES1    0.0000
     34 H8         3.4675   -3.3093    0.8586 H         1 RES1    0.0000
     35 C19        6.1915    2.9526    2.3530 C.ar      1 RES1    0.0000
     36 H9         6.9236    3.5498    2.4522 H         1 RES1    0.0000
     37 C20        4.0592    1.2221    2.0609 C.ar      1 RES1    0.0000
     38 H10        3.3234    0.6308    1.9482 H         1 RES1    0.0000
     39 C21        3.8024    2.5395    2.3789 C.ar      1 RES1    0.0000
     40 C22        4.8796    3.4355    2.5229 C.ar      1 RES1    0.0000
     41 C23        4.6526    4.8091    2.8693 C.1       1 RES1    0.0000
     42 C24        4.4044    5.9450    3.1763 C.1       1 RES1    0.0000
     43 C25        4.1282    7.2901    3.5907 C.ar      1 RES1    0.0000
     44 C26        5.1103    8.2578    3.5567 C.ar      1 RES1    0.0000
     45 H11        5.9742    8.0310    3.2348 H         1 RES1    0.0000
     46 C27        4.8695    9.5484    3.9806 C.ar      1 RES1    0.0000
     47 H12        5.5679   10.1913    3.9521 H         1 RES1    0.0000
     48 C28        3.5867    9.9257    4.4588 C.ar      1 RES1    0.0000
     49 C29        2.5858    8.9527    4.4208 C.ar      1 RES1    0.0000
     50 H13        1.7047    9.1881    4.6843 H         1 RES1    0.0000
     51 C30        2.8395    7.6702    4.0146 C.ar      1 RES1    0.0000
     52 H14        2.1384    7.0294    4.0173 H         1 RES1    0.0000
     53 C31        4.3387   12.2591    4.7265 C.3       1 RES1    0.0000
     54 H15        3.8525   13.1197    4.6626 H         1 RES1    0.0000
     55 H16        4.8028   12.1114    3.8651 H         1 RES1    0.0000
     56 C32        5.3864   12.3612    5.8473 C.3       1 RES1    0.0000
     57 H17        4.9347   12.6112    6.6923 H         1 RES1    0.0000
     58 H18        5.8058   11.4746    5.9791 H         1 RES1    0.0000
     59 C33        6.4730   13.3876    5.5362 C.3       1 RES1    0.0000
     60 H19        6.9678   13.1023    4.7292 H         1 RES1    0.0000
     61 H20        6.0477   14.2607    5.3392 H         1 RES1    0.0000
     62 C34        7.4554   13.5601    6.6923 C.3       1 RES1    0.0000
     63 H21        6.9841   13.9240    7.4708 H         1 RES1    0.0000
     64 H22        8.1692   14.1762    6.4247 H         1 RES1    0.0000
     65 H23        7.8450   12.6898    6.9219 H         1 RES1    0.0000
     66 C35        2.1755   11.5204    5.7250 C.3       1 RES1    0.0000
     67 H24        2.4353   12.1474    6.4464 H         1 RES1    0.0000
     68 H25        1.8420   10.6930    6.1543 H         1 RES1    0.0000
     69 C36        1.0391   12.1435    4.9289 C.3       1 RES1    0.0000
     70 H26        0.7985   11.5417    4.1803 H         1 RES1    0.0000
     71 H27        1.3443   13.0019    4.5431 H         1 RES1    0.0000
     72 C37       -0.1955   12.3910    5.7916 C.3       1 RES1    0.0000
     73 H28        0.0549   12.9473    6.5714 H         1 RES1    0.0000
     74 H29       -0.5377   11.5251    6.1312 H         1 RES1    0.0000
     75 C38       -1.3100   13.1036    4.9900 C.3       1 RES1    0.0000
     76 H30       -1.0085   14.0027    4.7400 H         1 RES1    0.0000
     77 H31       -2.1171   13.1711    5.5416 H         1 RES1    0.0000
     78 H32       -1.5099   12.5896    4.1803 H         1 RES1    0.0000
     79 C39        2.4504    2.9851    2.6003 C.1       1 RES1    0.0000
     80 C40        1.3482    3.3802    2.8462 C.1       1 RES1    0.0000
     81 C41        0.0231    3.8417    3.2144 C.ar      1 RES1    0.0000
     82 C42       -0.5707    4.9186    2.5758 C.ar      1 RES1    0.0000
     83 H33       -0.1249    5.3277    1.8422 H         1 RES1    0.0000
     84 C43       -1.8057    5.4117    2.9861 C.ar      1 RES1    0.0000
     85 H34       -2.1939    6.1472    2.5256 H         1 RES1    0.0000
     86 C44       -2.4764    4.8416    4.0580 C.ar      1 RES1    0.0000
     87 C45       -1.9051    3.7192    4.6830 C.ar      1 RES1    0.0000
     88 H35       -2.3609    3.2860    5.3962 H         1 RES1    0.0000
     89 C46       -0.6685    3.2450    4.2537 C.ar      1 RES1    0.0000
     90 H36       -0.2892    2.4898    4.6871 H         1 RES1    0.0000
     91 C47       -4.3148    6.5021    3.8583 C.3       1 RES1    0.0000
     92 H37       -5.2938    6.4825    4.0078 H         1 RES1    0.0000
     93 H38       -4.1524    6.4642    2.8829 H         1 RES1    0.0000
     94 C48       -3.7344    7.8099    4.4262 C.3       1 RES1    0.0000
     95 H39       -3.7046    7.6989    5.4098 H         1 RES1    0.0000
     96 H40       -2.7937    7.8547    4.1205 H         1 RES1    0.0000
     97 C49       -4.2289    8.9452    4.2129 C.3       1 RES1    0.0000
     98 H41       -5.1515    8.9121    4.5729 H         1 RES1    0.0000
     99 H42       -4.3174    9.0239    3.2307 H         1 RES1    0.0000
    100 C50       -3.6540   10.2350    4.6776 C.3       1 RES1    0.0000
    101 H43       -3.7639   10.3111    5.6476 H         1 RES1    0.0000
    102 H44       -4.1191   10.9774    4.2374 H         1 RES1    0.0000
    103 H45       -2.7002   10.2664    4.4534 H         1 RES1    0.0000
    104 C51       -4.3180    4.8906    5.7522 C.3       1 RES1    0.0000
    105 H46       -4.7471    5.6617    6.2005 H         1 RES1    0.0000
    106 H47       -3.6024    4.5578    6.3486 H         1 RES1    0.0000
    107 C52       -5.3441    3.8043    5.5756 C.3       1 RES1    0.0000
    108 H48       -4.9381    3.0538    5.0715 H         1 RES1    0.0000
    109 H49       -6.0999    4.1545    5.0416 H         1 RES1    0.0000
    110 C53       -5.8719    3.2844    6.9083 C.3       1 RES1    0.0000
    111 H50       -6.2351    4.0430    7.4300 H         1 RES1    0.0000
    112 H51       -5.1199    2.8950    7.4232 H         1 RES1    0.0000
    113 C54       -6.9593    2.2275    6.7399 C.3       1 RES1    0.0000
    114 H52       -7.6576    2.5702    6.1421 H         1 RES1    0.0000
    115 H53       -7.3507    2.0196    7.6134 H         1 RES1    0.0000
    116 H54       -6.5694    1.4157    6.3540 H         1 RES1    0.0000
@<TRIPOS>BOND
     1    1    5 2
     2    2    5 2
     3    3    6 2
     4    4    6 2
     5    5    9 1
     6    6   30 1
     7    7   48 1
     8    8   86 1
     9    9   10 ar
    10   10   11 1
    11   12   10 ar
    12   13   12 1
    13   14   12 ar
    14   15   14 ar
    15   16   15 1
    16   17    9 ar
    17   18   17 1
    18   19   14 1
    19   20   19 3
    20   21   20 1
    21   22   21 ar
    22   23   22 1
    23   24   23 3
    24   25   24 1
    25   26   25 ar
    26   27   26 1
    27   28   26 ar
    28   29   28 1
    29   30   28 ar
    30   31   30 ar
    31   32   31 1
    32   33   25 ar
    33   34   33 1
    34   35   21 ar
    35   36   35 1
    36   37   22 ar
    37   38   37 1
    38   39   37 ar
    39   40   35 ar
    40   41   40 1
    41   42   41 3
    42   43   42 1
    43   44   43 ar
    44   45   44 1
    45   46   44 ar
    46   47   46 1
    47   48   46 ar
    48   49   48 ar
    49   50   49 1
    50   51   43 ar
    51   52   51 1
    52   53    7 1
    53   54   53 1
    54   55   53 1
    55   56   53 1
    56   57   56 1
    57   58   56 1
    58   59   56 1
    59   60   59 1
    60   61   59 1
    61   62   59 1
    62   63   62 1
    63   64   62 1
    64   65   62 1
    65   66    7 1
    66   67   66 1
    67   68   66 1
    68   69   66 1
    69   70   69 1
    70   71   69 1
    71   72   69 1
    72   73   72 1
    73   74   72 1
    74   75   72 1
    75   76   75 1
    76   77   75 1
    77   78   75 1
    78   79   39 1
    79   80   79 3
    80   81   80 1
    81   82   81 ar
    82   83   82 1
    83   84   82 ar
    84   85   84 1
    85   86   84 ar
    86   87   86 ar
    87   88   87 1
    88   89   81 ar
    89   90   89 1
    90   91    8 1
    91   92   91 1
    92   93   91 1
    93   94   91 1
    94   95   94 1
    95   96   94 1
    96   97   94 1
    97   98   97 1
    98   99   97 1
    99  100   97 1
   100  101  100 1
   101  102  100 1
   102  103  100 1
   103  104    8 1
   104  105  104 1
   105  106  104 1
   106  107  104 1
   107  108  107 1
   108  109  107 1
   109  110  107 1
   110  111  110 1
   111  112  110 1
   112  113  110 1
   113  114  113 1
   114  115  113 1
   115  116  113 1
   116   15   17 ar
   117   31   33 ar
   118   39   40 ar
   119   49   51 ar
   120   87   89 ar
@<TRIPOS>SUBSTRUCTURE
     1 RES1 1

@<TRIPOS>CRYSIN
  13.0010   13.5940   14.8470 112.9130  90.6370 103.5700   2 1

