# MOL2 file generated by ConQuest
# Please check atom types

@<TRIPOS>MOLECULE
FIPROO
    60    64     2
SMALL
NO_CHARGES
****
Generated from CSD

@<TRIPOS>ATOM
      1 C1         5.6406    4.5040    7.5805 C.2       1 RES1    0.0000
      2 C2         5.1696    4.4693    9.0244 C.3       1 RES1    0.0000
      3 H1         4.5418    5.1999    9.2047 H         1 RES1    0.0000
      4 C3         6.7335    3.2186   10.1459 C.3       1 RES1    0.0000
      5 H2         6.6847    3.0400   11.0983 H         1 RES1    0.0000
      6 H3         7.6404    3.0605    9.8405 H         1 RES1    0.0000
      7 C4         5.7505    2.3626    9.3847 C.3       1 RES1    0.0000
      8 H4         5.5461    1.5455    9.8853 H         1 RES1    0.0000
      9 C5         6.2170    2.0238    7.9750 C.3       1 RES1    0.0000
     10 H5         7.1048    1.6369    8.0190 H         1 RES1    0.0000
     11 H6         5.6213    1.3577    7.5959 H         1 RES1    0.0000
     12 C6         6.2492    3.2335    7.0644 C.2       1 RES1    0.0000
     13 C7         6.7972    3.2845    5.8386 C.2       1 RES1    0.0000
     14 H7         6.6974    4.1022    5.4058 H         1 RES1    0.0000
     15 C8         7.5252    2.2718    5.0632 C.ar      1 RES1    0.0000
     16 C9         7.5705    0.9014    5.3676 C.ar      1 RES1    0.0000
     17 H8         7.0937    0.5761    6.0962 H         1 RES1    0.0000
     18 C10        8.3151    0.0333    4.5957 C.ar      1 RES1    0.0000
     19 H9         8.3410   -0.8737    4.8013 H         1 RES1    0.0000
     20 C11        9.0187    0.5258    3.5165 C.ar      1 RES1    0.0000
     21 C12        8.9935    1.8665    3.1692 C.ar      1 RES1    0.0000
     22 H10        9.4714    2.1819    2.4357 H         1 RES1    0.0000
     23 C13        8.2342    2.7197    3.9489 C.ar      1 RES1    0.0000
     24 H11        8.1945    3.6211    3.7229 H         1 RES1    0.0000
     25 N1         9.8218   -0.3947    2.7021 N.pl3     1 RES1    0.0000
     26 O1         5.5368    5.5173    6.9244 O.2       1 RES1    0.0000
     27 O2         6.3153    4.5728    9.8508 O.3       1 RES1    0.0000
     28 O3         4.5872    3.2221    9.3165 O.3       1 RES1    0.0000
     29 O4         9.8883   -1.5710    3.0454 O.2       1 RES1    0.0000
     30 O5        10.3905    0.0475    1.7134 O.2       1 RES1    0.0000
     31 C14        1.4462    2.3087   17.3010 C.2       2 RES2    0.0000
     32 C15        1.0248    2.2570   18.7537 C.3       2 RES2    0.0000
     33 H12        0.9635    1.3294   19.0647 H         2 RES2    0.0000
     34 C16        0.0359    4.2383   19.3216 C.3       2 RES2    0.0000
     35 H13       -0.2699    4.3502   20.2348 H         2 RES2    0.0000
     36 H14       -0.3929    4.9037   18.7605 H         2 RES2    0.0000
     37 C17        1.5419    4.3467   19.2364 C.3       2 RES2    0.0000
     38 H15        1.8826    4.9618   19.9189 H         2 RES2    0.0000
     39 C18        2.0588    4.7364   17.8525 C.3       2 RES2    0.0000
     40 H16        1.5324    5.4798   17.5183 H         2 RES2    0.0000
     41 H17        2.9769    5.0390   17.9356 H         2 RES2    0.0000
     42 C19        2.0052    3.6097   16.8464 C.2       2 RES2    0.0000
     43 C20        2.4929    3.6423   15.5935 C.2       2 RES2    0.0000
     44 H18        2.3576    2.8614   15.1079 H         2 RES2    0.0000
     45 C21        3.1998    4.6946   14.8645 C.ar      2 RES2    0.0000
     46 C22        3.2843    6.0354   15.2588 C.ar      2 RES2    0.0000
     47 H19        2.8452    6.3153   16.0303 H         2 RES2    0.0000
     48 C23        4.0093    6.9466   14.5217 C.ar      2 RES2    0.0000
     49 H20        4.0553    7.8374   14.7861 H         2 RES2    0.0000
     50 C24        4.6669    6.5158   13.3845 C.ar      2 RES2    0.0000
     51 C25        4.5960    5.2048   12.9432 C.ar      2 RES2    0.0000
     52 H21        5.0353    4.9341   12.1690 H         2 RES2    0.0000
     53 C26        3.8513    4.3134   13.6878 C.ar      2 RES2    0.0000
     54 H22        3.7818    3.4326   13.3976 H         2 RES2    0.0000
     55 N2         5.4747    7.4654   12.6197 N.pl3     2 RES2    0.0000
     56 O6         1.3112    1.3237   16.5896 O.2       2 RES2    0.0000
     57 O7        -0.2387    2.9039   18.8436 O.3       2 RES2    0.0000
     58 O8         1.9252    2.9847   19.5404 O.3       2 RES2    0.0000
     59 O9         5.4951    8.6388   12.9783 O.2       2 RES2    0.0000
     60 O10        6.1164    7.0522   11.6711 O.2       2 RES2    0.0000
@<TRIPOS>BOND
     1    1    2 1
     2    2    3 1
     3    4    5 1
     4    6    4 1
     5    7    4 1
     6    8    7 1
     7    9    7 1
     8   10    9 1
     9   11    9 1
    10   12    1 1
    11   13   12 2
    12   14   13 1
    13   15   13 1
    14   16   15 ar
    15   17   16 1
    16   18   16 ar
    17   19   18 1
    18   20   18 ar
    19   21   20 ar
    20   22   21 1
    21   23   15 ar
    22   24   23 1
    23   25   20 1
    24   26    1 2
    25   27    2 1
    26   28    2 1
    27   29   25 2
    28   30   25 2
    29   31   32 1
    30   32   33 1
    31   34   35 1
    32   36   34 1
    33   37   34 1
    34   38   37 1
    35   39   37 1
    36   40   39 1
    37   41   39 1
    38   42   31 1
    39   43   42 2
    40   44   43 1
    41   45   43 1
    42   46   45 ar
    43   47   46 1
    44   48   46 ar
    45   49   48 1
    46   50   48 ar
    47   51   50 ar
    48   52   51 1
    49   53   45 ar
    50   54   53 1
    51   55   50 1
    52   56   31 2
    53   57   32 1
    54   58   32 1
    55   59   55 2
    56   60   55 2
    57    4   27 1
    58    7   28 1
    59    9   12 1
    60   21   23 ar
    61   34   57 1
    62   37   58 1
    63   39   42 1
    64   51   53 ar
@<TRIPOS>SUBSTRUCTURE
     1 RES1 1
     2 RES2 31

@<TRIPOS>CRYSIN
   8.3669    7.0862   19.5336  90.0000  93.2815  90.0000   4 1

