# MOL2 file generated by ConQuest
# Please check atom types

@<TRIPOS>MOLECULE
FIPZIN01
    30    29     1
SMALL
USER_CHARGES
****
Generated from CSD

@<TRIPOS>ATOM
      1 O1         4.2782    0.2269   10.7474 O.2       1 RES1    0.0000
      2 O2         2.9779   -1.9013   15.6681 O.2       1 RES1    0.0000
      3 O3         2.6120   -3.5735    9.6344 O.2       1 RES1    0.0000
      4 O4         1.7704   -1.9770   13.8440 O.2       1 RES1    0.0000
      5 O5         2.0149   -2.7291    7.7097 O.2       1 RES1    0.0000
      6 O6         5.5770   -1.0500   11.9664 O.2       1 RES1    0.0000
      7 N1         3.4859   -1.6692   11.5571 N.3       1 RES1    0.0000
      8 N2         2.2249   -1.4003    9.4906 N.3       1 RES1    0.0000
      9 N3         3.8949   -2.5868   13.7734 N.3       1 RES1    0.0000
     10 N4         2.2761   -2.6328    8.9136 N.pl3     1 RES1    0.0000
     11 N5         0.4875    0.1748    8.7817 N.2       1 RES1    0.0000
     12 N6         4.5085   -0.7742   11.4200 N.pl3     1 RES1    0.0000
     13 N7         5.0538   -4.9637   14.8781 N.1       1 RES1    1.0000
     14 N8         5.1868   -3.8495   15.4123 N.2       1 RES1    0.0000
     15 N9        -1.2310   -1.2556    8.0050 N.2       1 RES1   -1.0000
     16 N10       -0.3536   -0.6262    8.3384 N.1       1 RES1    1.0000
     17 N11        2.8174   -2.1321   14.4750 N.pl3     1 RES1    0.0000
     18 N12        4.9268   -6.0346   14.5365 N.2       1 RES1   -1.0000
     19 C1         3.7175   -2.8492   12.3547 C.3       1 RES1    0.0000
     20 H1         4.5256   -3.3082   12.0137 H         1 RES1    0.0000
     21 H2         2.9518   -3.4655   12.2393 H         1 RES1    0.0000
     22 C2         5.1602   -2.7112   14.4743 C.3       1 RES1    0.0000
     23 H3         5.3341   -1.8761   14.9759 H         1 RES1    0.0000
     24 H4         5.8863   -2.8226   13.8107 H         1 RES1    0.0000
     25 C3         1.8979   -0.2387    8.6734 C.3       1 RES1    0.0000
     26 H5         2.0996   -0.4462    7.7262 H         1 RES1    0.0000
     27 H6         2.4753    0.5178    8.9461 H         1 RES1    0.0000
     28 C4         2.2137   -1.3393   10.9506 C.3       1 RES1    0.0000
     29 H7         1.9535   -0.4256   11.2304 H         1 RES1    0.0000
     30 H8         1.5254   -1.9650   11.2910 H         1 RES1    0.0000
@<TRIPOS>BOND
     1    1   12 2
     2    2   17 2
     3    3   10 2
     4    4   17 2
     5    5   10 2
     6    6   12 2
     7    7   12 1
     8    8   10 1
     9    9   17 1
    10   11   16 2
    11   13   14 2
    12   14   22 1
    13   15   16 2
    14   18   13 2
    15   19    7 1
    16   20   19 1
    17   21   19 1
    18   22    9 1
    19   23   22 1
    20   24   22 1
    21   25    8 1
    22   26   25 1
    23   27   25 1
    24   28    7 1
    25   29   28 1
    26   30   28 1
    27    8   28 1
    28    9   19 1
    29   11   25 1
@<TRIPOS>SUBSTRUCTURE
     1 RES1 1

@<TRIPOS>CRYSIN
   6.3550    9.7237   10.6143 109.6880 100.7470  92.2220   2 1

