# MOL2 file generated by ConQuest
# Please check atom types

@<TRIPOS>MOLECULE
FIQSIJ
    43    45     1
SMALL
NO_CHARGES
****
Generated from CSD

@<TRIPOS>ATOM
      1 O1         5.1977    5.2012   12.1442 O.2       1 RES1    0.0000
      2 O2         6.8698    6.3847   12.7838 O.2       1 RES1    0.0000
      3 O3         5.8840    5.3959    9.6506 O.3       1 RES1    0.0000
      4 O4         5.1035    4.1805    7.3503 O.2       1 RES1    0.0000
      5 O5         3.2204    5.2094   -0.9599 O.2       1 RES1    0.0000
      6 O6         2.0316    3.9523   -2.1775 O.2       1 RES1    0.0000
      7 O7         0.3717    2.3784   -1.0891 O.3       1 RES1    0.0000
      8 N1         6.1852    5.8604   11.9241 N.pl3     1 RES1    0.0000
      9 N2         6.3260    5.6072    6.1158 N.am      1 RES1    0.0000
     10 N3         4.3988    6.7242    3.7636 N.2       1 RES1    0.0000
     11 N4         3.1417    6.8659    3.4352 N.2       1 RES1    0.0000
     12 N5         2.5037    5.7772    3.8659 N.3       1 RES1    0.0000
     13 N6         2.3035    4.4363   -1.1061 N.pl3     1 RES1    0.0000
     14 C1         6.5914    6.0523   10.5829 C.2       1 RES1    0.0000
     15 C2         7.5681    6.7871   10.0732 C.2       1 RES1    0.0000
     16 H1         8.1797    7.3166   10.5322 H         1 RES1    0.0000
     17 C3         7.4775    6.5891    8.6876 C.2       1 RES1    0.0000
     18 H2         8.0255    6.9716    8.0406 H         1 RES1    0.0000
     19 C4         6.4582    5.7484    8.4666 C.2       1 RES1    0.0000
     20 C5         5.8772    5.1112    7.2641 C.2       1 RES1    0.0000
     21 C6         5.8949    5.0524    4.8508 C.3       1 RES1    0.0000
     22 H3         5.8644    4.0865    4.9289 H         1 RES1    0.0000
     23 H4         6.5547    5.2722    4.1743 H         1 RES1    0.0000
     24 C7         4.5630    5.5371    4.3947 C.2       1 RES1    0.0000
     25 C8         3.3550    4.9377    4.4602 C.2       1 RES1    0.0000
     26 H5         3.1570    4.1119    4.8404 H         1 RES1    0.0000
     27 C9         1.1117    5.5606    3.5124 C.3       1 RES1    0.0000
     28 H6         0.6978    6.4132    3.3044 H         1 RES1    0.0000
     29 H7         0.6441    5.1781    4.2712 H         1 RES1    0.0000
     30 C10        0.9753    4.6407    2.3315 C.ar      1 RES1    0.0000
     31 C11        1.7130    4.8560    1.1915 C.ar      1 RES1    0.0000
     32 H8         2.3580    5.5265    1.1808 H         1 RES1    0.0000
     33 C12        1.5080    4.0911    0.0661 C.ar      1 RES1    0.0000
     34 C13        0.5552    3.0718    0.0381 C.ar      1 RES1    0.0000
     35 C14       -0.1471    2.8371    1.2104 C.ar      1 RES1    0.0000
     36 H9        -0.7716    2.1487    1.2417 H         1 RES1    0.0000
     37 C15        0.0671    3.6069    2.3247 C.ar      1 RES1    0.0000
     38 H10       -0.4154    3.4246    3.0987 H         1 RES1    0.0000
     39 C16       -0.6920    1.4385   -1.1587 C.3       1 RES1    0.0000
     40 H11       -0.5568    0.7528   -0.5000 H         1 RES1    0.0000
     41 H12       -0.7121    1.0414   -2.0332 H         1 RES1    0.0000
     42 H13       -1.5250    1.8842   -0.9898 H         1 RES1    0.0000
     43 H14        6.7902    6.2989    6.1061 H         1 RES1    0.0000
@<TRIPOS>BOND
     1    1    8 2
     2    2    8 2
     3    3   14 1
     4    4   20 2
     5    5   13 2
     6    6   13 2
     7    7   34 1
     8    8   14 1
     9    9   20 1
    10   10   11 2
    11   11   12 1
    12   12   25 1
    13   13   33 1
    14   14   15 2
    15   15   16 1
    16   17   15 1
    17   18   17 1
    18   19    3 1
    19   20   19 1
    20   21    9 1
    21   22   21 1
    22   23   21 1
    23   24   10 1
    24   25   24 2
    25   26   25 1
    26   27   12 1
    27   28   27 1
    28   29   27 1
    29   30   27 1
    30   31   30 ar
    31   32   31 1
    32   33   31 ar
    33   34   33 ar
    34   35   34 ar
    35   36   35 1
    36   37   30 ar
    37   38   37 1
    38   39    7 1
    39   40   39 1
    40   41   39 1
    41   42   39 1
    42   43    9 1
    43   17   19 2
    44   21   24 1
    45   35   37 ar
@<TRIPOS>SUBSTRUCTURE
     1 RES1 1

@<TRIPOS>CRYSIN
   9.2560   10.2410   10.6740  64.7670  74.0020  88.8470   2 1

