# MOL2 file generated by ConQuest
# Please check atom types

@<TRIPOS>MOLECULE
FIQTUV
    92    96     1
SMALL
NO_CHARGES
****
Generated from CSD

@<TRIPOS>ATOM
      1 C1         0.6849   13.3771   12.3385 C.3       1 RES1    0.0000
      2 O1         0.2628   13.9725   10.0287 O.3       1 RES1    0.0000
      3 N1         0.0374   14.9776    7.9494 N.am      1 RES1    0.0000
      4 C2        -0.2820   13.1822   11.1289 C.3       1 RES1    0.0000
      5 O2         0.3934   17.2269    7.6724 O.2       1 RES1    0.0000
      6 N2         2.9180   14.1262    8.1181 N.am      1 RES1    0.0000
      7 C3        -1.6170   13.7999   11.6644 C.3       1 RES1    0.0000
      8 H1        -1.8728   14.6007   11.1416 H         1 RES1    0.0000
      9 H2        -2.3541   13.1405   11.6261 H         1 RES1    0.0000
     10 O3        -1.2114   16.4844    9.0708 O.3       1 RES1    0.0000
     11 N3         0.1976   14.3298    3.0530 N.pl3     1 RES1    0.0000
     12 C4        -1.2863   14.1720   13.1127 C.3       1 RES1    0.0000
     13 H3        -1.9259   14.8195   13.5269 H         1 RES1    0.0000
     14 O4         2.2444   12.6981    6.4968 O.2       1 RES1    0.0000
     15 C5        -1.1157   12.8681   13.9016 C.3       1 RES1    0.0000
     16 H4        -1.8345   12.2236   13.6884 H         1 RES1    0.0000
     17 H5        -1.1087   13.0378   14.8761 H         1 RES1    0.0000
     18 O5        -0.1941   13.1926    2.8458 O.2       1 RES1    0.0000
     19 C6         0.2611   12.3575   13.4111 C.3       1 RES1    0.0000
     20 H6         0.9147   12.3352   14.1556 H         1 RES1    0.0000
     21 H7         0.1828   11.4495   13.0250 H         1 RES1    0.0000
     22 O6         0.0131   15.2780    2.3071 O.2       1 RES1    0.0000
     23 C7         0.1566   14.6900   13.0101 C.3       1 RES1    0.0000
     24 O7        -5.1746   16.2787    5.4995 O.3       1 RES1    0.0000
     25 C8         0.3220   15.9701   12.1812 C.3       1 RES1    0.0000
     26 H8        -0.0513   16.7293   12.6747 H         1 RES1    0.0000
     27 H9        -0.1514   15.8704   11.3279 H         1 RES1    0.0000
     28 H10        1.2732   16.1279   12.0087 H         1 RES1    0.0000
     29 C9         0.7954   15.0011   14.3668 C.3       1 RES1    0.0000
     30 H11        0.2620   15.6784   14.8314 H         1 RES1    0.0000
     31 H12        1.7049   15.3405   14.2301 H         1 RES1    0.0000
     32 H13        0.8294   14.1839   14.9084 H         1 RES1    0.0000
     33 C10        2.1539   13.3310   11.9846 C.3       1 RES1    0.0000
     34 H14        2.3558   12.4826   11.5366 H         1 RES1    0.0000
     35 H15        2.6900   13.4039   12.8014 H         1 RES1    0.0000
     36 H16        2.3697   14.0753   11.3851 H         1 RES1    0.0000
     37 C11       -0.4221   11.7532   10.6374 C.3       1 RES1    0.0000
     38 H17        0.4804   11.3647   10.5080 H         1 RES1    0.0000
     39 H18       -0.8859   11.2173   11.3279 H         1 RES1    0.0000
     40 C12       -1.1914   11.6579    9.3364 C.3       1 RES1    0.0000
     41 H19       -2.1348   11.9154    9.4942 H         1 RES1    0.0000
     42 H20       -1.1810   10.7202    9.0196 H         1 RES1    0.0000
     43 C13       -0.5996   12.5570    8.2640 C.3       1 RES1    0.0000
     44 H21        0.3037   12.2399    8.0133 H         1 RES1    0.0000
     45 H22       -1.1714   12.5466    7.4567 H         1 RES1    0.0000
     46 C14       -0.5230   13.9547    8.8275 C.3       1 RES1    0.0000
     47 H23       -1.4516   14.2360    9.0668 H         1 RES1    0.0000
     48 C15       -0.2063   16.3154    8.2056 C.2       1 RES1    0.0000
     49 C16        0.9051   14.6841    6.8057 C.3       1 RES1    0.0000
     50 H24        1.3202   15.5578    6.5523 H         1 RES1    0.0000
     51 C17        2.0808   13.7478    7.1364 C.2       1 RES1    0.0000
     52 C18        3.9267   13.1822    8.5520 C.3       1 RES1    0.0000
     53 H25        3.5472   12.2786    8.5574 H         1 RES1    0.0000
     54 H26        4.2269   13.4159    9.4544 H         1 RES1    0.0000
     55 H27        4.6890   13.2119    7.9363 H         1 RES1    0.0000
     56 C19        2.9450   15.4372    8.7383 C.3       1 RES1    0.0000
     57 H28        2.5012   16.0847    8.1524 H         1 RES1    0.0000
     58 H29        3.8753   15.7111    8.8829 H         1 RES1    0.0000
     59 H30        2.4785   15.4000    9.5986 H         1 RES1    0.0000
     60 C20       -1.4899   17.8814    9.4000 C.3       1 RES1    0.0000
     61 H31       -1.3933   18.4470    8.5922 H         1 RES1    0.0000
     62 H32       -0.8520   18.2029   10.0856 H         1 RES1    0.0000
     63 C21       -2.8919   17.9632    9.9226 C.ar      1 RES1    0.0000
     64 C22       -3.2496   17.4214   11.1403 C.ar      1 RES1    0.0000
     65 H33       -2.5951   16.9778   11.6683 H         1 RES1    0.0000
     66 C23       -4.5515   17.5137   11.6047 C.ar      1 RES1    0.0000
     67 H34       -4.7847   17.1267   12.4411 H         1 RES1    0.0000
     68 C24       -5.5071   18.1642   10.8583 C.ar      1 RES1    0.0000
     69 H35       -6.4017   18.2267   11.1714 H         1 RES1    0.0000
     70 C25       -5.1520   18.7209    9.6537 C.ar      1 RES1    0.0000
     71 H36       -5.8064   19.1778    9.1389 H         1 RES1    0.0000
     72 C26       -3.8666   18.6286    9.1838 C.ar      1 RES1    0.0000
     73 H37       -3.6403   19.0215    8.3487 H         1 RES1    0.0000
     74 C27        0.1253   14.2122    5.5472 C.3       1 RES1    0.0000
     75 H38        0.0339   13.2179    5.5857 H         1 RES1    0.0000
     76 C28        0.9599   14.5769    4.3118 C.3       1 RES1    0.0000
     77 H39        1.2166   15.5310    4.3582 H         1 RES1    0.0000
     78 H40        1.7893   14.0366    4.3036 H         1 RES1    0.0000
     79 C29       -1.2689   14.8225    5.4580 C.ar      1 RES1    0.0000
     80 C30       -1.4995   16.1889    5.4418 C.ar      1 RES1    0.0000
     81 H41       -0.7545   16.7784    5.4267 H         1 RES1    0.0000
     82 C31       -2.7788   16.7278    5.4475 C.ar      1 RES1    0.0000
     83 H42       -2.9084   17.6685    5.4466 H         1 RES1    0.0000
     84 C32       -3.8623   15.8644    5.4547 C.ar      1 RES1    0.0000
     85 C33       -3.6664   14.5054    5.4036 C.ar      1 RES1    0.0000
     86 H43       -4.4140   13.9205    5.3596 H         1 RES1    0.0000
     87 C34       -2.3837   13.9845    5.4177 C.ar      1 RES1    0.0000
     88 H44       -2.2610   13.0437    5.3993 H         1 RES1    0.0000
     89 C35       -5.4192   17.6596    5.6714 C.3       1 RES1    0.0000
     90 H45       -6.3765   17.8054    5.8242 H         1 RES1    0.0000
     91 H46       -5.1398   18.1433    4.8676 H         1 RES1    0.0000
     92 H47       -4.9109   17.9870    6.4429 H         1 RES1    0.0000
@<TRIPOS>BOND
     1    1    4 1
     2    2    4 1
     3    3   46 1
     4    4    7 1
     5    5   48 2
     6    6   51 1
     7    7    8 1
     8    9    7 1
     9   10   48 1
    10   11   18 2
    11   12    7 1
    12   13   12 1
    13   14   51 2
    14   15   12 1
    15   16   15 1
    16   17   15 1
    17   19    1 1
    18   20   19 1
    19   21   19 1
    20   22   11 2
    21   23    1 1
    22   24   84 1
    23   25   23 1
    24   26   25 1
    25   27   25 1
    26   28   25 1
    27   29   23 1
    28   30   29 1
    29   31   29 1
    30   32   29 1
    31   33    1 1
    32   34   33 1
    33   35   33 1
    34   36   33 1
    35   37    4 1
    36   38   37 1
    37   39   37 1
    38   40   37 1
    39   41   40 1
    40   42   40 1
    41   43   40 1
    42   44   43 1
    43   45   43 1
    44   46    2 1
    45   47   46 1
    46   48    3 1
    47   49    3 1
    48   50   49 1
    49   51   49 1
    50   52    6 1
    51   53   52 1
    52   54   52 1
    53   55   52 1
    54   56    6 1
    55   57   56 1
    56   58   56 1
    57   59   56 1
    58   60   10 1
    59   61   60 1
    60   62   60 1
    61   63   60 1
    62   64   63 ar
    63   65   64 1
    64   66   64 ar
    65   67   66 1
    66   68   66 ar
    67   69   68 1
    68   70   68 ar
    69   71   70 1
    70   72   63 ar
    71   73   72 1
    72   74   49 1
    73   75   74 1
    74   76   11 1
    75   77   76 1
    76   78   76 1
    77   79   74 1
    78   80   79 ar
    79   81   80 1
    80   82   80 ar
    81   83   82 1
    82   84   82 ar
    83   85   84 ar
    84   86   85 1
    85   87   79 ar
    86   88   87 1
    87   89   24 1
    88   90   89 1
    89   91   89 1
    90   92   89 1
    91   12   23 1
    92   15   19 1
    93   43   46 1
    94   70   72 ar
    95   74   76 1
    96   85   87 ar
@<TRIPOS>SUBSTRUCTURE
     1 RES1 1

@<TRIPOS>CRYSIN
   8.7027   14.8850   24.8474  90.0000  90.0000  90.0000  19 1

