# MOL2 file generated by ConQuest
# Please check atom types

@<TRIPOS>MOLECULE
FIRNIE
    28    29     1
SMALL
NO_CHARGES
****
Generated from CSD

@<TRIPOS>ATOM
      1 N1         5.9831    5.8544    2.4340 N.2       1 RES1    0.0000
      2 O1         3.9207    5.8882    0.8486 O.2       1 RES1    0.0000
      3 O2         5.9534    5.0048    1.2703 O.3       1 RES1    0.0000
      4 C1         4.7865    5.0930    0.5907 C.2       1 RES1    0.0000
      5 C2         7.1839    6.2304    2.6258 C.2       1 RES1    0.0000
      6 H1         7.9696    6.0366    1.9373 H         1 RES1    0.0000
      7 C3         7.5159    7.0740    3.7849 C.ar      1 RES1    0.0000
      8 C4         8.7505    7.7130    3.8351 C.ar      1 RES1    0.0000
      9 H2         9.3949    7.5502    3.1634 H         1 RES1    0.0000
     10 C5         9.0540    8.5610    4.8783 C.ar      1 RES1    0.0000
     11 H3         9.8521    8.9841    4.9218 H         1 RES1    0.0000
     12 C6         8.1412    8.7628    5.9034 C.ar      1 RES1    0.0000
     13 H4         8.3319    9.3381    6.5854 H         1 RES1    0.0000
     14 C7         6.9167    8.1211    5.8711 C.ar      1 RES1    0.0000
     15 H5         6.3424    8.2317    6.6414 H         1 RES1    0.0000
     16 C8         6.6013    7.2696    4.8236 C.ar      1 RES1    0.0000
     17 H6         5.7129    6.7801    4.7774 H         1 RES1    0.0000
     18 C9         4.7408    4.1079   -0.5191 C.ar      1 RES1    0.0000
     19 C10        3.5857    4.0566   -1.3037 C.ar      1 RES1    0.0000
     20 H7         2.8683    4.6027   -1.0128 H         1 RES1    0.0000
     21 C11        3.5180    3.1635   -2.3685 C.ar      1 RES1    0.0000
     22 H8         2.7139    3.1068   -2.8768 H         1 RES1    0.0000
     23 C12        4.5816    2.3288   -2.6456 C.ar      1 RES1    0.0000
     24 H9         4.5252    1.7260   -3.3552 H         1 RES1    0.0000
     25 C13        5.7212    2.3686   -1.8638 C.ar      1 RES1    0.0000
     26 H10        6.4731    1.7172   -1.9998 H         1 RES1    0.0000
     27 C14        5.8026    3.2502   -0.7975 C.ar      1 RES1    0.0000
     28 H11        6.5265    3.3104   -0.2694 H         1 RES1    0.0000
@<TRIPOS>BOND
     1    1    3 1
     2    2    4 2
     3    3    4 1
     4    4   18 1
     5    5    1 2
     6    6    5 1
     7    7    5 1
     8    8    7 ar
     9    9    8 1
    10   10    8 ar
    11   11   10 1
    12   12   10 ar
    13   13   12 1
    14   14   12 ar
    15   15   14 1
    16   16    7 ar
    17   17   16 1
    18   18   19 ar
    19   19   20 1
    20   21   19 ar
    21   22   21 1
    22   23   21 ar
    23   24   23 1
    24   25   23 ar
    25   26   25 1
    26   27   18 ar
    27   28   27 1
    28   14   16 ar
    29   25   27 ar
@<TRIPOS>SUBSTRUCTURE
     1 RES1 1

@<TRIPOS>CRYSIN
   5.9386    8.8513   21.5491  90.0000  90.0000  90.0000  19 1

