# MOL2 file generated by ConQuest
# Please check atom types

@<TRIPOS>MOLECULE
FITFEU
    56    58     1
SMALL
NO_CHARGES
****
Generated from CSD

@<TRIPOS>ATOM
      1 C1         1.0869    1.2203    6.9595 C.2       1 RES1    0.0000
      2 N1        -0.2054    0.8276    6.8960 N.2       1 RES1    0.0000
      3 O1        -1.1985    1.5310    6.4819 O.2       1 RES1    0.0000
      4 C2        -0.3638   -0.6234    7.2715 C.3       1 RES1    0.0000
      5 C3         0.9020   -0.8256    8.1383 C.3       1 RES1    0.0000
      6 N2         1.8053    0.2149    7.5268 N.2       1 RES1    0.0000
      7 O2         3.0788    0.1651    7.6527 O.2       1 RES1    0.0000
      8 C4        -0.3456   -1.3942    5.9486 C.3       1 RES1    0.0000
      9 C5        -1.6856   -0.8403    7.9942 C.3       1 RES1    0.0000
     10 C6         0.7130   -0.4172    9.6008 C.3       1 RES1    0.0000
     11 C7         1.5329   -2.2032    8.0442 C.3       1 RES1    0.0000
     12 C8         1.6252    2.5129    6.5238 C.2       1 RES1    0.0000
     13 C9         2.7527    3.0386    7.2284 C.2       1 RES1    0.0000
     14 C10        3.2396    4.1817    6.5465 C.2       1 RES1    0.0000
     15 C11        0.9626    3.1822    5.4222 C.2       1 RES1    0.0000
     16 C12        3.7427    5.2526    6.1755 C.2       1 RES1    0.0000
     17 H1        -0.4434   -2.3224    6.1222 H         1 RES1    0.0000
     18 H2        -1.0630   -1.0972    5.4006 H         1 RES1    0.0000
     19 H3         0.4794   -1.2389    5.5038 H         1 RES1    0.0000
     20 H4        -1.7734   -1.7577    8.2257 H         1 RES1    0.0000
     21 H5        -1.7053   -0.3117    8.7839 H         1 RES1    0.0000
     22 H6        -2.4035   -0.5872    7.4258 H         1 RES1    0.0000
     23 H7         0.1478   -1.0454   10.0342 H         1 RES1    0.0000
     24 H8         1.5574   -0.3977   10.0365 H         1 RES1    0.0000
     25 H9         0.3161    0.4455    9.6405 H         1 RES1    0.0000
     26 H10        2.3002   -2.2394    8.6035 H         1 RES1    0.0000
     27 H11        0.9055   -2.8588    8.3233 H         1 RES1    0.0000
     28 H12        1.7896   -2.3732    7.1456 H         1 RES1    0.0000
     29 C1B        4.3238    8.5501    4.3863 C.2       1 RES1    0.0000
     30 N1B        5.6161    8.9428    4.4498 N.2       1 RES1    0.0000
     31 O1B        6.6092    8.2394    4.8639 O.2       1 RES1    0.0000
     32 C2B        5.7744   10.3938    4.0743 C.3       1 RES1    0.0000
     33 C3B        4.5087   10.5960    3.2075 C.3       1 RES1    0.0000
     34 N2B        3.6054    9.5555    3.8190 N.2       1 RES1    0.0000
     35 O2B        2.3318    9.6053    3.6931 O.2       1 RES1    0.0000
     36 C4B        5.7562   11.1646    5.3972 C.3       1 RES1    0.0000
     37 C5B        7.0963   10.6107    3.3515 C.3       1 RES1    0.0000
     38 C6B        4.6977   10.1876    1.7450 C.3       1 RES1    0.0000
     39 C7B        3.8777   11.9736    3.3016 C.3       1 RES1    0.0000
     40 C8B        3.7855    7.2575    4.8220 C.2       1 RES1    0.0000
     41 C9B        2.6580    6.7318    4.1174 C.2       1 RES1    0.0000
     42 C10B       2.1711    5.5887    4.7993 C.2       1 RES1    0.0000
     43 C11B       4.4481    6.5882    5.9236 C.2       1 RES1    0.0000
     44 C12B       1.6680    4.5178    5.1703 C.2       1 RES1    0.0000
     45 H1B        5.8540   12.0928    5.2236 H         1 RES1    0.0000
     46 H2B        6.4737   10.8676    5.9452 H         1 RES1    0.0000
     47 H3B        4.9313   11.0093    5.8420 H         1 RES1    0.0000
     48 H4B        7.1840   11.5281    3.1201 H         1 RES1    0.0000
     49 H5B        7.1159   10.0821    2.5619 H         1 RES1    0.0000
     50 H6B        7.8142   10.3576    3.9200 H         1 RES1    0.0000
     51 H7B        5.2628   10.8158    1.3116 H         1 RES1    0.0000
     52 H8B        3.8532   10.1681    1.3093 H         1 RES1    0.0000
     53 H9B        5.0946    9.3249    1.7053 H         1 RES1    0.0000
     54 H10B       3.1105   12.0098    2.7423 H         1 RES1    0.0000
     55 H11B       4.5051   12.6292    3.0225 H         1 RES1    0.0000
     56 H12B       3.6210   12.1436    4.2002 H         1 RES1    0.0000
@<TRIPOS>BOND
     1    1    2 1
     2    2    3 1
     3    4    2 1
     4    5    4 1
     5    6    1 1
     6    7    6 1
     7    8    4 1
     8    9    4 1
     9   10    5 1
    10   11    5 1
    11   12    1 1
    12   13   12 1
    13   14   13 1
    14   15   12 1
    15   16   14 1
    16   17    8 1
    17   18    8 1
    18   19    8 1
    19   20    9 1
    20   21    9 1
    21   22    9 1
    22   23   10 1
    23   24   10 1
    24   25   10 1
    25   26   11 1
    26   27   11 1
    27   28   11 1
    28   29   30 1
    29   30   31 1
    30   32   30 1
    31   33   32 1
    32   34   29 1
    33   35   34 1
    34   36   32 1
    35   37   32 1
    36   38   33 1
    37   39   33 1
    38   40   29 1
    39   41   40 1
    40   42   41 1
    41   43   16 1
    42   44   15 1
    43   45   36 1
    44   46   36 1
    45   47   36 1
    46   48   37 1
    47   49   37 1
    48   50   37 1
    49   51   38 1
    50   52   38 1
    51   53   38 1
    52   54   39 1
    53   55   39 1
    54   56   39 1
    55    5    6 1
    56   33   34 1
    57   40   43 1
    58   42   44 1
@<TRIPOS>SUBSTRUCTURE
     1 RES1 1

@<TRIPOS>CRYSIN
  10.3190    9.7704   12.3620  90.0000 113.3940  90.0000 231 1

