# MOL2 file generated by ConQuest
# Please check atom types

@<TRIPOS>MOLECULE
FITGUK
    35    36     1
SMALL
NO_CHARGES
****
Generated from CSD

@<TRIPOS>ATOM
      1 O1         2.5949    9.6786    8.7527 O.3       1 RES1    0.0000
      2 O2         2.8501   12.6891    5.4882 O.2       1 RES1    0.0000
      3 O3        -1.1152   15.6998    6.0946 O.3       1 RES1    0.0000
      4 O4        -2.7723   15.8916    7.6013 O.2       1 RES1    0.0000
      5 O5        -3.7186   20.6647    2.2902 O.2       1 RES1    0.0000
      6 O6        -5.4658   20.7492    3.5541 O.2       1 RES1    0.0000
      7 N1         3.7107   10.4224    7.0093 N.2       1 RES1    0.0000
      8 N2         1.8360   10.7249    8.2136 N.2       1 RES1    0.0000
      9 N3         0.8888   12.7317    6.6440 N.am      1 RES1    0.0000
     10 N4        -4.3706   20.2931    3.2654 N.pl3     1 RES1    0.0000
     11 C1         3.6897    9.5654    7.9700 C.2       1 RES1    0.0000
     12 C2         2.5543   11.1267    7.2129 C.2       1 RES1    0.0000
     13 C3         4.6239    8.4719    8.2613 C.3       1 RES1    0.0000
     14 C4         2.0952   12.2588    6.3493 C.2       1 RES1    0.0000
     15 C5         0.2992   13.8156    5.9217 C.3       1 RES1    0.0000
     16 C6        -0.4997   14.6561    6.8722 C.3       1 RES1    0.0000
     17 C7        -2.2427   16.2248    6.5784 C.2       1 RES1    0.0000
     18 C8        -2.7708   17.2838    5.6765 C.ar      1 RES1    0.0000
     19 C9        -2.0873   17.6953    4.5454 C.ar      1 RES1    0.0000
     20 C10       -2.6006   18.6946    3.7602 C.ar      1 RES1    0.0000
     21 C11       -3.7825   19.2710    4.1443 C.ar      1 RES1    0.0000
     22 C12       -4.4773   18.8952    5.2455 C.ar      1 RES1    0.0000
     23 C13       -3.9573   17.8913    6.0308 C.ar      1 RES1    0.0000
     24 H1         0.2981   12.2893    7.2052 H         1 RES1    0.0000
     25 H2         4.5923    8.1891    9.2408 H         1 RES1    0.0000
     26 H3         4.3585    7.6314    7.7588 H         1 RES1    0.0000
     27 H4         5.4553    8.7411    8.1165 H         1 RES1    0.0000
     28 H5        -0.3036   13.5925    5.2293 H         1 RES1    0.0000
     29 H6         0.9052   14.4091    5.5615 H         1 RES1    0.0000
     30 H7        -1.1617   14.1445    7.3671 H         1 RES1    0.0000
     31 H8         0.0658   15.0692    7.5970 H         1 RES1    0.0000
     32 H9        -1.2981   17.3313    4.2754 H         1 RES1    0.0000
     33 H10       -2.1642   18.9589    3.0150 H         1 RES1    0.0000
     34 H11       -5.3088   19.2605    5.5104 H         1 RES1    0.0000
     35 H12       -4.3550   17.5533    6.8475 H         1 RES1    0.0000
@<TRIPOS>BOND
     1    1    8 1
     2    2   14 2
     3    3   16 1
     4    4   17 2
     5    5   10 2
     6    6   10 2
     7    7   11 2
     8    8   12 2
     9    9   14 1
    10   10   21 1
    11   11    1 1
    12   12    7 1
    13   13   11 1
    14   14   12 1
    15   15    9 1
    16   16   15 1
    17   17    3 1
    18   18   17 1
    19   19   18 ar
    20   20   19 ar
    21   21   20 ar
    22   22   21 ar
    23   23   18 ar
    24   24    9 1
    25   25   13 1
    26   26   13 1
    27   27   13 1
    28   28   15 1
    29   29   15 1
    30   30   16 1
    31   31   16 1
    32   32   19 1
    33   33   20 1
    34   34   22 1
    35   35   23 1
    36   22   23 ar
@<TRIPOS>SUBSTRUCTURE
     1 RES1 1

@<TRIPOS>CRYSIN
   5.5740   28.4540    8.7530  90.0000 103.3400  90.0000  14 1

