# MOL2 file generated by ConQuest
# Please check atom types

@<TRIPOS>MOLECULE
FITLUR
    31    32     1
SMALL
NO_CHARGES
****
Generated from CSD

@<TRIPOS>ATOM
      1 O1         9.6671    3.5188    8.4864 O.2       1 RES1    0.0000
      2 O2        10.2585    4.8739    6.9368 O.2       1 RES1    0.0000
      3 O3         3.6954    6.4184    5.6704 O.2       1 RES1    0.0000
      4 O4         2.4929    2.4433    8.3165 O.2       1 RES1    0.0000
      5 O5         0.3576    1.9069    8.7144 O.3       1 RES1    0.0000
      6 N1         9.4033    4.2916    7.5831 N.pl3     1 RES1    0.0000
      7 N2         2.9823    4.4482    6.6035 N.am      1 RES1    0.0000
      8 C1         5.6794    4.0407    7.5894 C.ar      1 RES1    0.0000
      9 H1         4.9948    3.5539    8.0566 H         1 RES1    0.0000
     10 C2         7.0124    3.8012    7.9119 C.ar      1 RES1    0.0000
     11 H2         7.2369    3.1741    8.5457 H         1 RES1    0.0000
     12 C3         7.9873    4.5462    7.2660 C.ar      1 RES1    0.0000
     13 C4         7.6886    5.5257    6.3315 C.ar      1 RES1    0.0000
     14 H3         8.3894    6.0124    5.9003 H         1 RES1    0.0000
     15 C5         6.3563    5.7597    6.0357 C.ar      1 RES1    0.0000
     16 H4         6.1194    6.4067    5.3908 H         1 RES1    0.0000
     17 C6         5.3457    5.0159    6.6452 C.ar      1 RES1    0.0000
     18 C7         3.9323    5.3652    6.2478 C.2       1 RES1    0.0000
     19 C8         1.5867    4.5410    6.4570 C.ar      1 RES1    0.0000
     20 C9         0.9971    5.4798    5.5961 C.ar      1 RES1    0.0000
     21 H5         1.5358    6.0562    5.0852 H         1 RES1    0.0000
     22 C10       -0.3875    5.5426    5.4688 C.ar      1 RES1    0.0000
     23 H6        -0.7703    6.2217    4.8814 H         1 RES1    0.0000
     24 C11       -1.2141    4.6783    6.1776 C.ar      1 RES1    0.0000
     25 H7        -2.1587    4.7369    6.1096 H         1 RES1    0.0000
     26 C12       -0.6421    3.7399    7.0248 C.ar      1 RES1    0.0000
     27 H8        -1.1837    3.1401    7.5120 H         1 RES1    0.0000
     28 C13        0.7479    3.6548    7.1822 C.ar      1 RES1    0.0000
     29 C14        1.2828    2.6253    8.1081 C.2       1 RES1    0.0000
     30 H9         3.2405    3.7535    6.9821 H         1 RES1    0.0000
     31 H10        0.7604    1.3339    9.2515 H         1 RES1    0.0000
@<TRIPOS>BOND
     1    1    6 2
     2    2    6 2
     3    3   18 2
     4    4   29 2
     5    5   29 1
     6    6   12 1
     7    7   18 1
     8    8    9 1
     9   10    8 ar
    10   11   10 1
    11   12   10 ar
    12   13   12 ar
    13   14   13 1
    14   15   13 ar
    15   16   15 1
    16   17    8 ar
    17   18   17 1
    18   19    7 1
    19   20   19 ar
    20   21   20 1
    21   22   20 ar
    22   23   22 1
    23   24   22 ar
    24   25   24 1
    25   26   24 ar
    26   27   26 1
    27   28   19 ar
    28   29   28 1
    29   30    7 1
    30   31    5 1
    31   15   17 ar
    32   26   28 ar
@<TRIPOS>SUBSTRUCTURE
     1 RES1 1

@<TRIPOS>CRYSIN
  27.6966    4.8683   21.0108  90.0000 118.1520  90.0000  15 1

