# MOL2 file generated by ConQuest
# Please check atom types

@<TRIPOS>MOLECULE
FITPED
    37    40     1
SMALL
NO_CHARGES
****
Generated from CSD

@<TRIPOS>ATOM
      1 O1         7.4362    2.5918   10.9446 O.2       1 RES1    0.0000
      2 O2         7.3218    0.5754   10.1627 O.2       1 RES1    0.0000
      3 O3        -1.1105    0.2614   15.2842 O.2       1 RES1    0.0000
      4 N1         6.8151    1.5693   10.6693 N.pl3     1 RES1    0.0000
      5 C1         1.2757    1.4466   12.2618 C.3       1 RES1    0.0000
      6 C2         0.7432    0.0183   12.4530 C.3       1 RES1    0.0000
      7 C3        -0.7231    0.0401   12.9309 C.3       1 RES1    0.0000
      8 C4        -0.7596    0.7692   14.2424 C.2       1 RES1    0.0000
      9 C5        -0.2779    2.1952   14.1200 C.3       1 RES1    0.0000
     10 C6        -1.1643    2.9265   13.1011 C.3       1 RES1    0.0000
     11 C7        -1.0787    2.2135   11.7533 C.3       1 RES1    0.0000
     12 C8         0.3615    2.1871   11.2505 C.3       1 RES1    0.0000
     13 C9        -1.5940    0.7841   11.9062 C.3       1 RES1    0.0000
     14 C10        1.1827    2.1654   13.6230 C.3       1 RES1    0.0000
     15 C11        2.7148    1.4558   11.7648 C.ar      1 RES1    0.0000
     16 C12        3.3765    2.6651   11.5373 C.ar      1 RES1    0.0000
     17 C13        4.6997    2.7133   11.1530 C.ar      1 RES1    0.0000
     18 C14        5.3752    1.5326   10.9809 C.ar      1 RES1    0.0000
     19 C15        4.7601    0.3175   11.1320 C.ar      1 RES1    0.0000
     20 C16        3.4321    0.2935   11.5277 C.ar      1 RES1    0.0000
     21 H1        -1.6191    2.6823   11.1071 H         1 RES1    0.0000
     22 H2         0.3967    1.7309   10.3424 H         1 RES1    0.0000
     23 H3         0.6882    3.0492   11.1454 H         1 RES1    0.0000
     24 H4        -2.1371    3.1294   13.4394 H         1 RES1    0.0000
     25 H5        -0.8432    3.8516   12.9997 H         1 RES1    0.0000
     26 H6        -1.5440    0.3210   11.0307 H         1 RES1    0.0000
     27 H7        -2.5390    0.7795   12.1777 H         1 RES1    0.0000
     28 H8         0.7947   -0.4929   11.6233 H         1 RES1    0.0000
     29 H9         1.3494   -0.5158   13.1335 H         1 RES1    0.0000
     30 H10       -1.0376   -0.8139   13.0762 H         1 RES1    0.0000
     31 H11       -0.3372    2.6365   14.9879 H         1 RES1    0.0000
     32 H12        1.5548    3.0835   13.5350 H         1 RES1    0.0000
     33 H13        1.8063    1.7080   14.2997 H         1 RES1    0.0000
     34 H14        2.9188    3.4733   11.6233 H         1 RES1    0.0000
     35 H15        5.1304    3.5535   11.0115 H         1 RES1    0.0000
     36 H16        5.2575   -0.4585   10.9733 H         1 RES1    0.0000
     37 H17        3.0385   -0.5273   11.6806 H         1 RES1    0.0000
@<TRIPOS>BOND
     1    1    4 2
     2    2    4 2
     3    3    8 2
     4    4   18 1
     5    5    6 1
     6    6    7 1
     7    7    8 1
     8    8    9 1
     9    9   10 1
    10   10   11 1
    11   11   12 1
    12   12    5 1
    13   13    7 1
    14   14    5 1
    15   15    5 1
    16   16   15 ar
    17   17   16 ar
    18   18   17 ar
    19   19   18 ar
    20   20   15 ar
    21   21   11 1
    22   22   12 1
    23   23   12 1
    24   24   10 1
    25   25   10 1
    26   26   13 1
    27   27   13 1
    28   28    6 1
    29   29    6 1
    30   30    7 1
    31   31    9 1
    32   32   14 1
    33   33   14 1
    34   34   16 1
    35   35   17 1
    36   36   19 1
    37   37   20 1
    38    9   14 1
    39   11   13 1
    40   19   20 ar
@<TRIPOS>SUBSTRUCTURE
     1 RES1 1

@<TRIPOS>CRYSIN
  11.9330   11.4630   19.5020  90.0000 101.4000  90.0000  15 1

