# MOL2 file generated by ConQuest
# Please check atom types

@<TRIPOS>MOLECULE
FITRUX
    31    31     1
SMALL
NO_CHARGES
****
Generated from CSD

@<TRIPOS>ATOM
      1 N1         6.1068    2.4275    0.1145 N.3       1 RES1    0.0000
      2 C1         5.9746    3.8134    0.0616 C.2       1 RES1    0.0000
      3 C2         7.0606    4.3334    0.7826 C.2       1 RES1    0.0000
      4 C3         7.8167    3.2307    1.2359 C.2       1 RES1    0.0000
      5 C4         7.1871    2.0557    0.7962 C.2       1 RES1    0.0000
      6 O1         5.2660    1.5133   -0.4867 O.3       1 RES1    0.0000
      7 H1         4.6904    2.0433   -0.9041 H         1 RES1    0.0000
      8 C5         4.8766    4.3832   -0.6955 C.2       1 RES1    0.0000
      9 O2         4.0866    3.6361   -1.2916 O.2       1 RES1    0.0000
     10 C6         4.7014    5.8710   -0.7605 C.3       1 RES1    0.0000
     11 H2         4.0143    6.0554   -1.4197 H         1 RES1    0.0000
     12 H3         4.4117    6.2209    0.0897 H         1 RES1    0.0000
     13 H4         5.5464    6.3180   -0.9953 H         1 RES1    0.0000
     14 C7         7.3630    5.7822    1.0292 C.3       1 RES1    0.0000
     15 H5         8.0558    5.8611    1.6962 H         1 RES1    0.0000
     16 H6         6.5869    6.2649    1.3405 H         1 RES1    0.0000
     17 H7         7.6251    6.2285    0.2242 H         1 RES1    0.0000
     18 C8         9.0367    3.2698    2.0479 C.2       1 RES1    0.0000
     19 O3         9.6216    4.2622    2.3912 O.2       1 RES1    0.0000
     20 O4         9.4474    2.0314    2.3825 O.3       1 RES1    0.0000
     21 C9        10.6412    1.9862    3.2045 C.3       1 RES1    0.0000
     22 H8        10.8436    1.0307    3.2803 H         1 RES1    0.0000
     23 H9        11.3740    2.4562    2.7318 H         1 RES1    0.0000
     24 H10       10.4551    2.4106    4.0574 H         1 RES1    0.0000
     25 C10        7.5242    0.6092    1.0183 C.2       1 RES1    0.0000
     26 O5         7.0401   -0.0587    1.8907 O.2       1 RES1    0.0000
     27 O6         8.4221    0.1983    0.1359 O.3       1 RES1    0.0000
     28 C11        8.9446   -1.1420    0.3613 C.3       1 RES1    0.0000
     29 H11        9.6454   -1.2387   -0.2817 H         1 RES1    0.0000
     30 H12        9.3135   -1.1765    1.2703 H         1 RES1    0.0000
     31 H13        8.2406   -1.7867    0.2765 H         1 RES1    0.0000
@<TRIPOS>BOND
     1    1    2 1
     2    2    3 2
     3    3    4 1
     4    4    5 2
     5    5    1 1
     6    6    1 1
     7    7    6 1
     8    8    2 1
     9    9    8 2
    10   10    8 1
    11   11   10 1
    12   12   10 1
    13   13   10 1
    14   14    3 1
    15   15   14 1
    16   16   14 1
    17   17   14 1
    18   18    4 1
    19   19   18 2
    20   20   18 1
    21   21   20 1
    22   22   21 1
    23   23   21 1
    24   24   21 1
    25   25    5 1
    26   26   25 2
    27   27   25 1
    28   28   27 1
    29   29   28 1
    30   30   28 1
    31   31   28 1
@<TRIPOS>SUBSTRUCTURE
     1 RES1 1

@<TRIPOS>CRYSIN
  10.3893   15.1803    7.5789  90.0000  99.6300  90.0000  14 1

