# MOL2 file generated by ConQuest
# Please check atom types

@<TRIPOS>MOLECULE
FIVNUV
    49    51     1
SMALL
NO_CHARGES
****
Generated from CSD

@<TRIPOS>ATOM
      1 O1         8.9955    6.7829    4.2210 O.2       1 RES1    0.0000
      2 O2         9.9902    5.3452    2.9585 O.2       1 RES1    0.0000
      3 N1         6.4130   -1.7314    8.2158 N.1       1 RES1    0.0000
      4 N2         9.7455    0.9269    7.7998 N.1       1 RES1    0.0000
      5 N3         9.2214    5.6367    3.8636 N.pl3     1 RES1    0.0000
      6 C1         4.1643    2.3031    6.9487 C.3       1 RES1    0.0000
      7 H1         4.1140    3.0521    6.2878 H         1 RES1    0.0000
      8 C2         5.0280    1.1754    6.3295 C.3       1 RES1    0.0000
      9 H2         4.7692    0.3107    6.7595 H         1 RES1    0.0000
     10 C3         6.5062    1.3902    6.5468 C.2       1 RES1    0.0000
     11 C4         7.2509    0.5194    7.2656 C.2       1 RES1    0.0000
     12 C5         4.6553    2.8633    8.2488 C.2       1 RES1    0.0000
     13 H3         5.3058    2.3837    8.7471 H         1 RES1    0.0000
     14 C6         4.1926    4.0285    8.7204 C.2       1 RES1    0.0000
     15 H4         4.6346    4.4079    9.4717 H         1 RES1    0.0000
     16 C7         3.0779    4.7438    8.1727 C.2       1 RES1    0.0000
     17 H5         3.1134    5.6926    8.1942 H         1 RES1    0.0000
     18 C8         1.9803    4.1708    7.6282 C.2       1 RES1    0.0000
     19 H6         1.2893    4.7443    7.3176 H         1 RES1    0.0000
     20 C9         1.7878    2.7543    7.4863 C.2       1 RES1    0.0000
     21 H7         0.8997    2.4248    7.5574 H         1 RES1    0.0000
     22 C10        2.7604    1.8634    7.2622 C.2       1 RES1    0.0000
     23 H8         2.5608    0.9355    7.3019 H         1 RES1    0.0000
     24 C11        6.7384   -0.7092    7.8092 C.1       1 RES1    0.0000
     25 C12        8.6448    0.7505    7.5406 C.1       1 RES1    0.0000
     26 C13        7.2086    2.5236    5.8740 C.ar      1 RES1    0.0000
     27 C14        7.0006    3.8498    6.2439 C.ar      1 RES1    0.0000
     28 H9         6.3950    4.0561    6.9468 H         1 RES1    0.0000
     29 C15        7.6717    4.8664    5.5915 C.ar      1 RES1    0.0000
     30 H10        7.5426    5.7730    5.8449 H         1 RES1    0.0000
     31 C16        8.5332    4.5400    4.5648 C.ar      1 RES1    0.0000
     32 C17        8.7782    3.2393    4.1807 C.ar      1 RES1    0.0000
     33 H11        9.3897    3.0402    3.4813 H         1 RES1    0.0000
     34 C18        8.1022    2.2317    4.8489 C.ar      1 RES1    0.0000
     35 H12        8.2509    1.3266    4.6028 H         1 RES1    0.0000
     36 C19        4.7455    1.0645    4.7981 C.3       1 RES1    0.0000
     37 H13        4.9711    1.9480    4.3867 H         1 RES1    0.0000
     38 C20        5.5777    0.0188    4.1065 C.2       1 RES1    0.0000
     39 H14        6.2126    0.3167    3.4642 H         1 RES1    0.0000
     40 C21        5.4923   -1.2904    4.3259 C.2       1 RES1    0.0000
     41 H15        6.1630   -1.8291    3.9215 H         1 RES1    0.0000
     42 C22        4.5015   -1.9859    5.1048 C.2       1 RES1    0.0000
     43 H16        4.7621   -2.7996    5.5200 H         1 RES1    0.0000
     44 C23        3.2331   -1.5708    5.2891 C.2       1 RES1    0.0000
     45 H17        2.6653   -2.1312    5.8043 H         1 RES1    0.0000
     46 C24        2.6634   -0.3585    4.7768 C.2       1 RES1    0.0000
     47 H18        1.7267   -0.3689    4.6159 H         1 RES1    0.0000
     48 C25        3.2998    0.7839    4.5000 C.2       1 RES1    0.0000
     49 H19        2.7981    1.4739    4.0814 H         1 RES1    0.0000
@<TRIPOS>BOND
     1    1    5 2
     2    2    5 2
     3    3   24 3
     4    4   25 3
     5    5   31 1
     6    6    7 1
     7    8    6 1
     8    9    8 1
     9   10    8 1
    10   11   10 2
    11   12    6 1
    12   13   12 1
    13   14   12 2
    14   15   14 1
    15   16   14 1
    16   17   16 1
    17   18   16 2
    18   19   18 1
    19   20   18 1
    20   21   20 1
    21   22    6 1
    22   23   22 1
    23   24   11 1
    24   25   11 1
    25   26   10 1
    26   27   26 ar
    27   28   27 1
    28   29   27 ar
    29   30   29 1
    30   31   29 ar
    31   32   31 ar
    32   33   32 1
    33   34   26 ar
    34   35   34 1
    35   36    8 1
    36   37   36 1
    37   38   36 1
    38   39   38 1
    39   40   38 2
    40   41   40 1
    41   42   40 1
    42   43   42 1
    43   44   42 2
    44   45   44 1
    45   46   44 1
    46   47   46 1
    47   48   36 1
    48   49   48 1
    49   20   22 2
    50   32   34 ar
    51   46   48 2
@<TRIPOS>SUBSTRUCTURE
     1 RES1 1

@<TRIPOS>CRYSIN
  17.7097    8.5590   13.1023  90.0000  90.0000  90.0000  29 1

