# MOL2 file generated by ConQuest
# Please check atom types

@<TRIPOS>MOLECULE
FIVPAD
    46    49     1
SMALL
NO_CHARGES
****
Generated from CSD

@<TRIPOS>ATOM
      1 N1         8.2808    6.8839   14.0085 N.1       1 RES1    0.0000
      2 N2         9.0844    2.7803   15.1260 N.1       1 RES1    0.0000
      3 N3         5.0623    5.7350   19.9428 N.pl3     1 RES1    0.0000
      4 O1         5.9841    5.9466   20.6582 O.2       1 RES1    0.0000
      5 O2         3.9431    5.8510   20.3159 O.2       1 RES1    0.0000
      6 N4        10.1315   -2.5152    8.7809 N.pl3     1 RES1    0.0000
      7 O3        11.1003   -2.9483    9.3873 O.2       1 RES1    0.0000
      8 O4         9.6180   -3.0820    7.8281 O.2       1 RES1    0.0000
      9 C1         5.7229    3.9405   12.2509 C.2       1 RES1    0.0000
     10 C2         5.1465    4.1198   13.5448 C.2       1 RES1    0.0000
     11 H1         4.2138    4.0537   13.7113 H         1 RES1    0.0000
     12 C3         6.0474    4.3919   14.5049 C.2       1 RES1    0.0000
     13 C4         7.4597    4.4039   13.8684 C.3       1 RES1    0.0000
     14 C5         7.2275    4.0235   12.3564 C.3       1 RES1    0.0000
     15 H2         7.5598    4.7653   11.7721 H         1 RES1    0.0000
     16 C6         7.8090    2.7226   11.8859 C.2       1 RES1    0.0000
     17 H3         8.2309    2.1453   12.5115 H         1 RES1    0.0000
     18 C7         7.7410    2.3619   10.5935 C.2       1 RES1    0.0000
     19 C8         6.9700    3.1087    9.6030 C.2       1 RES1    0.0000
     20 H4         7.3393    3.1769    8.7307 H         1 RES1    0.0000
     21 C9         5.7807    3.7106    9.8128 C.2       1 RES1    0.0000
     22 H5         5.3556    4.0959    9.0572 H         1 RES1    0.0000
     23 C10        5.0984    3.8252   11.0673 C.2       1 RES1    0.0000
     24 H6         4.1482    3.8196   11.0606 H         1 RES1    0.0000
     25 C11        7.9873    5.7821   13.9622 C.1       1 RES1    0.0000
     26 C12        8.3803    3.4849   14.5744 C.1       1 RES1    0.0000
     27 C13        5.8071    4.7259   15.9073 C.ar      1 RES1    0.0000
     28 C14        4.4918    4.8553   16.3822 C.ar      1 RES1    0.0000
     29 H7         3.7630    4.7182   15.7873 H         1 RES1    0.0000
     30 C15        4.2445    5.1795   17.6961 C.ar      1 RES1    0.0000
     31 H8         3.3519    5.2624   18.0139 H         1 RES1    0.0000
     32 C16        5.3113    5.3827   18.5463 C.ar      1 RES1    0.0000
     33 C17        6.6139    5.2674   18.1225 C.ar      1 RES1    0.0000
     34 H9         7.3354    5.4073   18.7254 H         1 RES1    0.0000
     35 C18        6.8512    4.9453   16.8063 C.ar      1 RES1    0.0000
     36 H10        7.7484    4.8701   16.5016 H         1 RES1    0.0000
     37 C19        8.3924    1.1117   10.1099 C.ar      1 RES1    0.0000
     38 C20        9.4732    0.5400   10.7883 C.ar      1 RES1    0.0000
     39 H11        9.8195    0.9725   11.5600 H         1 RES1    0.0000
     40 C21       10.0445   -0.6378   10.3602 C.ar      1 RES1    0.0000
     41 H12       10.7727   -1.0224   10.8318 H         1 RES1    0.0000
     42 C22        9.5382   -1.2467    9.2338 C.ar      1 RES1    0.0000
     43 C23        8.4813   -0.7172    8.5265 C.ar      1 RES1    0.0000
     44 H13        8.1495   -1.1511    7.7486 H         1 RES1    0.0000
     45 C24        7.9152    0.4585    8.9743 C.ar      1 RES1    0.0000
     46 H14        7.1825    0.8318    8.4963 H         1 RES1    0.0000
@<TRIPOS>BOND
     1    1   25 3
     2    2   26 3
     3    3    4 2
     4    5    3 2
     5    6    7 2
     6    8    6 2
     7    9   10 1
     8   10   11 1
     9   12   10 2
    10   13   12 1
    11   14    9 1
    12   15   14 1
    13   16   14 1
    14   17   16 1
    15   18   16 2
    16   19   18 1
    17   20   19 1
    18   21   19 2
    19   22   21 1
    20   23    9 2
    21   24   23 1
    22   25   13 1
    23   26   13 1
    24   27   12 1
    25   28   27 ar
    26   29   28 1
    27   30   28 ar
    28   31   30 1
    29   32    3 1
    30   33   32 ar
    31   34   33 1
    32   35   27 ar
    33   36   35 1
    34   37   18 1
    35   38   37 ar
    36   39   38 1
    37   40   38 ar
    38   41   40 1
    39   42    6 1
    40   43   42 ar
    41   44   43 1
    42   45   37 ar
    43   46   45 1
    44   13   14 1
    45   21   23 1
    46   30   32 ar
    47   33   35 ar
    48   40   42 ar
    49   43   45 ar
@<TRIPOS>SUBSTRUCTURE
     1 RES1 1

@<TRIPOS>CRYSIN
  19.8575    7.0316   27.9026  90.0000  90.0000  90.0000  61 1

