# MOL2 file generated by ConQuest
# Please check atom types

@<TRIPOS>MOLECULE
FIVPOR
    68    72     2
SMALL
NO_CHARGES
****
Generated from CSD

@<TRIPOS>ATOM
      1 O1         9.6779   -0.2149    5.5472 O.2       1 RES1    0.0000
      2 O2         7.9886   -0.8125    6.7461 O.2       1 RES1    0.0000
      3 N1         3.8741    2.2040    1.3345 N.1       1 RES1    0.0000
      4 N2         7.2377    4.7566    0.8458 N.1       1 RES1    0.0000
      5 N3         8.5282   -0.0734    5.9242 N.pl3     1 RES1    0.0000
      6 C1         3.6568    5.7223    3.6629 C.2       1 RES1    0.0000
      7 C2         4.4774    4.8682    4.4773 C.2       1 RES1    0.0000
      8 H1         4.4306    4.8505    5.4256 H         1 RES1    0.0000
      9 C3         5.3130    4.1014    3.7686 C.2       1 RES1    0.0000
     10 C4         5.0717    4.3537    2.2597 C.3       1 RES1    0.0000
     11 C5         4.0675    5.5681    2.2194 C.3       1 RES1    0.0000
     12 H2         3.2684    5.3184    1.6723 H         1 RES1    0.0000
     13 C6         4.6182    6.8767    1.7276 C.2       1 RES1    0.0000
     14 H3         5.5329    6.9455    1.4793 H         1 RES1    0.0000
     15 C7         3.8134    7.9502    1.6406 C.2       1 RES1    0.0000
     16 H4         4.1789    8.7294    1.2398 H         1 RES1    0.0000
     17 C8         2.4525    8.0318    2.0967 C.2       1 RES1    0.0000
     18 H5         1.8654    8.5845    1.5934 H         1 RES1    0.0000
     19 C9         1.9250    7.4013    3.1677 C.2       1 RES1    0.0000
     20 H6         1.0079    7.5613    3.3560 H         1 RES1    0.0000
     21 C10        2.6277    6.5113    4.0488 C.2       1 RES1    0.0000
     22 H7         2.3535    6.4744    4.9578 H         1 RES1    0.0000
     23 C11        4.4132    3.1446    1.6974 C.1       1 RES1    0.0000
     24 C12        6.2973    4.5877    1.4659 C.1       1 RES1    0.0000
     25 C13        6.1815    3.0374    4.2945 C.ar      1 RES1    0.0000
     26 C14        5.7501    2.3206    5.4155 C.ar      1 RES1    0.0000
     27 H8         4.9171    2.5392    5.8159 H         1 RES1    0.0000
     28 C15        6.5041    1.3096    5.9455 C.ar      1 RES1    0.0000
     29 H9         6.1933    0.8178    6.6964 H         1 RES1    0.0000
     30 C16        7.7272    1.0164    5.3707 C.ar      1 RES1    0.0000
     31 C17        8.1946    1.6998    4.2647 C.ar      1 RES1    0.0000
     32 H10        9.0371    1.4848    3.8815 H         1 RES1    0.0000
     33 C18        7.4167    2.6972    3.7307 C.ar      1 RES1    0.0000
     34 H11        7.7229    3.1654    2.9629 H         1 RES1    0.0000
     35 O3         8.8709    1.7200    8.5129 O.2       2 RES2    0.0000
     36 O4         9.1759    3.3963    7.1973 O.2       2 RES2    0.0000
     37 N4         5.8817    5.7493   13.2549 N.1       2 RES2    0.0000
     38 N5         2.5386    3.2949   12.3896 N.1       2 RES2    0.0000
     39 N6         8.5580    2.8168    8.0827 N.pl3     2 RES2    0.0000
     40 C19        2.3667    7.0992   10.5235 C.2       2 RES2    0.0000
     41 C20        3.2647    6.4097    9.6349 C.2       2 RES2    0.0000
     42 H12        3.2699    6.5339    8.6928 H         2 RES2    0.0000
     43 C21        4.0916    5.5738   10.2757 C.2       2 RES2    0.0000
     44 C22        3.7320    5.5494   11.7777 C.3       2 RES2    0.0000
     45 C23        2.7131    6.7402   11.9451 C.3       2 RES2    0.0000
     46 H13        1.8952    6.4227   12.4249 H         2 RES2    0.0000
     47 C24        3.2446    7.9748   12.6065 C.2       2 RES2    0.0000
     48 H14        4.1523    8.0091   12.8842 H         2 RES2    0.0000
     49 C25        2.4427    9.0314   12.8086 C.2       2 RES2    0.0000
     50 H15        2.7992    9.7557   13.3097 H         2 RES2    0.0000
     51 C26        1.0887    9.1644   12.3331 C.2       2 RES2    0.0000
     52 H16        0.4777    9.6250   12.8969 H         2 RES2    0.0000
     53 C27        0.6081    8.6960   11.1593 C.2       2 RES2    0.0000
     54 H17       -0.3004    8.8845   10.9540 H         2 RES2    0.0000
     55 C28        1.3548    7.9378   10.2021 C.2       2 RES2    0.0000
     56 H18        1.1253    8.0284    9.2845 H         2 RES2    0.0000
     57 C29        4.9377    5.6687   12.6293 C.1       2 RES2    0.0000
     58 C30        3.0651    4.2706   12.1340 C.1       2 RES2    0.0000
     59 C31        5.2057    4.8022    9.7025 C.ar      2 RES2    0.0000
     60 C32        5.7926    5.2401    8.5092 C.ar      2 RES2    0.0000
     61 H19        5.4363    5.9997    8.0630 H         2 RES2    0.0000
     62 C33        6.8759    4.5889    7.9744 C.ar      2 RES2    0.0000
     63 H20        7.2781    4.8960    7.1712 H         2 RES2    0.0000
     64 C34        7.3682    3.4779    8.6290 C.ar      2 RES2    0.0000
     65 C35        6.8025    2.9863    9.7797 C.ar      2 RES2    0.0000
     66 H21        7.1404    2.1995   10.1918 H         2 RES2    0.0000
     67 C36        5.7222    3.6683   10.3253 C.ar      2 RES2    0.0000
     68 H22        5.3312    3.3582   11.1330 H         2 RES2    0.0000
@<TRIPOS>BOND
     1    1    5 2
     2    2    5 2
     3    3   23 3
     4    4   24 3
     5    5   30 1
     6    6    7 1
     7    7    8 1
     8    9    7 2
     9   10    9 1
    10   11    6 1
    11   12   11 1
    12   13   11 1
    13   14   13 1
    14   15   13 2
    15   16   15 1
    16   17   15 1
    17   18   17 1
    18   19   17 2
    19   20   19 1
    20   21    6 2
    21   22   21 1
    22   23   10 1
    23   24   10 1
    24   25    9 1
    25   26   25 ar
    26   27   26 1
    27   28   26 ar
    28   29   28 1
    29   30   28 ar
    30   31   30 ar
    31   32   31 1
    32   33   25 ar
    33   34   33 1
    34   35   39 2
    35   36   39 2
    36   37   57 3
    37   38   58 3
    38   39   64 1
    39   40   41 1
    40   41   42 1
    41   43   41 2
    42   44   43 1
    43   45   40 1
    44   46   45 1
    45   47   45 1
    46   48   47 1
    47   49   47 2
    48   50   49 1
    49   51   49 1
    50   52   51 1
    51   53   51 2
    52   54   53 1
    53   55   40 2
    54   56   55 1
    55   57   44 1
    56   58   44 1
    57   59   43 1
    58   60   59 ar
    59   61   60 1
    60   62   60 ar
    61   63   62 1
    62   64   62 ar
    63   65   64 ar
    64   66   65 1
    65   67   59 ar
    66   68   67 1
    67   10   11 1
    68   19   21 1
    69   31   33 ar
    70   44   45 1
    71   53   55 1
    72   65   67 ar
@<TRIPOS>SUBSTRUCTURE
     1 RES1 1
     2 RES2 35

@<TRIPOS>CRYSIN
   6.1413    8.6786   14.2186  84.6990  83.1500  74.5220   1 1

