# MOL2 file generated by ConQuest
# Please check atom types

@<TRIPOS>MOLECULE
FIVQOS
   164   174     2
SMALL
NO_CHARGES
****
Generated from CSD

@<TRIPOS>ATOM
      1 O1         1.6048    5.8209   11.4944 O.3       1 RES1    0.0000
      2 O2         1.3575    8.2177   13.0361 O.3       1 RES1    0.0000
      3 O3         1.4563   10.0467   14.3275 O.2       1 RES1    0.0000
      4 O4         0.2883    8.8699   10.0214 O.3       1 RES1    0.0000
      5 O5         2.1014    7.8993    7.9674 O.3       1 RES1    0.0000
      6 O6         2.3618    4.9586    8.0667 O.3       1 RES1    0.0000
      7 O7         4.0616    4.4857   11.3388 O.3       1 RES1    0.0000
      8 N1         0.3245    7.4023   12.5187 N.3       1 RES1    0.0000
      9 C1         0.6448    6.8289   11.2383 C.3       1 RES1    0.0000
     10 H1        -0.1765    6.4076   10.8544 H         1 RES1    0.0000
     11 C2         1.2211    7.8177   10.2224 C.3       1 RES1    0.0000
     12 H2         2.0817    8.1920   10.5677 H         1 RES1    0.0000
     13 C3         1.4747    7.0579    8.9276 C.3       1 RES1    0.0000
     14 H3         0.5996    6.7418    8.5605 H         1 RES1    0.0000
     15 C4         2.3754    5.8484    9.1741 C.3       1 RES1    0.0000
     16 H4         3.3108    6.1536    9.3509 H         1 RES1    0.0000
     17 C5         1.8742    5.0066   10.3503 C.3       1 RES1    0.0000
     18 H5         1.0262    4.5531   10.0763 H         1 RES1    0.0000
     19 C6        -0.8567    8.0230   12.8053 C.2       1 RES1    0.0000
     20 H6        -1.6244    7.6269   12.4976 H         1 RES1    0.0000
     21 C7        -0.6687    9.0984   13.5843 C.2       1 RES1    0.0000
     22 H7        -1.3440    9.7134   13.9130 H         1 RES1    0.0000
     23 C8         0.7451    9.2707   13.7505 C.2       1 RES1    0.0000
     24 C9         0.9157   10.1690   10.0844 C.3       1 RES1    0.0000
     25 H8         1.6281   10.2297    9.3999 H         1 RES1    0.0000
     26 H9         1.3297   10.2976   10.9745 H         1 RES1    0.0000
     27 C10       -0.1116   11.2345    9.8432 C.ar      1 RES1    0.0000
     28 C11       -0.1938   11.8785    8.6188 C.ar      1 RES1    0.0000
     29 H10        0.3956   11.6287    7.9172 H         1 RES1    0.0000
     30 C12       -1.1282   12.8845    8.4061 C.ar      1 RES1    0.0000
     31 H11       -1.1709   13.3241    7.5655 H         1 RES1    0.0000
     32 C13       -1.9929   13.2423    9.4186 C.ar      1 RES1    0.0000
     33 H12       -2.6450   13.9173    9.2724 H         1 RES1    0.0000
     34 C14       -1.9091   12.6178   10.6439 C.ar      1 RES1    0.0000
     35 H13       -2.4965   12.8709   11.3458 H         1 RES1    0.0000
     36 C15       -0.9698   11.6217   10.8537 C.ar      1 RES1    0.0000
     37 H14       -0.9149   11.1989   11.7036 H         1 RES1    0.0000
     38 C16        1.2395    8.2964    6.9048 C.3       1 RES1    0.0000
     39 H15        0.4604    8.7855    7.2702 H         1 RES1    0.0000
     40 H16        0.9061    7.4963    6.4259 H         1 RES1    0.0000
     41 C17        1.9986    9.1820    5.9524 C.ar      1 RES1    0.0000
     42 C18        1.7161    9.1236    4.5951 C.ar      1 RES1    0.0000
     43 H17        1.0808    8.4945    4.2729 H         1 RES1    0.0000
     44 C19        2.3519    9.9738    3.7035 C.ar      1 RES1    0.0000
     45 H18        2.1426    9.9299    2.7779 H         1 RES1    0.0000
     46 C20        3.2827   10.8789    4.1513 C.ar      1 RES1    0.0000
     47 H19        3.7124   11.4653    3.5401 H         1 RES1    0.0000
     48 C21        3.5903   10.9305    5.4995 C.ar      1 RES1    0.0000
     49 H20        4.2499   11.5395    5.8108 H         1 RES1    0.0000
     50 C22        2.9394   10.0945    6.4011 C.ar      1 RES1    0.0000
     51 H21        3.1411   10.1493    7.3278 H         1 RES1    0.0000
     52 C23        3.3245    5.2140    7.0382 C.3       1 RES1    0.0000
     53 H22        4.1954    5.4642    7.4368 H         1 RES1    0.0000
     54 H23        3.0187    5.9565    6.4578 H         1 RES1    0.0000
     55 C24        3.4613    3.9543    6.2413 C.ar      1 RES1    0.0000
     56 C25        4.5121    3.0896    6.4940 C.ar      1 RES1    0.0000
     57 H24        5.1623    3.3178    7.1476 H         1 RES1    0.0000
     58 C26        4.6240    1.8942    5.8021 C.ar      1 RES1    0.0000
     59 H25        5.3440    1.3021    5.9872 H         1 RES1    0.0000
     60 C27        3.6891    1.5671    4.8463 C.ar      1 RES1    0.0000
     61 H26        3.7681    0.7501    4.3673 H         1 RES1    0.0000
     62 C28        2.6412    2.4190    4.5827 C.ar      1 RES1    0.0000
     63 H27        1.9979    2.1900    3.9224 H         1 RES1    0.0000
     64 C29        2.5236    3.6102    5.2795 C.ar      1 RES1    0.0000
     65 H28        1.7972    4.1939    5.0976 H         1 RES1    0.0000
     66 C30        2.8676    3.9418   10.7967 C.3       1 RES1    0.0000
     67 H29        2.4381    3.3661   11.4781 H         1 RES1    0.0000
     68 H30        3.0975    3.3711   10.0212 H         1 RES1    0.0000
     69 C31        4.0684    4.6751   12.7725 C.3       1 RES1    0.0000
     70 H31        3.3628    5.3269   13.0123 H         1 RES1    0.0000
     71 H32        4.9395    5.0625   13.0393 H         1 RES1    0.0000
     72 C32        3.8421    3.4073   13.5510 C.ar      1 RES1    0.0000
     73 C33        2.6347    3.1666   14.1807 C.ar      1 RES1    0.0000
     74 H33        1.9435    3.8168   14.1384 H         1 RES1    0.0000
     75 C34        2.4241    1.9846   14.8735 C.ar      1 RES1    0.0000
     76 H34        1.5872    1.8251   15.2940 H         1 RES1    0.0000
     77 C35        3.4230    1.0399   14.9556 C.ar      1 RES1    0.0000
     78 H35        3.2781    0.2319   15.4337 H         1 RES1    0.0000
     79 C36        4.6322    1.2734   14.3403 C.ar      1 RES1    0.0000
     80 H36        5.3231    0.6232   14.3896 H         1 RES1    0.0000
     81 C37        4.8427    2.4537   13.6490 C.ar      1 RES1    0.0000
     82 H37        5.6840    2.6117   13.2366 H         1 RES1    0.0000
     83 O8        -3.7979    6.2290   11.5285 O.3       2 RES2    0.0000
     84 O9        -3.9021    8.8111   12.8866 O.3       2 RES2    0.0000
     85 O10       -3.7462   10.7235   14.0421 O.2       2 RES2    0.0000
     86 O11       -5.1375    9.2008    9.9312 O.3       2 RES2    0.0000
     87 O12       -3.3965    8.1010    7.8837 O.3       2 RES2    0.0000
     88 O13       -3.0726    5.2171    8.1121 O.3       2 RES2    0.0000
     89 O14       -1.5833    4.5955   11.3205 O.3       2 RES2    0.0000
     90 N2        -4.9492    7.9400   12.5201 N.3       2 RES2    0.0000
     91 C38       -4.7310    7.2607   11.2724 C.3       2 RES2    0.0000
     92 H38       -5.5922    6.8499   10.9733 H         2 RES2    0.0000
     93 C39       -4.1969    8.1610   10.1533 C.3       2 RES2    0.0000
     94 H39       -3.3220    8.5570   10.4329 H         2 RES2    0.0000
     95 C40       -3.9940    7.3144    8.9014 C.3       2 RES2    0.0000
     96 H40       -4.8825    6.9856    8.5813 H         2 RES2    0.0000
     97 C41       -3.1029    6.1180    9.2086 C.3       2 RES2    0.0000
     98 H41       -2.1759    6.4311    9.4158 H         2 RES2    0.0000
     99 C42       -3.6687    5.3471   10.4021 C.3       2 RES2    0.0000
    100 H42       -4.5810    5.0203   10.1572 H         2 RES2    0.0000
    101 C43       -6.1132    8.5326   12.8892 C.2       2 RES2    0.0000
    102 H43       -6.9496    8.0475   12.6876 H         2 RES2    0.0000
    103 C44       -5.8898    9.6510   13.5918 C.2       2 RES2    0.0000
    104 H44       -6.5296   10.2086   14.0049 H         2 RES2    0.0000
    105 C45       -4.4794    9.8820   13.5946 C.2       2 RES2    0.0000
    106 C46       -4.5171   10.5030    9.8902 C.3       2 RES2    0.0000
    107 H45       -3.8710   10.5443    9.1413 H         2 RES2    0.0000
    108 H46       -4.0255   10.6686   10.7331 H         2 RES2    0.0000
    109 C47       -5.5807   11.5447    9.7053 C.ar      2 RES2    0.0000
    110 C48       -5.5949   12.3467    8.5766 C.ar      2 RES2    0.0000
    111 H47       -4.9274   12.2324    7.9111 H         2 RES2    0.0000
    112 C49       -6.5682   13.3110    8.4072 C.ar      2 RES2    0.0000
    113 H48       -6.5661   13.8537    7.6280 H         2 RES2    0.0000
    114 C50       -7.5456   13.4894    9.3686 C.ar      2 RES2    0.0000
    115 H49       -8.2228   14.1442    9.2455 H         2 RES2    0.0000
    116 C51       -7.5305   12.7099   10.5090 C.ar      2 RES2    0.0000
    117 H50       -8.1915   12.8359   11.1791 H         2 RES2    0.0000
    118 C52       -6.5551   11.7484   10.6747 C.ar      2 RES2    0.0000
    119 H51       -6.5495   11.2183   11.4622 H         2 RES2    0.0000
    120 C53       -4.2350    8.3503    6.7721 C.3       2 RES2    0.0000
    121 H52       -5.0807    8.7648    7.0766 H         2 RES2    0.0000
    122 H53       -4.4537    7.4974    6.3193 H         2 RES2    0.0000
    123 C54       -3.5334    9.2730    5.8100 C.ar      2 RES2    0.0000
    124 C55       -4.0779    9.4584    4.5399 C.ar      2 RES2    0.0000
    125 H54       -4.8681    8.9944    4.2901 H         2 RES2    0.0000
    126 C56       -3.4663   10.3168    3.6443 C.ar      2 RES2    0.0000
    127 H55       -3.8441   10.4424    2.7816 H         2 RES2    0.0000
    128 C57       -2.3149   10.9916    3.9868 C.ar      2 RES2    0.0000
    129 H56       -1.9024   11.5792    3.3649 H         2 RES2    0.0000
    130 C58       -1.7655   10.8082    5.2397 C.ar      2 RES2    0.0000
    131 H57       -0.9663   11.2626    5.4787 H         2 RES2    0.0000
    132 C59       -2.3820    9.9568    6.1539 C.ar      2 RES2    0.0000
    133 H58       -2.0082    9.8456    7.0202 H         2 RES2    0.0000
    134 C60       -1.8648    5.2294    7.3736 C.3       2 RES2    0.0000
    135 H59       -1.0923    5.2073    7.9932 H         2 RES2    0.0000
    136 H60       -1.8085    6.0596    6.8364 H         2 RES2    0.0000
    137 C61       -1.8253    4.0353    6.4698 C.ar      2 RES2    0.0000
    138 C62       -0.7657    3.1528    6.5762 C.ar      2 RES2    0.0000
    139 H61       -0.0721    3.3227    7.2028 H         2 RES2    0.0000
    140 C63       -0.7081    2.0283    5.7785 C.ar      2 RES2    0.0000
    141 H62        0.0236    1.4272    5.8585 H         2 RES2    0.0000
    142 C64       -1.7074    1.7755    4.8668 C.ar      2 RES2    0.0000
    143 H63       -1.6712    0.9961    4.3256 H         2 RES2    0.0000
    144 C65       -2.7625    2.6549    4.7399 C.ar      2 RES2    0.0000
    145 H64       -3.4487    2.4847    4.1050 H         2 RES2    0.0000
    146 C66       -2.8218    3.7842    5.5355 C.ar      2 RES2    0.0000
    147 H65       -3.5468    4.3906    5.4431 H         2 RES2    0.0000
    148 C67       -2.8540    4.1665   10.8493 C.3       2 RES2    0.0000
    149 H66       -3.3321    3.6878   11.5725 H         2 RES2    0.0000
    150 H67       -2.7329    3.5403   10.0922 H         2 RES2    0.0000
    151 C68       -0.9088    3.5417   12.0164 C.3       2 RES2    0.0000
    152 H68        0.0326    3.8097   12.1668 H         2 RES2    0.0000
    153 H69       -0.9041    2.7333   11.4450 H         2 RES2    0.0000
    154 C69       -1.5354    3.1939   13.3461 C.ar      2 RES2    0.0000
    155 C70       -2.1597    4.1587   14.1167 C.ar      2 RES2    0.0000
    156 H70       -2.2243    5.0508   13.7978 H         2 RES2    0.0000
    157 C71       -2.6924    3.8265   15.3557 C.ar      2 RES2    0.0000
    158 H71       -3.1279    4.4889   15.8797 H         2 RES2    0.0000
    159 C72       -2.5880    2.5312   15.8260 C.ar      2 RES2    0.0000
    160 H72       -2.9452    2.3068   16.6774 H         2 RES2    0.0000
    161 C73       -1.9717    1.5677   15.0711 C.ar      2 RES2    0.0000
    162 H73       -1.8994    0.6790   15.3981 H         2 RES2    0.0000
    163 C74       -1.4545    1.8952   13.8288 C.ar      2 RES2    0.0000
    164 H74       -1.0391    1.2225   13.3015 H         2 RES2    0.0000
@<TRIPOS>BOND
     1    1    9 1
     2    2    8 1
     3    3   23 2
     4    4   11 1
     5    5   13 1
     6    6   15 1
     7    7   66 1
     8    8    9 1
     9    9   10 1
    10   11    9 1
    11   12   11 1
    12   13   11 1
    13   14   13 1
    14   15   13 1
    15   16   15 1
    16   17    1 1
    17   18   17 1
    18   19    8 1
    19   20   19 1
    20   21   19 2
    21   22   21 1
    22   23    2 1
    23   24    4 1
    24   25   24 1
    25   26   24 1
    26   27   24 1
    27   28   27 ar
    28   29   28 1
    29   30   28 ar
    30   31   30 1
    31   32   30 ar
    32   33   32 1
    33   34   32 ar
    34   35   34 1
    35   36   27 ar
    36   37   36 1
    37   38    5 1
    38   39   38 1
    39   40   38 1
    40   41   38 1
    41   42   41 ar
    42   43   42 1
    43   44   42 ar
    44   45   44 1
    45   46   44 ar
    46   47   46 1
    47   48   46 ar
    48   49   48 1
    49   50   41 ar
    50   51   50 1
    51   52    6 1
    52   53   52 1
    53   54   52 1
    54   55   52 1
    55   56   55 ar
    56   57   56 1
    57   58   56 ar
    58   59   58 1
    59   60   58 ar
    60   61   60 1
    61   62   60 ar
    62   63   62 1
    63   64   55 ar
    64   65   64 1
    65   66   17 1
    66   67   66 1
    67   68   66 1
    68   69    7 1
    69   70   69 1
    70   71   69 1
    71   72   69 1
    72   73   72 ar
    73   74   73 1
    74   75   73 ar
    75   76   75 1
    76   77   75 ar
    77   78   77 1
    78   79   77 ar
    79   80   79 1
    80   81   72 ar
    81   82   81 1
    82   83   91 1
    83   84   90 1
    84   85  105 2
    85   86   93 1
    86   87   95 1
    87   88   97 1
    88   89  148 1
    89   90   91 1
    90   91   92 1
    91   93   91 1
    92   94   93 1
    93   95   93 1
    94   96   95 1
    95   97   95 1
    96   98   97 1
    97   99   83 1
    98  100   99 1
    99  101   90 1
   100  102  101 1
   101  103  101 2
   102  104  103 1
   103  105   84 1
   104  106   86 1
   105  107  106 1
   106  108  106 1
   107  109  106 1
   108  110  109 ar
   109  111  110 1
   110  112  110 ar
   111  113  112 1
   112  114  112 ar
   113  115  114 1
   114  116  114 ar
   115  117  116 1
   116  118  109 ar
   117  119  118 1
   118  120   87 1
   119  121  120 1
   120  122  120 1
   121  123  120 1
   122  124  123 ar
   123  125  124 1
   124  126  124 ar
   125  127  126 1
   126  128  126 ar
   127  129  128 1
   128  130  128 ar
   129  131  130 1
   130  132  123 ar
   131  133  132 1
   132  134   88 1
   133  135  134 1
   134  136  134 1
   135  137  134 1
   136  138  137 ar
   137  139  138 1
   138  140  138 ar
   139  141  140 1
   140  142  140 ar
   141  143  142 1
   142  144  142 ar
   143  145  144 1
   144  146  137 ar
   145  147  146 1
   146  148   99 1
   147  149  148 1
   148  150  148 1
   149  151   89 1
   150  152  151 1
   151  153  151 1
   152  154  151 1
   153  155  154 ar
   154  156  155 1
   155  157  155 ar
   156  158  157 1
   157  159  157 ar
   158  160  159 1
   159  161  159 ar
   160  162  161 1
   161  163  154 ar
   162  164  163 1
   163   15   17 1
   164   21   23 1
   165   34   36 ar
   166   48   50 ar
   167   62   64 ar
   168   79   81 ar
   169   97   99 1
   170  103  105 1
   171  116  118 ar
   172  130  132 ar
   173  144  146 ar
   174  161  163 ar
@<TRIPOS>SUBSTRUCTURE
     1 RES1 1
     2 RES2 83

@<TRIPOS>CRYSIN
  10.6443   12.4845   12.8966 104.6090  96.5560 104.5200   1 1

