# MOL2 file generated by ConQuest
# Please check atom types

@<TRIPOS>MOLECULE
FIVSEK
    64    66     1
SMALL
NO_CHARGES
****
Generated from CSD

@<TRIPOS>ATOM
      1 O1         2.0569    3.1788    6.4493 O.3       1 RES1    0.0000
      2 O2         1.4038    5.2578    5.9529 O.2       1 RES1    0.0000
      3 O3         2.3197    1.7368   11.0600 O.2       1 RES1    0.0000
      4 O4         1.2381    2.8216   12.5742 O.2       1 RES1    0.0000
      5 O5        -0.5946    7.1813   11.5651 O.2       1 RES1    0.0000
      6 O6        -0.4976    7.9489    9.5606 O.2       1 RES1    0.0000
      7 O7         4.8930   -0.4119    2.4854 O.3       1 RES1    0.0000
      8 O8         5.0702   -2.4375    3.4443 O.2       1 RES1    0.0000
      9 O9        10.2386    0.1576   -0.5827 O.2       1 RES1    0.0000
     10 O10        8.4301    1.2756   -0.3139 O.2       1 RES1    0.0000
     11 O11       10.8128   -4.0972    1.5669 O.2       1 RES1    0.0000
     12 O12        9.1753   -4.9717    2.6775 O.2       1 RES1    0.0000
     13 N1         1.6589    2.6979   11.4525 N.pl3     1 RES1    0.0000
     14 N2        -0.2653    7.0839   10.4008 N.pl3     1 RES1    0.0000
     15 N3         9.1263    0.3111   -0.1150 N.pl3     1 RES1    0.0000
     16 N4         9.6706   -4.0810    2.0186 N.pl3     1 RES1    0.0000
     17 C1         2.8115    1.5285    4.9218 C.3       1 RES1    0.0000
     18 H1         2.2328    0.8150    5.2015 H         1 RES1    0.0000
     19 C2         3.7507    1.2093    3.7977 C.3       1 RES1    0.0000
     20 H2         3.9550    1.9431    3.2128 H         1 RES1    0.0000
     21 C3         4.3026    1.3317    5.2027 C.3       1 RES1    0.0000
     22 H3         4.7881    2.1433    5.3711 H         1 RES1    0.0000
     23 C4         2.2454    2.9096    5.0267 C.3       1 RES1    0.0000
     24 H4         2.8507    3.5487    4.6434 H         1 RES1    0.0000
     25 H5         1.4090    2.9637    4.5633 H         1 RES1    0.0000
     26 C5         1.6243    4.3867    6.7567 C.2       1 RES1    0.0000
     27 C6         1.3804    4.5490    8.2151 C.ar      1 RES1    0.0000
     28 C7         0.7890    5.7407    8.6495 C.ar      1 RES1    0.0000
     29 H6         0.6319    6.4590    8.0319 H         1 RES1    0.0000
     30 C8         0.4331    5.8699    9.9898 C.ar      1 RES1    0.0000
     31 C9         0.6926    4.8939   10.9059 C.ar      1 RES1    0.0000
     32 H7         0.4504    4.9981   11.8275 H         1 RES1    0.0000
     33 C10        1.3165    3.7570   10.4566 C.ar      1 RES1    0.0000
     34 C11        1.6600    3.5446    9.1481 C.ar      1 RES1    0.0000
     35 H8         2.0820    2.7270    8.8768 H         1 RES1    0.0000
     36 C12        4.7575    0.1427    6.0278 C.3       1 RES1    0.0000
     37 H9         4.3358   -0.6506    5.6917 H         1 RES1    0.0000
     38 H10        5.7059    0.0365    5.9261 H         1 RES1    0.0000
     39 C13        4.4408    0.2834    7.4893 C.3       1 RES1    0.0000
     40 H11        3.4892    0.3551    7.5972 H         1 RES1    0.0000
     41 H12        4.8326    1.0950    7.8192 H         1 RES1    0.0000
     42 C14        4.9429   -0.8813    8.3156 C.3       1 RES1    0.0000
     43 H13        4.5338   -1.6874    7.9949 H         1 RES1    0.0000
     44 H14        5.8905   -0.9651    8.1861 H         1 RES1    0.0000
     45 C15        4.6697   -0.7500    9.7832 C.3       1 RES1    0.0000
     46 H15        5.1132    0.0311   10.1224 H         1 RES1    0.0000
     47 H16        4.9975   -1.5278   10.2396 H         1 RES1    0.0000
     48 H17        3.7239   -0.6689    9.9251 H         1 RES1    0.0000
     49 C16        3.5848   -0.1258    3.1184 C.3       1 RES1    0.0000
     50 H18        3.3733   -0.8035    3.7647 H         1 RES1    0.0000
     51 C17        2.5515   -0.1055    2.0257 C.3       1 RES1    0.0000
     52 H19        2.8651    0.4369    1.2981 H         1 RES1    0.0000
     53 H20        1.7344    0.2590    2.3680 H         1 RES1    0.0000
     54 H21        2.4004   -1.0010    1.7143 H         1 RES1    0.0000
     55 C18        5.5057   -1.5610    2.7706 C.2       1 RES1    0.0000
     56 C19        6.8467   -1.6448    2.0997 C.ar      1 RES1    0.0000
     57 C20        7.3396   -0.6067    1.3153 C.ar      1 RES1    0.0000
     58 H22        6.8287    0.1934    1.1686 H         1 RES1    0.0000
     59 C21        8.6007   -0.7751    0.7529 C.ar      1 RES1    0.0000
     60 C22        9.3839   -1.8795    0.9558 C.ar      1 RES1    0.0000
     61 H23       10.2641   -1.9512    0.5766 H         1 RES1    0.0000
     62 C23        8.8435   -2.8900    1.7374 C.ar      1 RES1    0.0000
     63 C24        7.6021   -2.7980    2.3168 C.ar      1 RES1    0.0000
     64 H24        7.2631   -3.5122    2.8613 H         1 RES1    0.0000
@<TRIPOS>BOND
     1    1   23 1
     2    2   26 2
     3    3   13 2
     4    4   13 2
     5    5   14 2
     6    6   14 2
     7    7   49 1
     8    8   55 2
     9    9   15 2
    10   10   15 2
    11   11   16 2
    12   12   16 2
    13   13   33 1
    14   14   30 1
    15   15   59 1
    16   16   62 1
    17   17   18 1
    18   19   17 1
    19   20   19 1
    20   21   17 1
    21   22   21 1
    22   23   17 1
    23   24   23 1
    24   25   23 1
    25   26    1 1
    26   27   26 1
    27   28   27 ar
    28   29   28 1
    29   30   28 ar
    30   31   30 ar
    31   32   31 1
    32   33   31 ar
    33   34   27 ar
    34   35   34 1
    35   36   21 1
    36   37   36 1
    37   38   36 1
    38   39   36 1
    39   40   39 1
    40   41   39 1
    41   42   39 1
    42   43   42 1
    43   44   42 1
    44   45   42 1
    45   46   45 1
    46   47   45 1
    47   48   45 1
    48   49   19 1
    49   50   49 1
    50   51   49 1
    51   52   51 1
    52   53   51 1
    53   54   51 1
    54   55    7 1
    55   56   55 1
    56   57   56 ar
    57   58   57 1
    58   59   57 ar
    59   60   59 ar
    60   61   60 1
    61   62   60 ar
    62   63   56 ar
    63   64   63 1
    64   19   21 1
    65   33   34 ar
    66   62   63 ar
@<TRIPOS>SUBSTRUCTURE
     1 RES1 1

@<TRIPOS>CRYSIN
  27.5180    6.7633   30.9120  90.0000  94.1030  90.0000  15 1

