# MOL2 file generated by ConQuest
# Please check atom types

@<TRIPOS>MOLECULE
FIWFUO
    54    56     1
SMALL
NO_CHARGES
****
Generated from CSD

@<TRIPOS>ATOM
      1 C1         7.7366   -1.5809    2.4026 C.ar      1 RES1    0.0000
      2 C2         9.5833   -0.0930    2.6510 C.ar      1 RES1    0.0000
      3 C3         5.0749   -0.6703    3.2466 C.2       1 RES1    0.0000
      4 C4         5.1202   -1.8924    2.3884 C.3       1 RES1    0.0000
      5 H1         4.7880   -2.6992    2.8345 H         1 RES1    0.0000
      6 C5         8.4863   -0.5181    1.9349 C.ar      1 RES1    0.0000
      7 H2         8.2507   -0.0930    1.1425 H         1 RES1    0.0000
      8 C6         3.4449   -0.6823    0.7133 C.ar      1 RES1    0.0000
      9 C7         4.5358   -1.6804    0.9639 C.3       1 RES1    0.0000
     10 H3         4.2511   -2.5491    0.6107 H         1 RES1    0.0000
     11 C8         4.4274    0.2985    5.3739 C.3       1 RES1    0.0000
     12 H4         5.1384    0.9367    5.2115 H         1 RES1    0.0000
     13 H5         4.4903    0.0033    6.2949 H         1 RES1    0.0000
     14 C9         6.5156   -2.0870    1.6941 C.3       1 RES1    0.0000
     15 H6         6.6382   -3.0384    1.4927 H         1 RES1    0.0000
     16 C10        3.0887    0.9677    5.1493 C.3       1 RES1    0.0000
     17 H7         2.9335    1.0427    4.1937 H         1 RES1    0.0000
     18 H8         2.3926    0.4001    5.5157 H         1 RES1    0.0000
     19 C11        5.9618   -1.3841    0.4472 C.3       1 RES1    0.0000
     20 H9         6.1794   -1.8321   -0.3852 H         1 RES1    0.0000
     21 H10        6.1761   -0.4393    0.4027 H         1 RES1    0.0000
     22 C12        8.1372   -2.1822    3.5793 C.ar      1 RES1    0.0000
     23 H11        7.6521   -2.9063    3.9026 H         1 RES1    0.0000
     24 C13        9.9753   -0.6736    3.8299 C.ar      1 RES1    0.0000
     25 H12       10.7129   -0.3577    4.3009 H         1 RES1    0.0000
     26 C14        9.2354   -1.7424    4.2906 C.ar      1 RES1    0.0000
     27 H13        9.4757   -2.1680    5.0823 H         1 RES1    0.0000
     28 C15        2.3652   -0.5784    1.5538 C.ar      1 RES1    0.0000
     29 H14        2.2884   -1.1444    2.2873 H         1 RES1    0.0000
     30 C16        1.3921    0.3718    1.3034 C.ar      1 RES1    0.0000
     31 C17        3.4921    0.1756   -0.3760 C.ar      1 RES1    0.0000
     32 H15        4.2115    0.1256   -0.9609 H         1 RES1    0.0000
     33 C18        2.5022    1.0949   -0.6129 C.ar      1 RES1    0.0000
     34 H16        2.5512    1.6451   -1.3614 H         1 RES1    0.0000
     35 C19        1.6538    2.8117    5.4544 C.3       1 RES1    0.0000
     36 H17        1.5733    2.9824    4.5132 H         1 RES1    0.0000
     37 H18        1.5303    3.6304    5.9403 H         1 RES1    0.0000
     38 H19        0.9874    2.1756    5.7214 H         1 RES1    0.0000
     39 C20        3.1689    2.2115    7.1989 C.3       1 RES1    0.0000
     40 H20        2.5220    1.6157    7.5819 H         1 RES1    0.0000
     41 H21        3.0598    3.0879    7.5753 H         1 RES1    0.0000
     42 H22        4.0538    1.8897    7.3915 H         1 RES1    0.0000
     43 C21        1.4594    1.2069    0.2320 C.ar      1 RES1    0.0000
     44 H23        0.7958    1.8435    0.0854 H         1 RES1    0.0000
     45 N1         4.5843   -0.8334    4.4933 N.am      1 RES1    0.0000
     46 H24        4.3641   -1.6184    4.7649 H         1 RES1    0.0000
     47 N2         2.9752    2.2762    5.7396 N.3       1 RES1    0.0000
     48 N3        10.3760    1.0345    2.1238 N.pl3     1 RES1    0.0000
     49 N4         0.2788    0.4969    2.2391 N.pl3     1 RES1    0.0000
     50 O1         5.4621    0.4213    2.8500 O.2       1 RES1    0.0000
     51 O2        -0.5091    1.4194    2.0465 O.2       1 RES1    0.0000
     52 O3        10.0048    1.5662    1.1066 O.2       1 RES1    0.0000
     53 O4        11.3820    1.3732    2.7292 O.2       1 RES1    0.0000
     54 O5         0.1413   -0.3202    3.1115 O.2       1 RES1    0.0000
@<TRIPOS>BOND
     1    1    6 ar
     2    2    6 ar
     3    3    4 1
     4    4    5 1
     5    6    7 1
     6    8    9 1
     7    9    4 1
     8   10    9 1
     9   11   12 1
    10   13   11 1
    11   14    1 1
    12   15   14 1
    13   16   11 1
    14   17   16 1
    15   18   16 1
    16   19    9 1
    17   20   19 1
    18   21   19 1
    19   22    1 ar
    20   23   22 1
    21   24    2 ar
    22   25   24 1
    23   26   22 ar
    24   27   26 1
    25   28    8 ar
    26   29   28 1
    27   30   28 ar
    28   31    8 ar
    29   32   31 1
    30   33   31 ar
    31   34   33 1
    32   35   36 1
    33   37   35 1
    34   38   35 1
    35   39   40 1
    36   41   39 1
    37   42   39 1
    38   43   30 ar
    39   44   43 1
    40   45    3 1
    41   46   45 1
    42   47   16 1
    43   48    2 1
    44   49   30 1
    45   50    3 2
    46   51   49 2
    47   52   48 2
    48   53   48 2
    49   54   49 2
    50    4   14 1
    51   11   45 1
    52   14   19 1
    53   24   26 ar
    54   33   43 ar
    55   35   47 1
    56   39   47 1
@<TRIPOS>SUBSTRUCTURE
     1 RES1 1

@<TRIPOS>CRYSIN
  35.3642    5.4364   21.9052  90.0000  92.2930  90.0000  15 1

