# MOL2 file generated by ConQuest
# Please check atom types

@<TRIPOS>MOLECULE
FIWGEY
    40    43     1
SMALL
NO_CHARGES
****
Generated from CSD

@<TRIPOS>ATOM
      1 N1         0.9009    2.8856    2.3802 N.3       1 RES1    0.0000
      2 N2         1.2282    4.7508    3.8466 N.2       1 RES1    0.0000
      3 N3         3.9128   -2.2139   -0.3459 N.pl3     1 RES1    0.0000
      4 O1         3.4650   -2.3616   -1.4758 O.2       1 RES1    0.0000
      5 O2         4.7986   -2.9180    0.1231 O.2       1 RES1    0.0000
      6 C1         2.1325    3.6139    2.0408 C.3       1 RES1    0.0000
      7 H1         2.4038    3.6993    1.1241 H         1 RES1    0.0000
      8 C2         2.1953    4.7466    3.0043 C.2       1 RES1    0.0000
      9 C3         0.2818    3.6770    3.4759 C.3       1 RES1    0.0000
     10 C4         2.1993    2.2675    2.7133 C.3       1 RES1    0.0000
     11 H2         2.4922    2.2455    3.6436 H         1 RES1    0.0000
     12 C5         3.2671    5.7595    3.0044 C.ar      1 RES1    0.0000
     13 C6         4.4193    5.5661    2.2598 C.ar      1 RES1    0.0000
     14 H3         4.4956    4.8002    1.7346 H         1 RES1    0.0000
     15 C7         5.4165    6.5342    2.2637 C.ar      1 RES1    0.0000
     16 H4         6.1765    6.4276    1.7637 H         1 RES1    0.0000
     17 C8         5.2520    7.6904    2.9856 C.ar      1 RES1    0.0000
     18 H5         5.9055    8.3112    2.9653 H         1 RES1    0.0000
     19 C9         4.1175    7.8838    3.7153 C.ar      1 RES1    0.0000
     20 H6         3.9892    8.7235    4.2638 H         1 RES1    0.0000
     21 C10        3.1190    6.9305    3.7327 C.ar      1 RES1    0.0000
     22 H7         2.3022    7.0442    4.2928 H         1 RES1    0.0000
     23 C11       -0.0574    2.8252    4.6834 C.3       1 RES1    0.0000
     24 H8         0.7612    2.3561    5.0778 H         1 RES1    0.0000
     25 H9        -0.4887    3.3565    5.3394 H         1 RES1    0.0000
     26 H10       -0.7133    2.2221    4.3607 H         1 RES1    0.0000
     27 C12       -0.9590    4.3464    2.8906 C.3       1 RES1    0.0000
     28 H11       -0.7284    4.8275    2.0641 H         1 RES1    0.0000
     29 H12       -1.6356    3.6773    2.6842 H         1 RES1    0.0000
     30 H13       -1.3718    4.9041    3.5854 H         1 RES1    0.0000
     31 C13        2.5808    1.0704    1.9332 C.ar      1 RES1    0.0000
     32 C14        3.5712    0.2260    2.4158 C.ar      1 RES1    0.0000
     33 H14        3.9648    0.4476    3.2657 H         1 RES1    0.0000
     34 C15        3.9951   -0.8565    1.6842 C.ar      1 RES1    0.0000
     35 H15        4.7147   -1.4192    2.0059 H         1 RES1    0.0000
     36 C16        3.4187   -1.0947    0.4554 C.ar      1 RES1    0.0000
     37 C17        2.4197   -0.2988   -0.0436 C.ar      1 RES1    0.0000
     38 H16        2.0434   -0.4035   -0.8140 H         1 RES1    0.0000
     39 C18        1.9965    0.7827    0.7093 C.ar      1 RES1    0.0000
     40 H17        1.2890    1.3346    0.4070 H         1 RES1    0.0000
@<TRIPOS>BOND
     1    1    6 1
     2    2    8 2
     3    3    4 2
     4    5    3 2
     5    6    7 1
     6    8    6 1
     7    9    1 1
     8   10    1 1
     9   11   10 1
    10   12    8 1
    11   13   12 ar
    12   14   13 1
    13   15   13 ar
    14   16   15 1
    15   17   15 ar
    16   18   17 1
    17   19   17 ar
    18   20   19 1
    19   21   12 ar
    20   22   21 1
    21   23    9 1
    22   24   23 1
    23   25   23 1
    24   26   23 1
    25   27    9 1
    26   28   27 1
    27   29   27 1
    28   30   27 1
    29   31   10 1
    30   32   31 ar
    31   33   32 1
    32   34   32 ar
    33   35   34 1
    34   36    3 1
    35   37   36 ar
    36   38   37 1
    37   39   31 ar
    38   40   39 1
    39    2    9 1
    40    6   10 1
    41   19   21 ar
    42   34   36 ar
    43   37   39 ar
@<TRIPOS>SUBSTRUCTURE
     1 RES1 1

@<TRIPOS>CRYSIN
   9.5350    9.5390   10.0930 103.8900  92.0500 113.5000   2 1

