# MOL2 file generated by ConQuest
# Please check atom types

@<TRIPOS>MOLECULE
FIWHAW
    60    63     1
SMALL
NO_CHARGES
****
Generated from CSD

@<TRIPOS>ATOM
      1 O1         9.8015    0.6651    8.1174 O.2       1 RES1    0.0000
      2 O2         8.6032    1.5393    9.8201 O.3       1 RES1    0.0000
      3 O3        10.6991    5.2645    8.8138 O.2       1 RES1    0.0000
      4 O4         4.6391   -0.6836   11.4503 O.2       1 RES1    0.0000
      5 N1         4.6902   -1.5109   10.5457 N.pl3     1 RES1    0.0000
      6 C1         7.8892   -0.4999    8.9235 C.ar      1 RES1    0.0000
      7 C2         6.7619   -0.4689    9.7488 C.ar      1 RES1    0.0000
      8 H1         6.5909    0.2683   10.3061 H         1 RES1    0.0000
      9 C3         8.1242   -1.5948    8.1123 C.ar      1 RES1    0.0000
     10 H2         8.8739   -1.6182    7.5459 H         1 RES1    0.0000
     11 C4         7.2369   -2.6534    8.1499 C.ar      1 RES1    0.0000
     12 C5         8.8733    0.6281    8.8889 C.2       1 RES1    0.0000
     13 C6         9.5573    2.6508    9.9610 C.3       1 RES1    0.0000
     14 H3         9.8465    2.9664    9.0676 H         1 RES1    0.0000
     15 C7         6.1205   -2.6698    8.9387 C.ar      1 RES1    0.0000
     16 H4         5.5313   -3.4017    8.9458 H         1 RES1    0.0000
     17 C8         5.9035   -1.5588    9.7224 C.ar      1 RES1    0.0000
     18 N2         7.5008   -3.8120    7.2748 N.pl3     1 RES1    0.0000
     19 C9        10.5708    5.4528   10.0209 C.2       1 RES1    0.0000
     20 C10       11.5937    5.8987   10.7812 C.3       1 RES1    0.0000
     21 H5        11.2822    6.8311   10.6716 H         1 RES1    0.0000
     22 O5         3.7898   -2.2948   10.2869 O.2       1 RES1    0.0000
     23 C11        6.7325    5.3291   10.2422 C.ar      1 RES1    0.0000
     24 O6         8.3676   -3.7264    6.4403 O.2       1 RES1    0.0000
     25 C12        8.0733    4.7964    9.8696 C.3       1 RES1    0.0000
     26 H6         8.2459    4.7695    8.8950 H         1 RES1    0.0000
     27 C13        9.2871    5.1422   10.7112 C.3       1 RES1    0.0000
     28 H7         9.1111    5.6383   11.5497 H         1 RES1    0.0000
     29 C14        8.7697    3.7181   10.6533 C.3       1 RES1    0.0000
     30 H8         8.2885    3.4180   11.4645 H         1 RES1    0.0000
     31 C15       10.7538    2.1925   10.7630 C.3       1 RES1    0.0000
     32 H9        10.4671    1.9307   11.6523 H         1 RES1    0.0000
     33 H10       11.3957    2.9157   10.8290 H         1 RES1    0.0000
     34 H11       11.1674    1.4333   10.3214 H         1 RES1    0.0000
     35 O7         6.8387   -4.8129    7.4636 O.2       1 RES1    0.0000
     36 C16       11.5909    6.0523   12.2451 C.3       1 RES1    0.0000
     37 H12       12.2311    5.4256   12.6431 H         1 RES1    0.0000
     38 H13       10.7012    5.8429   12.5964 H         1 RES1    0.0000
     39 C17        6.2322    5.2080   11.5335 C.ar      1 RES1    0.0000
     40 H14        6.7483    4.7761   12.1893 H         1 RES1    0.0000
     41 C18        5.9586    5.9852    9.2950 C.ar      1 RES1    0.0000
     42 H15        6.2768    6.0867    8.4169 H         1 RES1    0.0000
     43 C19       12.8743    6.2405   10.1721 C.3       1 RES1    0.0000
     44 H16       12.8031    6.1554    9.1986 H         1 RES1    0.0000
     45 H17       13.5582    5.6089   10.4808 H         1 RES1    0.0000
     46 C20        4.9813    5.7152   11.8776 C.ar      1 RES1    0.0000
     47 H18        4.6567    5.6187   12.7538 H         1 RES1    0.0000
     48 C21        4.2249    6.3599   10.9264 C.ar      1 RES1    0.0000
     49 H19        3.3806    6.7084   11.1498 H         1 RES1    0.0000
     50 C22        4.7160    6.4924    9.6442 C.ar      1 RES1    0.0000
     51 H20        4.1996    6.9342    8.9945 H         1 RES1    0.0000
     52 C23       11.9634    7.4578   12.6197 C.3       1 RES1    0.0000
     53 H21       11.9997    7.5347   13.5953 H         1 RES1    0.0000
     54 H22       11.2729    8.0746   12.2939 H         1 RES1    0.0000
     55 C24       13.2955    7.6427   10.5234 C.3       1 RES1    0.0000
     56 H23       12.6787    8.2824   10.1092 H         1 RES1    0.0000
     57 H24       14.1925    7.8129   10.1650 H         1 RES1    0.0000
     58 C25       13.3055    7.8521   12.0340 C.3       1 RES1    0.0000
     59 H25       14.0143    7.3089   12.4380 H         1 RES1    0.0000
     60 H26       13.4889    8.7946   12.2350 H         1 RES1    0.0000
@<TRIPOS>BOND
     1    1   12 2
     2    2   12 1
     3    3   19 2
     4    4    5 2
     5    5   17 1
     6    6    7 ar
     7    7    8 1
     8    9    6 ar
     9   10    9 1
    10   11    9 ar
    11   12    6 1
    12   13    2 1
    13   14   13 1
    14   15   11 ar
    15   16   15 1
    16   17    7 ar
    17   18   11 1
    18   19   20 1
    19   20   21 1
    20   22    5 2
    21   23   25 1
    22   24   18 2
    23   25   26 1
    24   27   19 1
    25   28   27 1
    26   29   13 1
    27   30   29 1
    28   31   13 1
    29   32   31 1
    30   33   31 1
    31   34   31 1
    32   35   18 2
    33   36   20 1
    34   37   36 1
    35   38   36 1
    36   39   23 ar
    37   40   39 1
    38   41   23 ar
    39   42   41 1
    40   43   20 1
    41   44   43 1
    42   45   43 1
    43   46   39 ar
    44   47   46 1
    45   48   46 ar
    46   49   48 1
    47   50   41 ar
    48   51   50 1
    49   52   36 1
    50   53   52 1
    51   54   52 1
    52   55   43 1
    53   56   55 1
    54   57   55 1
    55   58   52 1
    56   59   58 1
    57   60   58 1
    58   15   17 ar
    59   25   27 1
    60   25   29 1
    61   27   29 1
    62   48   50 ar
    63   55   58 1
@<TRIPOS>SUBSTRUCTURE
     1 RES1 1

@<TRIPOS>CRYSIN
  13.7550   16.3620   10.4830  90.0000 104.4400  90.0000  14 1

