# MOL2 file generated by ConQuest
# Please check atom types

@<TRIPOS>MOLECULE
FIWZIW
   102   108     2
SMALL
NO_CHARGES
****
Generated from CSD

@<TRIPOS>ATOM
      1 O1         1.3284    6.1136    3.2350 O.3       1 RES1    0.0000
      2 C1         2.0837    7.2252    3.7478 C.3       1 RES1    0.0000
      3 H1         1.5382    7.9599    4.0999 H         1 RES1    0.0000
      4 C2         2.9323    6.4904    4.8085 C.3       1 RES1    0.0000
      5 H2         2.3725    6.0121    5.4559 H         1 RES1    0.0000
      6 C3         3.5376    5.5448    3.7661 C.3       1 RES1    0.0000
      7 H3         4.1525    4.8697    4.1229 H         1 RES1    0.0000
      8 C4         2.2493    4.9927    3.1580 C.3       1 RES1    0.0000
      9 H4         1.9166    4.2425    3.6935 H         1 RES1    0.0000
     10 C5         3.0743    7.6340    2.6554 C.3       1 RES1    0.0000
     11 H5         2.6611    7.5443    1.7714 H         1 RES1    0.0000
     12 C6         4.1736    6.5771    2.8372 C.3       1 RES1    0.0000
     13 H6         4.9044    7.0020    3.3331 H         1 RES1    0.0000
     14 O2         3.6297    8.9286    2.8059 O.3       1 RES1    0.0000
     15 C7         2.8030    9.9520    2.2864 C.3       1 RES1    0.0000
     16 H7         1.9865   10.0111    2.8066 H         1 RES1    0.0000
     17 H8         2.5646    9.7455    1.3688 H         1 RES1    0.0000
     18 C8         3.5386   11.2641    2.3388 C.ar      1 RES1    0.0000
     19 C9         2.8353   12.4176    2.5804 C.ar      1 RES1    0.0000
     20 H9         1.9181   12.3881    2.7324 H         1 RES1    0.0000
     21 C10        3.5297   13.6584    2.5944 C.ar      1 RES1    0.0000
     22 H10        3.0668   14.4491    2.7516 H         1 RES1    0.0000
     23 C11        4.8576   13.6867    2.3797 C.ar      1 RES1    0.0000
     24 H11        5.3089   14.4995    2.3861 H         1 RES1    0.0000
     25 C12        5.5250   12.5639    2.1586 C.ar      1 RES1    0.0000
     26 H12        6.4436   12.5971    2.0193 H         1 RES1    0.0000
     27 C13        4.8869   11.3662    2.1318 C.ar      1 RES1    0.0000
     28 H13        5.3788   10.5940    1.9695 H         1 RES1    0.0000
     29 O3         3.9397    7.2501    5.4444 O.3       1 RES1    0.0000
     30 C14        3.5203    7.7878    6.7161 C.3       1 RES1    0.0000
     31 H14        4.2820    8.2009    7.1519 H         1 RES1    0.0000
     32 H15        3.2135    7.0610    7.2810 H         1 RES1    0.0000
     33 C15        2.4274    8.7961    6.5830 C.ar      1 RES1    0.0000
     34 C16        1.1547    8.5391    7.0535 C.ar      1 RES1    0.0000
     35 H16        0.9860    7.7373    7.4944 H         1 RES1    0.0000
     36 C17        0.1360    9.4393    6.8861 C.ar      1 RES1    0.0000
     37 H17       -0.7161    9.2388    7.2005 H         1 RES1    0.0000
     38 C18        0.3687   10.6370    6.2560 C.ar      1 RES1    0.0000
     39 H18       -0.3206   11.2518    6.1486 H         1 RES1    0.0000
     40 C19        1.6179   10.9174    5.7895 C.ar      1 RES1    0.0000
     41 H19        1.7800   11.7265    5.3626 H         1 RES1    0.0000
     42 C20        2.6399   10.0098    5.9480 C.ar      1 RES1    0.0000
     43 H20        3.4871   10.2140    5.6234 H         1 RES1    0.0000
     44 N1         4.7551    6.0284    1.5768 N.pl3     1 RES1    0.0000
     45 O4         4.6254    6.6490    0.5479 O.2       1 RES1    0.0000
     46 O5         5.3919    4.9833    1.6617 O.2       1 RES1    0.0000
     47 O6         2.4311    4.5965    1.8394 O.3       1 RES1    0.0000
     48 C21        1.2627    4.0224    1.2589 C.3       1 RES1    0.0000
     49 H21        0.5968    4.7036    1.1413 H         1 RES1    0.0000
     50 H22        0.9210    3.3374    1.8378 H         1 RES1    0.0000
     51 H23        1.4845    3.6399    0.4064 H         1 RES1    0.0000
     52 O7        -4.6984    7.1891    2.3765 O.3       2 RES2    0.0000
     53 C22       -4.1019    6.0268    2.9574 C.3       2 RES2    0.0000
     54 H24       -4.7134    5.4968    3.5108 H         2 RES2    0.0000
     55 C23       -3.6037    5.2976    1.6972 C.3       2 RES2    0.0000
     56 H25       -4.3392    5.1291    1.0723 H         2 RES2    0.0000
     57 C24       -2.7653    6.4916    1.2515 C.3       2 RES2    0.0000
     58 H26       -2.2950    6.3785    0.3987 H         2 RES2    0.0000
     59 C25       -3.8391    7.5726    1.2654 C.3       2 RES2    0.0000
     60 H27       -4.3454    7.5529    0.4269 H         2 RES2    0.0000
     61 C26       -2.8293    6.4707    3.6806 C.3       2 RES2    0.0000
     62 H28       -2.9664    7.3155    4.1575 H         2 RES2    0.0000
     63 C27       -1.8632    6.6499    2.4825 C.3       2 RES2    0.0000
     64 H29       -1.2446    5.8903    2.4909 H         2 RES2    0.0000
     65 O8        -2.8103    4.1516    1.8705 O.3       2 RES2    0.0000
     66 C28       -3.5684    2.9857    2.1062 C.3       2 RES2    0.0000
     67 H30       -4.1926    2.8492    1.3764 H         2 RES2    0.0000
     68 H31       -4.0768    3.0866    2.9254 H         2 RES2    0.0000
     69 C29       -2.6634    1.8028    2.2187 C.ar      2 RES2    0.0000
     70 C30       -1.6199    1.6097    1.3292 C.ar      2 RES2    0.0000
     71 H32       -1.4541    2.2356    0.6607 H         2 RES2    0.0000
     72 C31       -0.8273    0.4894    1.4365 C.ar      2 RES2    0.0000
     73 H33       -0.1221    0.3714    0.8422 H         2 RES2    0.0000
     74 C32       -1.0569   -0.4562    2.4027 C.ar      2 RES2    0.0000
     75 H34       -0.5183   -1.2125    2.4589 H         2 RES2    0.0000
     76 C33       -2.0848   -0.2767    3.2833 C.ar      2 RES2    0.0000
     77 H35       -2.2500   -0.9124    3.9402 H         2 RES2    0.0000
     78 C34       -2.8786    0.8460    3.1989 C.ar      2 RES2    0.0000
     79 H36       -3.5702    0.9641    3.8098 H         2 RES2    0.0000
     80 O9        -2.4222    5.4416    4.5625 O.3       2 RES2    0.0000
     81 C35       -1.3442    5.7784    5.4214 C.3       2 RES2    0.0000
     82 H37       -1.6709    6.2937    6.1755 H         2 RES2    0.0000
     83 H38       -0.6953    6.3170    4.9422 H         2 RES2    0.0000
     84 C36       -0.7011    4.5118    5.9070 C.ar      2 RES2    0.0000
     85 C37        0.0275    4.4946    7.0854 C.ar      2 RES2    0.0000
     86 H39        0.0944    5.2705    7.5941 H         2 RES2    0.0000
     87 C38        0.6580    3.3387    7.5136 C.ar      2 RES2    0.0000
     88 H40        1.1572    3.3497    8.2983 H         2 RES2    0.0000
     89 C39        0.5523    2.1790    6.7915 C.ar      2 RES2    0.0000
     90 H41        0.9416    1.3933    7.1008 H         2 RES2    0.0000
     91 C40       -0.1349    2.1975    5.6055 C.ar      2 RES2    0.0000
     92 H42       -0.1737    1.4277    5.0840 H         2 RES2    0.0000
     93 C41       -0.7668    3.3424    5.1812 C.ar      2 RES2    0.0000
     94 H43       -1.2487    3.3264    4.3862 H         2 RES2    0.0000
     95 N2        -1.0361    7.9000    2.4811 N.pl3     2 RES2    0.0000
     96 O10       -0.9474    8.5621    3.5054 O.2       2 RES2    0.0000
     97 O11       -0.3997    8.1524    1.4626 O.2       2 RES2    0.0000
     98 O12       -3.2871    8.8210    1.4544 O.3       2 RES2    0.0000
     99 C42       -4.1948    9.8930    1.2895 C.3       2 RES2    0.0000
    100 H44       -4.7316    9.9816    2.0794 H         2 RES2    0.0000
    101 H45       -4.7616    9.7184    0.5342 H         2 RES2    0.0000
    102 H46       -3.7062   10.7059    1.1426 H         2 RES2    0.0000
@<TRIPOS>BOND
     1    1    2 1
     2    2    3 1
     3    4    2 1
     4    5    4 1
     5    6    4 1
     6    7    6 1
     7    8    1 1
     8    9    8 1
     9   10    2 1
    10   11   10 1
    11   12    6 1
    12   13   12 1
    13   14   10 1
    14   15   14 1
    15   16   15 1
    16   17   15 1
    17   18   15 1
    18   19   18 ar
    19   20   19 1
    20   21   19 ar
    21   22   21 1
    22   23   21 ar
    23   24   23 1
    24   25   23 ar
    25   26   25 1
    26   27   18 ar
    27   28   27 1
    28   29    4 1
    29   30   29 1
    30   31   30 1
    31   32   30 1
    32   33   30 1
    33   34   33 ar
    34   35   34 1
    35   36   34 ar
    36   37   36 1
    37   38   36 ar
    38   39   38 1
    39   40   38 ar
    40   41   40 1
    41   42   33 ar
    42   43   42 1
    43   44   12 1
    44   45   44 2
    45   46   44 2
    46   47    8 1
    47   48   47 1
    48   49   48 1
    49   50   48 1
    50   51   48 1
    51   52   53 1
    52   53   54 1
    53   55   53 1
    54   56   55 1
    55   57   55 1
    56   58   57 1
    57   59   52 1
    58   60   59 1
    59   61   53 1
    60   62   61 1
    61   63   57 1
    62   64   63 1
    63   65   55 1
    64   66   65 1
    65   67   66 1
    66   68   66 1
    67   69   66 1
    68   70   69 ar
    69   71   70 1
    70   72   70 ar
    71   73   72 1
    72   74   72 ar
    73   75   74 1
    74   76   74 ar
    75   77   76 1
    76   78   69 ar
    77   79   78 1
    78   80   61 1
    79   81   80 1
    80   82   81 1
    81   83   81 1
    82   84   81 1
    83   85   84 ar
    84   86   85 1
    85   87   85 ar
    86   88   87 1
    87   89   87 ar
    88   90   89 1
    89   91   89 ar
    90   92   91 1
    91   93   84 ar
    92   94   93 1
    93   95   63 1
    94   96   95 2
    95   97   95 2
    96   98   59 1
    97   99   98 1
    98  100   99 1
    99  101   99 1
   100  102   99 1
   101    6    8 1
   102   10   12 1
   103   25   27 ar
   104   40   42 ar
   105   57   59 1
   106   61   63 1
   107   76   78 ar
   108   91   93 ar
@<TRIPOS>SUBSTRUCTURE
     1 RES1 1
     2 RES2 52

@<TRIPOS>CRYSIN
  12.2964   12.2971   13.6330  90.0000 110.3710  90.0000   4 1

