# MOL2 file generated by ConQuest
# Please check atom types

@<TRIPOS>MOLECULE
FIXHAV
    26    29     1
SMALL
NO_CHARGES
****
Generated from CSD

@<TRIPOS>ATOM
      1 N1         7.8094   11.2662   -1.9201 N.3       1 RES1    0.0000
      2 C1         7.0593   10.1550   -1.3903 C.3       1 RES1    0.0000
      3 N2         7.2200    9.9929    0.0728 N.3       1 RES1    0.0000
      4 C2         6.9547   11.2328    0.7936 C.3       1 RES1    0.0000
      5 C3         7.7283   12.3885    0.1647 C.3       1 RES1    0.0000
      6 C4         9.2389   12.3138    0.2828 C.3       1 RES1    0.0000
      7 N3         9.7499   11.1613   -0.4523 N.3       1 RES1    0.0000
      8 C5         9.2257   11.1390   -1.8127 C.3       1 RES1    0.0000
      9 C6         7.3528   12.5046   -1.3091 C.3       1 RES1    0.0000
     10 N4         7.2318   13.6619    0.8652 N.pl3     1 RES1    0.0000
     11 O1         8.0624   14.3979    1.3688 O.2       1 RES1    0.0000
     12 O2         6.0585   13.8781    0.8616 O.2       1 RES1    0.0000
     13 C7         6.4188    8.9071    0.5967 C.3       1 RES1    0.0000
     14 C8         6.8610    8.4540    1.9559 C.ar      1 RES1    0.0000
     15 C9         8.1907    8.3952    2.2865 C.ar      1 RES1    0.0000
     16 C10        8.6045    7.9644    3.5156 C.ar      1 RES1    0.0000
     17 C11        7.7079    7.5749    4.4465 C.ar      1 RES1    0.0000
     18 C12        6.3996    7.6178    4.1660 C.ar      1 RES1    0.0000
     19 C13        5.9559    8.0725    2.9213 C.ar      1 RES1    0.0000
     20 C14       11.1982   11.1454   -0.4785 C.3       1 RES1    0.0000
     21 C15       11.8326   10.9165    0.8700 C.ar      1 RES1    0.0000
     22 C16       11.5937    9.7735    1.5740 C.ar      1 RES1    0.0000
     23 C17       12.2136    9.5636    2.8127 C.ar      1 RES1    0.0000
     24 C18       13.0732   10.5031    3.3056 C.ar      1 RES1    0.0000
     25 C19       13.2950   11.6143    2.6087 C.ar      1 RES1    0.0000
     26 C20       12.7088   11.8194    1.4094 C.ar      1 RES1    0.0000
@<TRIPOS>BOND
     1    1    2 1
     2    2    3 1
     3    3    4 1
     4    4    5 1
     5    5    6 1
     6    6    7 1
     7    7    8 1
     8    8    1 1
     9    9    1 1
    10   10    5 1
    11   11   10 2
    12   12   10 2
    13   13    3 1
    14   14   13 1
    15   15   14 ar
    16   16   15 ar
    17   17   16 ar
    18   18   17 ar
    19   19   14 ar
    20   20    7 1
    21   21   20 1
    22   22   21 ar
    23   23   22 ar
    24   24   23 ar
    25   25   24 ar
    26   26   21 ar
    27    5    9 1
    28   18   19 ar
    29   25   26 ar
@<TRIPOS>SUBSTRUCTURE
     1 RES1 1

@<TRIPOS>CRYSIN
   9.8776   15.8970   11.9470  90.0000  92.7160  90.0000  14 1

