# MOL2 file generated by ConQuest
# Please check atom types

@<TRIPOS>MOLECULE
FIXPOR
    25    26     1
SMALL
USER_CHARGES
****
Generated from CSD

@<TRIPOS>ATOM
      1 C1         4.7807    4.6082    5.4573 C.ar      1 RES1    0.0000
      2 C2         4.0975    5.6378    6.0513 C.ar      1 RES1    0.0000
      3 C3         2.9320    6.0790    5.4556 C.ar      1 RES1    0.0000
      4 C4         2.4982    5.4938    4.2826 C.ar      1 RES1    0.0000
      5 C5         3.2060    4.4758    3.7087 C.ar      1 RES1    0.0000
      6 C6         4.3712    4.0253    4.2926 C.ar      1 RES1    0.0000
      7 N1         6.0422    4.1809    6.0463 N.pl3     1 RES1    1.0000
      8 C7         6.3441    3.0925    6.7880 C.2       1 RES1   -1.0000
      9 N2         7.0442    4.9790    5.7778 N.2       1 RES1    0.0000
     10 O1         8.1288    4.3791    6.3870 O.3       1 RES1    0.0000
     11 C8         7.7422    3.1924    7.0179 C.2       1 RES1    0.0000
     12 O2         8.5763    2.5390    7.6069 O.2       1 RES1    0.0000
     13 C9         5.4579    2.0746    7.3015 C.2       1 RES1    0.0000
     14 N3         6.0940    1.0791    7.8083 N.2       1 RES1    0.0000
     15 O3         5.2357    0.1246    8.3688 O.3       1 RES1    0.0000
     16 C10        3.9697    2.2085    7.2999 C.3       1 RES1    0.0000
     17 H1         4.4296    5.9923    6.8048 H         1 RES1    0.0000
     18 H2         2.3994    6.7594    5.9238 H         1 RES1    0.0000
     19 H3         1.6677    5.8375    3.9067 H         1 RES1    0.0000
     20 H4         2.9755    4.0207    2.9099 H         1 RES1    0.0000
     21 H5         4.9029    3.3480    3.9268 H         1 RES1    0.0000
     22 H6         5.9991   -0.6232    8.6306 H         1 RES1    0.0000
     23 H7         3.6800    2.0490    6.5329 H         1 RES1    0.0000
     24 H8         3.5285    1.4445    7.8184 H         1 RES1    0.0000
     25 H9         3.6771    3.0105    7.5079 H         1 RES1    0.0000
@<TRIPOS>BOND
     1    1    2 ar
     2    2    3 ar
     3    3    4 ar
     4    4    5 ar
     5    5    6 ar
     6    6    1 ar
     7    7    1 1
     8    8    7 1
     9    9    7 2
    10   10    9 1
    11   11    8 1
    12   12   11 2
    13   13    8 1
    14   14   13 2
    15   15   14 1
    16   16   13 1
    17   17    2 1
    18   18    3 1
    19   19    4 1
    20   20    5 1
    21   21    6 1
    22   22   15 1
    23   23   16 1
    24   24   16 1
    25   25   16 1
    26   10   11 1
@<TRIPOS>SUBSTRUCTURE
     1 RES1 1

@<TRIPOS>CRYSIN
   7.8710    7.7410   16.8800  90.0000  96.2000  90.0000 231 1

