# MOL2 file generated by ConQuest
# Please check atom types

@<TRIPOS>MOLECULE
FIYBEU
    53    55     1
SMALL
NO_CHARGES
****
Generated from CSD

@<TRIPOS>ATOM
      1 N1         3.7097    1.3042   16.1600 N.2       1 RES1    0.0000
      2 C1         3.5251    2.3742   16.7990 C.2       1 RES1    0.0000
      3 C2         3.0124    2.5263   18.2106 C.3       1 RES1    0.0000
      4 H1         3.7839    2.7416   18.7763 H         1 RES1    0.0000
      5 N2         2.4287    1.2990   18.7363 N.2       1 RES1    0.0000
      6 C3         2.6354    0.2308   18.1006 C.2       1 RES1    0.0000
      7 C4         3.4171    0.0467   16.8324 C.3       1 RES1    0.0000
      8 H2         2.8468   -0.4693   16.2256 H         1 RES1    0.0000
      9 O1         3.7910    3.5855   16.2626 O.3       1 RES1    0.0000
     10 C5         4.4544    3.5739   14.9861 C.3       1 RES1    0.0000
     11 H3         4.6350    4.4762   14.7102 H         1 RES1    0.0000
     12 H4         3.8904    3.1486   14.3373 H         1 RES1    0.0000
     13 H5         5.2802    3.0899   15.0592 H         1 RES1    0.0000
     14 O2         2.1258   -0.9434   18.5269 O.3       1 RES1    0.0000
     15 C6         1.3867   -0.9049   19.7518 C.3       1 RES1    0.0000
     16 H6         0.9884   -1.7640   19.9129 H         1 RES1    0.0000
     17 H7         0.6981   -0.2394   19.6891 H         1 RES1    0.0000
     18 H8         1.9783   -0.6871   20.4767 H         1 RES1    0.0000
     19 C7         4.6918   -0.7891   17.0570 C.3       1 RES1    0.0000
     20 H9         4.4204   -1.6266   17.4875 H         1 RES1    0.0000
     21 C8         5.3339   -1.1478   15.7382 C.3       1 RES1    0.0000
     22 H10        4.6878   -1.5817   15.1755 H         1 RES1    0.0000
     23 H11        6.0730   -1.7398   15.8915 H         1 RES1    0.0000
     24 H12        5.6470   -0.3492   15.3068 H         1 RES1    0.0000
     25 C9         5.6525   -0.0951   17.9887 C.3       1 RES1    0.0000
     26 H13        5.2037    0.1210   18.8091 H         1 RES1    0.0000
     27 H14        5.9720    0.7113   17.5770 H         1 RES1    0.0000
     28 H15        6.3948   -0.6750   18.1737 H         1 RES1    0.0000
     29 C10        1.9972    3.6871   18.3670 C.3       1 RES1    0.0000
     30 H16        2.3980    4.4892   17.9708 H         1 RES1    0.0000
     31 C11        1.7298    3.9827   19.8419 C.ar      1 RES1    0.0000
     32 C12        0.5577    3.6231   20.4469 C.ar      1 RES1    0.0000
     33 H17       -0.0915    3.1746   19.9546 H         1 RES1    0.0000
     34 C13        0.3163    3.9196   21.8045 C.ar      1 RES1    0.0000
     35 H18       -0.4922    3.6750   22.1920 H         1 RES1    0.0000
     36 C14        1.2400    4.5505   22.5390 C.ar      1 RES1    0.0000
     37 H19        1.0570    4.7519   23.4271 H         1 RES1    0.0000
     38 C15        2.4871    4.9153   21.9874 C.ar      1 RES1    0.0000
     39 C16        3.5054    5.5160   22.7630 C.ar      1 RES1    0.0000
     40 H20        3.3445    5.6888   23.6627 H         1 RES1    0.0000
     41 C17        4.6997    5.8444   22.2383 C.ar      1 RES1    0.0000
     42 H21        5.3638    6.2083   22.7767 H         1 RES1    0.0000
     43 C18        4.9379    5.6352   20.8729 C.ar      1 RES1    0.0000
     44 H22        5.7511    5.8902   20.5006 H         1 RES1    0.0000
     45 C19        3.9834    5.0605   20.0838 C.ar      1 RES1    0.0000
     46 H23        4.1586    4.9369   19.1790 H         1 RES1    0.0000
     47 C20        2.7348    4.6465   20.6068 C.ar      1 RES1    0.0000
     48 C21        0.7588    3.3483   17.5651 C.3       1 RES1    0.0000
     49 H24        1.0191    3.1642   16.6492 H         1 RES1    0.0000
     50 H25        0.3628    2.5402   17.9260 H         1 RES1    0.0000
     51 N3        -0.2658    4.4287   17.5669 N.pl3     1 RES1    0.0000
     52 O3        -1.4214    4.1141   17.6644 O.2       1 RES1    0.0000
     53 O4         0.1104    5.5644   17.4631 O.2       1 RES1    0.0000
@<TRIPOS>BOND
     1    1    2 2
     2    2    3 1
     3    3    4 1
     4    5    3 1
     5    6    5 2
     6    7    1 1
     7    8    7 1
     8    9    2 1
     9   10    9 1
    10   11   10 1
    11   12   10 1
    12   13   10 1
    13   14    6 1
    14   15   14 1
    15   16   15 1
    16   17   15 1
    17   18   15 1
    18   19    7 1
    19   20   19 1
    20   21   19 1
    21   22   21 1
    22   23   21 1
    23   24   21 1
    24   25   19 1
    25   26   25 1
    26   27   25 1
    27   28   25 1
    28   29    3 1
    29   30   29 1
    30   31   29 1
    31   32   31 ar
    32   33   32 1
    33   34   32 ar
    34   35   34 1
    35   36   34 ar
    36   37   36 1
    37   38   36 ar
    38   39   38 ar
    39   40   39 1
    40   41   39 ar
    41   42   41 1
    42   43   41 ar
    43   44   43 1
    44   45   43 ar
    45   46   45 1
    46   47   31 ar
    47   48   29 1
    48   49   48 1
    49   50   48 1
    50   51   48 1
    51   52   51 2
    52   53   51 2
    53    6    7 1
    54   38   47 ar
    55   45   47 ar
@<TRIPOS>SUBSTRUCTURE
     1 RES1 1

@<TRIPOS>CRYSIN
   7.8880    8.6430   29.8320  90.0000  90.0000  90.0000  19 1

