# MOL2 file generated by ConQuest
# Please check atom types

@<TRIPOS>MOLECULE
FIYCUL
    55    56     1
SMALL
NO_CHARGES
****
Generated from CSD

@<TRIPOS>ATOM
      1 N1         4.9852    3.4307    1.8013 N.2       1 RES1    0.0000
      2 C1         3.8829    3.5569    2.3872 C.2       1 RES1    0.0000
      3 O1         2.7626    3.9442    1.7577 O.3       1 RES1    0.0000
      4 C2         2.9238    4.3660    0.3836 C.3       1 RES1    0.0000
      5 H1         2.0646    4.4031   -0.0436 H         1 RES1    0.0000
      6 H2         3.4877    3.7458   -0.0802 H         1 RES1    0.0000
      7 H3         3.3263    5.2405    0.3627 H         1 RES1    0.0000
      8 C3         3.5933    3.2937    3.8415 C.3       1 RES1    0.0000
      9 H4         3.4163    4.1628    4.2583 H         1 RES1    0.0000
     10 N2         4.6948    2.6958    4.5687 N.2       1 RES1    0.0000
     11 C4         5.8109    2.6486    3.9845 C.2       1 RES1    0.0000
     12 O2         6.8904    2.0878    4.5756 O.3       1 RES1    0.0000
     13 C5         6.6852    1.5689    5.8800 C.3       1 RES1    0.0000
     14 H5         5.9730    0.9245    5.8608 H         1 RES1    0.0000
     15 H6         6.4521    2.2842    6.4763 H         1 RES1    0.0000
     16 H7         7.4901    1.1465    6.1869 H         1 RES1    0.0000
     17 C6         6.1538    3.0994    2.5982 C.3       1 RES1    0.0000
     18 H8         6.6029    2.3497    2.1553 H         1 RES1    0.0000
     19 C7         7.1333    4.2668    2.6122 C.3       1 RES1    0.0000
     20 H9         7.8726    4.0272    3.2085 H         1 RES1    0.0000
     21 C8         7.7156    4.4942    1.2276 C.3       1 RES1    0.0000
     22 H10        8.1288    3.6851    0.9172 H         1 RES1    0.0000
     23 H11        8.3716    5.1939    1.2677 H         1 RES1    0.0000
     24 H12        7.0144    4.7472    0.6225 H         1 RES1    0.0000
     25 C9         6.4847    5.5199    3.1649 C.3       1 RES1    0.0000
     26 H13        6.1428    5.3417    4.0438 H         1 RES1    0.0000
     27 H14        5.7638    5.7878    2.5895 H         1 RES1    0.0000
     28 H15        7.1361    6.2237    3.2103 H         1 RES1    0.0000
     29 C10        2.3130    2.4300    4.0333 C.3       1 RES1    0.0000
     30 H16        1.5822    2.8692    3.5503 H         1 RES1    0.0000
     31 C11        1.9151    2.3497    5.5068 C.ar      1 RES1    0.0000
     32 C12        2.4632    1.4387    6.3700 C.ar      1 RES1    0.0000
     33 H17        3.0760    0.8165    6.0508 H         1 RES1    0.0000
     34 C13        2.1151    1.4279    7.7266 C.ar      1 RES1    0.0000
     35 H18        2.4906    0.8010    8.3020 H         1 RES1    0.0000
     36 C14        1.2125    2.3564    8.1974 C.ar      1 RES1    0.0000
     37 O3         0.8094    2.4219    9.5105 O.3       1 RES1    0.0000
     38 C15        1.2969    1.4164   10.3893 C.3       1 RES1    0.0000
     39 H19        1.0333    0.5520   10.0650 H         1 RES1    0.0000
     40 H20        0.9314    1.5541   11.2664 H         1 RES1    0.0000
     41 H21        2.2545    1.4636   10.4312 H         1 RES1    0.0000
     42 C16        0.6708    3.2876    7.3430 C.ar      1 RES1    0.0000
     43 O4        -0.2078    4.1561    7.9097 O.3       1 RES1    0.0000
     44 C17       -0.6418    5.2533    7.1599 C.3       1 RES1    0.0000
     45 H22       -1.1324    4.9443    6.3944 H         1 RES1    0.0000
     46 H23        0.1189    5.7614    6.8669 H         1 RES1    0.0000
     47 H24       -1.2083    5.8080    7.7004 H         1 RES1    0.0000
     48 C18        1.0195    3.2809    5.9968 C.ar      1 RES1    0.0000
     49 H25        0.6467    3.9091    5.4214 H         1 RES1    0.0000
     50 C19        2.5549    1.0864    3.3794 C.3       1 RES1    0.0000
     51 H26        2.9024    1.2207    2.4849 H         1 RES1    0.0000
     52 H27        3.2187    0.5952    3.8886 H         1 RES1    0.0000
     53 N3         1.2947    0.2895    3.3079 N.pl3     1 RES1    0.0000
     54 O5         1.1761   -0.7045    3.9671 O.2       1 RES1    0.0000
     55 O6         0.4514    0.7362    2.5337 O.2       1 RES1    0.0000
@<TRIPOS>BOND
     1    1    2 2
     2    2    3 1
     3    3    4 1
     4    4    5 1
     5    6    4 1
     6    7    4 1
     7    8    2 1
     8    9    8 1
     9   10    8 1
    10   11   10 2
    11   12   11 1
    12   13   12 1
    13   14   13 1
    14   15   13 1
    15   16   13 1
    16   17    1 1
    17   18   17 1
    18   19   17 1
    19   20   19 1
    20   21   19 1
    21   22   21 1
    22   23   21 1
    23   24   21 1
    24   25   19 1
    25   26   25 1
    26   27   25 1
    27   28   25 1
    28   29    8 1
    29   30   29 1
    30   31   29 1
    31   32   31 ar
    32   33   32 1
    33   34   32 ar
    34   35   34 1
    35   36   34 ar
    36   37   36 1
    37   38   37 1
    38   39   38 1
    39   40   38 1
    40   41   38 1
    41   42   36 ar
    42   43   42 1
    43   44   43 1
    44   45   44 1
    45   46   44 1
    46   47   44 1
    47   48   31 ar
    48   49   48 1
    49   50   29 1
    50   51   50 1
    51   52   50 1
    52   53   50 1
    53   54   53 2
    54   55   53 2
    55   11   17 1
    56   42   48 ar
@<TRIPOS>SUBSTRUCTURE
     1 RES1 1

@<TRIPOS>CRYSIN
   8.8800    6.7480   17.7300  90.0000 100.4200  90.0000   4 1

