# MOL2 file generated by ConQuest
# Please check atom types

@<TRIPOS>MOLECULE
FIZDAV
    28    29     1
SMALL
NO_CHARGES
****
Generated from CSD

@<TRIPOS>ATOM
      1 N1         2.1400    0.1964    3.9982 N.2       1 RES1    0.0000
      2 O1         2.0626    1.4143    3.2687 O.3       1 RES1    0.0000
      3 O2         1.0349    1.8854   -0.0905 O.2       1 RES1    0.0000
      4 C1         1.6399   -2.4411    5.0851 C.ar      1 RES1    0.0000
      5 H1         1.9013   -1.7835    5.6884 H         1 RES1    0.0000
      6 C2         1.5242   -3.7672    5.5053 C.ar      1 RES1    0.0000
      7 H2         1.7249   -3.9903    6.3855 H         1 RES1    0.0000
      8 C3         1.1153   -4.7543    4.6252 C.ar      1 RES1    0.0000
      9 H3         1.0312   -5.6340    4.9146 H         1 RES1    0.0000
     10 C4         0.8340   -4.4221    3.3162 C.ar      1 RES1    0.0000
     11 H4         0.5604   -5.0845    2.7231 H         1 RES1    0.0000
     12 C5         0.9538   -3.1076    2.8719 C.ar      1 RES1    0.0000
     13 H5         0.7627   -2.8975    1.9859 H         1 RES1    0.0000
     14 C6         1.3613   -2.1022    3.7546 C.ar      1 RES1    0.0000
     15 C7         1.4910   -0.7008    3.2669 C.2       1 RES1    0.0000
     16 C8         1.0057   -0.1199    2.0588 C.2       1 RES1    0.0000
     17 H6         0.5359   -0.5446    1.3775 H         1 RES1    0.0000
     18 C9         1.3733    1.1788    2.1153 C.2       1 RES1    0.0000
     19 C10        1.1684    2.2609    1.0882 C.2       1 RES1    0.0000
     20 N2         1.1342    3.5586    1.4544 N.am      1 RES1    0.0000
     21 C11        0.9740    4.5745    0.4052 C.3       1 RES1    0.0000
     22 H7         1.2181    4.1995   -0.4442 H         1 RES1    0.0000
     23 H8         1.5403    5.3258    0.5978 H         1 RES1    0.0000
     24 H9         0.0591    4.8629    0.3769 H         1 RES1    0.0000
     25 C12        1.1135    4.0765    2.8315 C.3       1 RES1    0.0000
     26 H10        0.9657    3.3517    3.4438 H         1 RES1    0.0000
     27 H11        0.4071    4.7206    2.9204 H         1 RES1    0.0000
     28 H12        1.9544    4.4953    3.0291 H         1 RES1    0.0000
@<TRIPOS>BOND
     1    1    2 1
     2    2   18 1
     3    3   19 2
     4    4    5 1
     5    6    4 ar
     6    7    6 1
     7    8    6 ar
     8    9    8 1
     9   10    8 ar
    10   11   10 1
    11   12   10 ar
    12   13   12 1
    13   14    4 ar
    14   15    1 2
    15   16   15 1
    16   17   16 1
    17   18   16 2
    18   19   18 1
    19   20   19 1
    20   21   20 1
    21   22   21 1
    22   23   21 1
    23   24   21 1
    24   25   20 1
    25   26   25 1
    26   27   25 1
    27   28   25 1
    28   12   14 ar
    29   14   15 1
@<TRIPOS>SUBSTRUCTURE
     1 RES1 1

@<TRIPOS>CRYSIN
   7.5960   12.3770   12.1230  90.0000 102.9640  90.0000  14 1

