# MOL2 file generated by ConQuest
# Please check atom types

@<TRIPOS>MOLECULE
FIZFOL
    39    40     1
SMALL
NO_CHARGES
****
Generated from CSD

@<TRIPOS>ATOM
      1 O1        10.8670   -3.1313    1.7627 O.2       1 RES1    0.0000
      2 O2         9.5823   -4.8249    1.4456 O.2       1 RES1    0.0000
      3 O3         5.4622   -4.4481   -0.8102 O.2       1 RES1    0.0000
      4 O4         4.4621   -2.5313   -0.9492 O.2       1 RES1    0.0000
      5 O5         9.2245    5.8092    1.4841 O.3       1 RES1    0.0000
      6 O6        11.3996    6.8120    2.6476 O.3       1 RES1    0.0000
      7 H1        10.7297    7.1760    2.2989 H         1 RES1    0.0000
      8 N1         9.8722   -0.6863    1.6667 N.pl3     1 RES1    0.0000
      9 H2        10.5079   -1.1682    1.9799 H         1 RES1    0.0000
     10 N2         9.8721    0.6881    1.7332 N.2       1 RES1    0.0000
     11 N3         9.7797   -3.6166    1.4355 N.pl3     1 RES1    0.0000
     12 N4         5.4255   -3.2321   -0.6386 N.pl3     1 RES1    0.0000
     13 C1         8.8134   -1.3266    1.1076 C.ar      1 RES1    0.0000
     14 C2         8.7138   -2.7346    1.0048 C.ar      1 RES1    0.0000
     15 C3         7.6078   -3.3526    0.4427 C.ar      1 RES1    0.0000
     16 H3         7.5608   -4.2802    0.3927 H         1 RES1    0.0000
     17 C4         6.5839   -2.5774   -0.0390 C.ar      1 RES1    0.0000
     18 C5         6.6455   -1.1945    0.0307 C.ar      1 RES1    0.0000
     19 H4         5.9485   -0.6826   -0.3124 H         1 RES1    0.0000
     20 C6         7.7222   -0.5779    0.6008 C.ar      1 RES1    0.0000
     21 H5         7.7394    0.3502    0.6578 H         1 RES1    0.0000
     22 C7        10.8783    1.2307    2.3065 C.2       1 RES1    0.0000
     23 H6        11.5498    0.6935    2.6608 H         1 RES1    0.0000
     24 C8        10.9876    2.6805    2.4110 C.ar      1 RES1    0.0000
     25 C9         9.9806    3.5202    1.8876 C.ar      1 RES1    0.0000
     26 H7         9.2238    3.1475    1.4959 H         1 RES1    0.0000
     27 C10       10.1157    4.8891    1.9550 C.ar      1 RES1    0.0000
     28 C11       11.2547    5.4534    2.5668 C.ar      1 RES1    0.0000
     29 C12       12.2307    4.6342    3.0839 C.ar      1 RES1    0.0000
     30 H8        12.9798    5.0079    3.4891 H         1 RES1    0.0000
     31 C13       12.1049    3.2561    3.0058 C.ar      1 RES1    0.0000
     32 H9        12.7744    2.7112    3.3538 H         1 RES1    0.0000
     33 C14        8.0593    5.3310    0.7960 C.3       1 RES1    0.0000
     34 H10        7.5209    4.7835    1.3893 H         1 RES1    0.0000
     35 H11        8.3186    4.7931    0.0319 H         1 RES1    0.0000
     36 C15        7.2784    6.5298    0.3444 C.3       1 RES1    0.0000
     37 H12        6.4657    6.2417   -0.0781 H         1 RES1    0.0000
     38 H13        7.8024    7.0351   -0.2816 H         1 RES1    0.0000
     39 H14        7.0673    7.0789    1.1033 H         1 RES1    0.0000
@<TRIPOS>BOND
     1    1   11 2
     2    2   11 2
     3    3   12 2
     4    4   12 2
     5    5   27 1
     6    6    7 1
     7    8    9 1
     8   10    8 1
     9   11   14 1
    10   12   17 1
    11   13    8 1
    12   14   13 ar
    13   15   14 ar
    14   16   15 1
    15   17   15 ar
    16   18   17 ar
    17   19   18 1
    18   20   13 ar
    19   21   20 1
    20   22   10 2
    21   23   22 1
    22   24   22 1
    23   25   24 ar
    24   26   25 1
    25   27   25 ar
    26   28    6 1
    27   29   28 ar
    28   30   29 1
    29   31   24 ar
    30   32   31 1
    31   33    5 1
    32   34   33 1
    33   35   33 1
    34   36   33 1
    35   37   36 1
    36   38   36 1
    37   39   36 1
    38   18   20 ar
    39   27   28 ar
    40   29   31 ar
@<TRIPOS>SUBSTRUCTURE
     1 RES1 1

@<TRIPOS>CRYSIN
  10.2450   13.6790   14.1840  90.0000 129.1500  90.0000  14 1

