# MOL2 file generated by ConQuest
# Please check atom types

@<TRIPOS>MOLECULE
FOBMUF
    28    30     1
SMALL
NO_CHARGES
****
Generated from CSD

@<TRIPOS>ATOM
      1 N1        12.3785    3.1892    8.5714 N.am      1 RES1    0.0000
      2 C1        11.3562    2.4422    9.1856 C.2       1 RES1    0.0000
      3 O1        11.4445    1.3217    9.6158 O.2       1 RES1    0.0000
      4 C2        11.9300    4.4876    8.2407 C.2       1 RES1    0.0000
      5 O2        12.5813    5.3313    7.6666 O.2       1 RES1    0.0000
      6 C3        10.5009    4.5335    8.6613 C.ar      1 RES1    0.0000
      7 C4         9.5872    5.5650    8.5631 C.ar      1 RES1    0.0000
      8 C5         8.3084    5.2409    9.0251 C.ar      1 RES1    0.0000
      9 C6         7.9303    4.0378    9.5425 C.ar      1 RES1    0.0000
     10 C7         8.8774    3.0303    9.6310 C.ar      1 RES1    0.0000
     11 C8        10.1586    3.3198    9.1939 C.ar      1 RES1    0.0000
     12 N2         7.2563    6.2929    8.9407 N.pl3     1 RES1    0.0000
     13 O3         7.6189    7.4304    8.6018 O.2       1 RES1    0.0000
     14 O4         6.1254    5.9936    9.2464 O.2       1 RES1    0.0000
     15 C9        13.7265    2.7055    8.3915 C.ar      1 RES1    0.0000
     16 C10       14.7846    3.5944    8.5658 C.ar      1 RES1    0.0000
     17 C11       16.0800    3.1320    8.3680 C.ar      1 RES1    0.0000
     18 C12       16.3114    1.8293    8.0401 C.ar      1 RES1    0.0000
     19 C13       15.2498    0.9574    7.8852 C.ar      1 RES1    0.0000
     20 C14       13.9316    1.3902    8.0415 C.ar      1 RES1    0.0000
     21 H1         9.8079    6.4193    8.2117 H         1 RES1    0.0000
     22 H2         7.0380    3.8938    9.8358 H         1 RES1    0.0000
     23 H3         8.6555    2.1739    9.9796 H         1 RES1    0.0000
     24 H4        14.6247    4.4968    8.8148 H         1 RES1    0.0000
     25 H5        16.8125    3.7307    8.4607 H         1 RES1    0.0000
     26 H6        17.2013    1.5208    7.9184 H         1 RES1    0.0000
     27 H7        15.4192    0.0480    7.6680 H         1 RES1    0.0000
     28 H8        13.2016    0.7971    7.9115 H         1 RES1    0.0000
@<TRIPOS>BOND
     1    1    2 1
     2    2    3 2
     3    4    1 1
     4    5    4 2
     5    6    4 1
     6    7    6 ar
     7    8    7 ar
     8    9    8 ar
     9   10    9 ar
    10   11    2 1
    11   12    8 1
    12   13   12 2
    13   14   12 2
    14   15    1 1
    15   16   15 ar
    16   17   16 ar
    17   18   17 ar
    18   19   18 ar
    19   20   15 ar
    20   21    7 1
    21   22    9 1
    22   23   10 1
    23   24   16 1
    24   25   17 1
    25   26   18 1
    26   27   19 1
    27   28   20 1
    28    6   11 ar
    29   10   11 ar
    30   19   20 ar
@<TRIPOS>SUBSTRUCTURE
     1 RES1 1

@<TRIPOS>CRYSIN
  11.9288    7.0604   13.8337  90.0000  90.0000  90.0000  19 1

