# MOL2 file generated by ConQuest
# Please check atom types

@<TRIPOS>MOLECULE
FOBQOD
    40    40     2
SMALL
NO_CHARGES
****
Generated from CSD

@<TRIPOS>ATOM
      1 C1         3.7217    2.5644    5.8041 C.2       1 RES1    0.0000
      2 C2         3.7485    2.2288    7.2343 C.2       1 RES1    0.0000
      3 C3         3.8094    3.2160    8.1256 C.2       1 RES1    0.0000
      4 H1         3.8065    3.0045    9.0302 H         1 RES1    0.0000
      5 C4         3.8783    4.5913    7.7394 C.2       1 RES1    0.0000
      6 C5         3.8761    4.9177    6.3368 C.2       1 RES1    0.0000
      7 H2         3.9247    5.8098    6.0793 H         1 RES1    0.0000
      8 C6         3.8043    3.9678    5.3895 C.2       1 RES1    0.0000
      9 C7         3.6905    0.7801    7.6197 C.3       1 RES1    0.0000
     10 H3         3.7732    0.6993    8.5720 H         1 RES1    0.0000
     11 H4         4.4098    0.3072    7.1945 H         1 RES1    0.0000
     12 H5         2.8516    0.4068    7.3376 H         1 RES1    0.0000
     13 C8         3.7956    4.2697    3.9271 C.3       1 RES1    0.0000
     14 H6         3.8406    5.2200    3.7959 H         1 RES1    0.0000
     15 H7         2.9872    3.9309    3.5363 H         1 RES1    0.0000
     16 H8         4.5526    3.8525    3.5098 H         1 RES1    0.0000
     17 C9         5.8272    6.3344   14.2343 C.2       2 RES2    0.0000
     18 C10        5.4139    5.5356   13.0715 C.2       2 RES2    0.0000
     19 C11        5.0028    6.1542   11.9608 C.2       2 RES2    0.0000
     20 H9         4.7614    5.6480   11.2183 H         2 RES2    0.0000
     21 C12        4.9267    7.5988   11.8892 C.2       2 RES2    0.0000
     22 C13        5.2769    8.3840   13.0476 C.2       2 RES2    0.0000
     23 H10        5.2117    9.3110   13.0063 H         2 RES2    0.0000
     24 C14        5.6945    7.8077   14.1811 C.2       2 RES2    0.0000
     25 C15        5.4741    4.0338   13.1968 C.3       2 RES2    0.0000
     26 H11        5.2117    3.6319   12.3653 H         2 RES2    0.0000
     27 H12        4.8781    3.7463   13.8937 H         2 RES2    0.0000
     28 H13        6.3703    3.7659   13.4116 H         2 RES2    0.0000
     29 C16        6.0520    8.5864   15.3999 C.3       2 RES2    0.0000
     30 H14        5.8664    9.5168   15.2526 H         2 RES2    0.0000
     31 H15        6.9859    8.4728   15.5890 H         2 RES2    0.0000
     32 H16        5.5336    8.2719   16.1453 H         2 RES2    0.0000
     33 N1         3.9682    5.4417    8.7447 N.2       1 RES1    0.0000
     34 N2         4.5265    8.0884   10.7571 N.2       2 RES2    0.0000
     35 O1         3.6245    1.6601    4.9649 O.2       1 RES1    0.0000
     36 O2         4.0494    6.7219    8.2875 O.3       1 RES1    0.0000
     37 H17        4.1031    7.2344    8.9269 H         1 RES1    0.0000
     38 O3         6.2797    5.7911   15.2425 O.2       2 RES2    0.0000
     39 O4         4.4402    9.4631   10.7682 O.3       2 RES2    0.0000
     40 H18        4.1857    9.7276   10.0342 H         2 RES2    0.0000
@<TRIPOS>BOND
     1    1    2 1
     2    2    3 2
     3    3    4 1
     4    5    3 1
     5    6    5 1
     6    7    6 1
     7    8    1 1
     8    9    2 1
     9   10    9 1
    10   11    9 1
    11   12    9 1
    12   13    8 1
    13   14   13 1
    14   15   13 1
    15   16   13 1
    16   17   18 1
    17   18   19 2
    18   19   20 1
    19   21   19 1
    20   22   21 1
    21   23   22 1
    22   24   17 1
    23   25   18 1
    24   26   25 1
    25   27   25 1
    26   28   25 1
    27   29   24 1
    28   30   29 1
    29   31   29 1
    30   32   29 1
    31   33    5 2
    32   34   21 2
    33   35    1 2
    34   36   33 1
    35   37   36 1
    36   38   17 2
    37   39   34 1
    38   40   39 1
    39    6    8 2
    40   22   24 2
@<TRIPOS>SUBSTRUCTURE
     1 RES1 1
     2 RES2 17

@<TRIPOS>CRYSIN
   7.2505   16.3379   26.4894  90.0000  90.0000  90.0000  61 1

