# MOL2 file generated by ConQuest
# Please check atom types

@<TRIPOS>MOLECULE
FOBQOC
   162   174     2
SMALL
NO_CHARGES
****
Generated from CSD

@<TRIPOS>ATOM
      1 N1        -3.0622    8.0270    8.4301 N.2       1 RES1    0.0000
      2 O1        -2.3927    8.4403    9.6100 O.3       1 RES1    0.0000
      3 O2         2.0794   -1.5350   12.5929 O.3       1 RES1    0.0000
      4 C1        -1.9511    4.8459   10.0037 C.3       1 RES1    0.0000
      5 H1        -1.7526    4.3013    9.2264 H         1 RES1    0.0000
      6 H2        -2.7049    4.4482   10.4659 H         1 RES1    0.0000
      7 C2        -2.3084    6.2281    9.5671 C.2       1 RES1    0.0000
      8 C3        -1.9549    7.3345   10.2445 C.2       1 RES1    0.0000
      9 C4        -1.1807    7.4453   11.5115 C.3       1 RES1    0.0000
     10 C5        -0.9664    5.9765   12.0228 C.3       1 RES1    0.0000
     11 H3        -1.8100    5.7309   12.4547 H         1 RES1    0.0000
     12 C6         0.0850    5.9094   13.1309 C.3       1 RES1    0.0000
     13 H4         0.9660    6.0554   12.7509 H         1 RES1    0.0000
     14 H5        -0.0825    6.6096   13.7792 H         1 RES1    0.0000
     15 C7         0.0498    4.5532   13.8262 C.3       1 RES1    0.0000
     16 H6        -0.8183    4.4390   14.2429 H         1 RES1    0.0000
     17 H7         0.7173    4.5462   14.5298 H         1 RES1    0.0000
     18 C8         0.3080    3.3633   12.8878 C.3       1 RES1    0.0000
     19 C9        -0.6791    3.4872   11.6899 C.3       1 RES1    0.0000
     20 H8        -1.5680    3.3951   12.0933 H         1 RES1    0.0000
     21 C10       -0.7238    4.8741   10.9438 C.3       1 RES1    0.0000
     22 C11       -0.5613    2.2884   10.7449 C.3       1 RES1    0.0000
     23 H9        -1.2288    2.3665   10.0448 H         1 RES1    0.0000
     24 H10        0.3133    2.2961   10.3251 H         1 RES1    0.0000
     25 C12       -0.7535    0.9683   11.4776 C.3       1 RES1    0.0000
     26 H11       -0.6156    0.2357   10.8565 H         1 RES1    0.0000
     27 H12       -1.6655    0.9154   11.8037 H         1 RES1    0.0000
     28 C13        0.2054    0.8153   12.6500 C.3       1 RES1    0.0000
     29 H13        1.1128    0.8756   12.2846 H         1 RES1    0.0000
     30 C14        0.0440    1.9924   13.6495 C.3       1 RES1    0.0000
     31 C15        1.0553    1.8001   14.8049 C.3       1 RES1    0.0000
     32 H14        1.9542    1.8950   14.4528 H         1 RES1    0.0000
     33 H15        0.9191    2.5012   15.4598 H         1 RES1    0.0000
     34 C16        0.9423    0.4540   15.5003 C.3       1 RES1    0.0000
     35 H16        0.1075    0.4255   15.9925 H         1 RES1    0.0000
     36 H17        1.6661    0.3704   16.1413 H         1 RES1    0.0000
     37 C17        0.9926   -0.7338   14.5438 C.3       1 RES1    0.0000
     38 C18        0.0857   -0.5630   13.3138 C.3       1 RES1    0.0000
     39 H18       -0.8470   -0.7470   13.5507 H         1 RES1    0.0000
     40 C19        0.6489   -1.6985   12.4660 C.3       1 RES1    0.0000
     41 H19        0.3804   -1.5827   11.5301 H         1 RES1    0.0000
     42 C20        0.2404   -3.0972   12.9614 C.3       1 RES1    0.0000
     43 C21        0.7773   -3.2720   14.3863 C.3       1 RES1    0.0000
     44 H20        0.3193   -4.0166   14.8061 H         1 RES1    0.0000
     45 H21        1.7210   -3.4931   14.3425 H         1 RES1    0.0000
     46 C22        0.5993   -2.0331   15.2501 C.3       1 RES1    0.0000
     47 H22        1.1371   -2.1307   16.0509 H         1 RES1    0.0000
     48 H23       -0.3295   -1.9715   15.5235 H         1 RES1    0.0000
     49 C23       -2.0187    8.2143   12.5317 C.3       1 RES1    0.0000
     50 H24       -1.5297    8.2933   13.3541 H         1 RES1    0.0000
     51 H25       -2.8399    7.7423   12.6912 H         1 RES1    0.0000
     52 H26       -2.2135    9.0893   12.1903 H         1 RES1    0.0000
     53 C24        0.1214    8.2266   11.2418 C.3       1 RES1    0.0000
     54 H27        0.6245    8.2995   12.0561 H         1 RES1    0.0000
     55 H28       -0.0931    9.1046   10.9176 H         1 RES1    0.0000
     56 H29        0.6434    7.7606   10.5842 H         1 RES1    0.0000
     57 C25        0.5013    5.1490   10.0607 C.3       1 RES1    0.0000
     58 H30        1.2904    5.1738   10.6067 H         1 RES1    0.0000
     59 H31        0.3925    5.9912    9.6157 H         1 RES1    0.0000
     60 H32        0.5876    4.4513    9.4071 H         1 RES1    0.0000
     61 C26        1.7764    3.4309   12.4268 C.3       1 RES1    0.0000
     62 H33        1.9613    2.6971   11.8383 H         1 RES1    0.0000
     63 H34        2.3545    3.3828   13.1920 H         1 RES1    0.0000
     64 H35        1.9282    4.2584   11.9645 H         1 RES1    0.0000
     65 C27       -1.3539    1.9553   14.2838 C.3       1 RES1    0.0000
     66 H36       -2.0185    2.0726   13.6012 H         1 RES1    0.0000
     67 H37       -1.4315    2.6604   14.9297 H         1 RES1    0.0000
     68 H38       -1.4866    1.1082   14.7185 H         1 RES1    0.0000
     69 C28        2.3401   -0.9184   13.8549 C.3       1 RES1    0.0000
     70 H39        2.7743   -0.0612   13.7274 H         1 RES1    0.0000
     71 H40        2.9195   -1.4817   14.3916 H         1 RES1    0.0000
     72 C29       -1.2775   -3.2530   12.9157 C.3       1 RES1    0.0000
     73 H41       -1.6839   -2.5961   13.4856 H         1 RES1    0.0000
     74 H42       -1.5184   -4.1329   13.2159 H         1 RES1    0.0000
     75 H43       -1.5847   -3.1288   12.0136 H         1 RES1    0.0000
     76 C30        0.8683   -4.1497   12.0482 C.3       1 RES1    0.0000
     77 H44        1.8240   -4.0625   12.0681 H         1 RES1    0.0000
     78 H45        0.5543   -4.0227   11.1501 H         1 RES1    0.0000
     79 H46        0.6207   -5.0268   12.3524 H         1 RES1    0.0000
     80 C31       -2.9993    6.7375    8.4386 C.2       1 RES1    0.0000
     81 H47       -3.3681    6.1993    7.7757 H         1 RES1    0.0000
     82 N2         3.6951   14.7936    8.8491 N.2       2 RES2    0.0000
     83 O3         3.0337   15.1493    7.6415 O.3       2 RES2    0.0000
     84 O4        -2.2509    5.1771    5.6238 O.3       2 RES2    0.0000
     85 C32        2.0366   11.6434    7.7437 C.3       2 RES2    0.0000
     86 H48        1.7202   11.2782    8.5848 H         2 RES2    0.0000
     87 H49        2.7277   11.0547    7.4024 H         2 RES2    0.0000
     88 C33        2.6137   13.0039    7.9790 C.2       2 RES2    0.0000
     89 C34        2.4087   14.0399    7.1566 C.2       2 RES2    0.0000
     90 C35        1.6708   14.0870    5.8746 C.3       2 RES2    0.0000
     91 C36        1.2727   12.6059    5.5408 C.3       2 RES2    0.0000
     92 H50        2.0903   12.1997    5.1838 H         2 RES2    0.0000
     93 C37        0.2649   12.5089    4.4106 C.3       2 RES2    0.0000
     94 H51        0.5259   13.1059    3.6932 H         2 RES2    0.0000
     95 H52       -0.6073   12.7875    4.7308 H         2 RES2    0.0000
     96 C38        0.1770   11.0844    3.8775 C.3       2 RES2    0.0000
     97 H53        1.0403   10.8343    3.5139 H         2 RES2    0.0000
     98 H54       -0.4657   11.0608    3.1512 H         2 RES2    0.0000
     99 C39       -0.2338   10.0494    4.9325 C.3       2 RES2    0.0000
    100 C40        0.6764   10.2385    6.1820 C.3       2 RES2    0.0000
    101 H55        1.5691    9.9740    5.8773 H         2 RES2    0.0000
    102 C41        0.8676   11.6979    6.7376 C.3       2 RES2    0.0000
    103 C42        0.3265    9.2280    7.2690 C.3       2 RES2    0.0000
    104 H56        0.9138    9.3556    8.0308 H         2 RES2    0.0000
    105 H57       -0.5859    9.3740    7.5645 H         2 RES2    0.0000
    106 C43        0.4707    7.8063    6.7505 C.3       2 RES2    0.0000
    107 H58        0.1947    7.1882    7.4449 H         2 RES2    0.0000
    108 H59        1.4055    7.6351    6.5548 H         2 RES2    0.0000
    109 C44       -0.3533    7.5464    5.4975 C.3       2 RES2    0.0000
    110 H60       -1.2958    7.6688    5.7378 H         2 RES2    0.0000
    111 C45       -0.0254    8.5704    4.3771 C.3       2 RES2    0.0000
    112 C46       -0.9674    8.2710    3.1920 C.3       2 RES2    0.0000
    113 H61       -1.8843    8.4158    3.4740 H         2 RES2    0.0000
    114 H62       -0.7774    8.8934    2.4737 H         2 RES2    0.0000
    115 C47       -0.8318    6.8395    2.6574 C.3       2 RES2    0.0000
    116 H63       -1.5196    6.6892    1.9901 H         2 RES2    0.0000
    117 H64        0.0289    6.7504    2.2186 H         2 RES2    0.0000
    118 C48       -0.9464    5.7692    3.7300 C.3       2 RES2    0.0000
    119 C49       -0.1868    6.0980    5.0270 C.3       2 RES2    0.0000
    120 H65        0.7651    5.8871    4.9194 H         2 RES2    0.0000
    121 C50       -0.8476    5.0672    5.9417 C.3       2 RES2    0.0000
    122 H66       -0.6958    5.3054    6.8803 H         2 RES2    0.0000
    123 C51       -0.3655    3.6299    5.6758 C.3       2 RES2    0.0000
    124 C52       -0.7053    3.2766    4.2153 C.3       2 RES2    0.0000
    125 H67       -0.1866    2.5012    3.9523 H         2 RES2    0.0000
    126 H68       -1.6439    3.0369    4.1622 H         2 RES2    0.0000
    127 C53       -0.4304    4.4096    3.2325 C.3       2 RES2    0.0000
    128 H69       -0.8536    4.2033    2.3847 H         2 RES2    0.0000
    129 H70        0.5253    4.4696    3.0795 H         2 RES2    0.0000
    130 C54        2.6169   14.6093    4.7773 C.3       2 RES2    0.0000
    131 H71        2.1478   14.6427    3.9403 H         2 RES2    0.0000
    132 H72        3.3705   14.0212    4.6976 H         2 RES2    0.0000
    133 H73        2.9216   15.4907    5.0098 H         2 RES2    0.0000
    134 C55        0.4802   15.0627    5.9783 C.3       2 RES2    0.0000
    135 H74        0.0104   15.0835    5.1413 H         2 RES2    0.0000
    136 H75        0.8041   15.9407    6.1868 H         2 RES2    0.0000
    137 H76       -0.1148   14.7682    6.6717 H         2 RES2    0.0000
    138 C56       -0.3561   12.2447    7.4994 C.3       2 RES2    0.0000
    139 H77       -1.1080   12.2946    6.9042 H         2 RES2    0.0000
    140 H78       -0.1575   13.1212    7.8382 H         2 RES2    0.0000
    141 H79       -0.5652   11.6609    8.2314 H         2 RES2    0.0000
    142 C57       -1.7203   10.2768    5.2652 C.3       2 RES2    0.0000
    143 H80       -2.0011    9.6403    5.9251 H         2 RES2    0.0000
    144 H81       -2.2468   10.1669    4.4704 H         2 RES2    0.0000
    145 H82       -1.8390   11.1649    5.6076 H         2 RES2    0.0000
    146 C58        1.4175    8.3668    3.8705 C.3       2 RES2    0.0000
    147 H83        2.0355    8.5444    4.5833 H         2 RES2    0.0000
    148 H84        1.5880    8.9668    3.1419 H         2 RES2    0.0000
    149 H85        1.5270    7.4606    3.5710 H         2 RES2    0.0000
    150 C59       -2.3634    5.6198    4.2766 C.3       2 RES2    0.0000
    151 H86       -2.8295    6.4687    4.2406 H         2 RES2    0.0000
    152 H87       -2.8601    4.9717    3.7504 H         2 RES2    0.0000
    153 C60        1.1312    3.5019    5.9450 C.3       2 RES2    0.0000
    154 H88        1.6121    4.0992    5.3685 H         2 RES2    0.0000
    155 H89        1.4109    2.5991    5.7737 H         2 RES2    0.0000
    156 H90        1.3117    3.7257    6.8604 H         2 RES2    0.0000
    157 C61       -1.1117    2.6708    6.6000 C.3       2 RES2    0.0000
    158 H91       -2.0559    2.7430    6.4406 H         2 RES2    0.0000
    159 H92       -0.9244    2.8961    7.5140 H         2 RES2    0.0000
    160 H93       -0.8252    1.7726    6.4273 H         2 RES2    0.0000
    161 C62        3.4248   13.5344    8.9993 C.2       2 RES2    0.0000
    162 H94        3.7379   13.0293    9.7153 H         2 RES2    0.0000
@<TRIPOS>BOND
     1    1    2 1
     2    2    8 1
     3    3   40 1
     4    4    5 1
     5    6    4 1
     6    7    4 1
     7    8    7 2
     8    9    8 1
     9   10    9 1
    10   11   10 1
    11   12   10 1
    12   13   12 1
    13   14   12 1
    14   15   12 1
    15   16   15 1
    16   17   15 1
    17   18   15 1
    18   19   18 1
    19   20   19 1
    20   21    4 1
    21   22   19 1
    22   23   22 1
    23   24   22 1
    24   25   22 1
    25   26   25 1
    26   27   25 1
    27   28   25 1
    28   29   28 1
    29   30   18 1
    30   31   30 1
    31   32   31 1
    32   33   31 1
    33   34   31 1
    34   35   34 1
    35   36   34 1
    36   37   34 1
    37   38   28 1
    38   39   38 1
    39   40   38 1
    40   41   40 1
    41   42   40 1
    42   43   42 1
    43   44   43 1
    44   45   43 1
    45   46   37 1
    46   47   46 1
    47   48   46 1
    48   49    9 1
    49   50   49 1
    50   51   49 1
    51   52   49 1
    52   53    9 1
    53   54   53 1
    54   55   53 1
    55   56   53 1
    56   57   21 1
    57   58   57 1
    58   59   57 1
    59   60   57 1
    60   61   18 1
    61   62   61 1
    62   63   61 1
    63   64   61 1
    64   65   30 1
    65   66   65 1
    66   67   65 1
    67   68   65 1
    68   69    3 1
    69   70   69 1
    70   71   69 1
    71   72   42 1
    72   73   72 1
    73   74   72 1
    74   75   72 1
    75   76   42 1
    76   77   76 1
    77   78   76 1
    78   79   76 1
    79   80    1 2
    80   81   80 1
    81   82   83 1
    82   83   89 1
    83   84  121 1
    84   85   86 1
    85   87   85 1
    86   88   85 1
    87   89   88 2
    88   90   89 1
    89   91   90 1
    90   92   91 1
    91   93   91 1
    92   94   93 1
    93   95   93 1
    94   96   93 1
    95   97   96 1
    96   98   96 1
    97   99   96 1
    98  100   99 1
    99  101  100 1
   100  102   85 1
   101  103  100 1
   102  104  103 1
   103  105  103 1
   104  106  103 1
   105  107  106 1
   106  108  106 1
   107  109  106 1
   108  110  109 1
   109  111   99 1
   110  112  111 1
   111  113  112 1
   112  114  112 1
   113  115  112 1
   114  116  115 1
   115  117  115 1
   116  118  115 1
   117  119  109 1
   118  120  119 1
   119  121  119 1
   120  122  121 1
   121  123  121 1
   122  124  123 1
   123  125  124 1
   124  126  124 1
   125  127  118 1
   126  128  127 1
   127  129  127 1
   128  130   90 1
   129  131  130 1
   130  132  130 1
   131  133  130 1
   132  134   90 1
   133  135  134 1
   134  136  134 1
   135  137  134 1
   136  138  102 1
   137  139  138 1
   138  140  138 1
   139  141  138 1
   140  142   99 1
   141  143  142 1
   142  144  142 1
   143  145  142 1
   144  146  111 1
   145  147  146 1
   146  148  146 1
   147  149  146 1
   148  150   84 1
   149  151  150 1
   150  152  150 1
   151  153  123 1
   152  154  153 1
   153  155  153 1
   154  156  153 1
   155  157  123 1
   156  158  157 1
   157  159  157 1
   158  160  157 1
   159  161   82 2
   160  162  161 1
   161    7   80 1
   162   10   21 1
   163   19   21 1
   164   28   30 1
   165   37   38 1
   166   37   69 1
   167   43   46 1
   168   88  161 1
   169   91  102 1
   170  100  102 1
   171  109  111 1
   172  118  119 1
   173  118  150 1
   174  124  127 1
@<TRIPOS>SUBSTRUCTURE
     1 RES1 1
     2 RES2 82

@<TRIPOS>CRYSIN
   6.5284   30.6140   13.5481  90.0000 101.3100  90.0000   4 1

