# MOL2 file generated by ConQuest
# Please check atom types

@<TRIPOS>MOLECULE
FOBQIW
    83    88     1
SMALL
NO_CHARGES
****
Generated from CSD

@<TRIPOS>ATOM
      1 N1         1.6409   17.5193   -0.7471 N.2       1 RES1    0.0000
      2 O1         1.8865   16.2447   -1.3263 O.3       1 RES1    0.0000
      3 O2        -0.4004    9.2559    6.5655 O.2       1 RES1    0.0000
      4 O3         0.6708    7.4795    5.7899 O.3       1 RES1    0.0000
      5 C1         1.4936   15.1667    2.1275 C.3       1 RES1    0.0000
      6 H1         0.7692   15.5384    2.6538 H         1 RES1    0.0000
      7 H2         2.3158   15.2692    2.6303 H         1 RES1    0.0000
      8 C2         1.6037   15.9091    0.8417 C.2       1 RES1    0.0000
      9 C3         1.8535   15.3298   -0.3312 C.2       1 RES1    0.0000
     10 C4         2.1349   13.8926   -0.6313 C.3       1 RES1    0.0000
     11 C5         2.1851   13.1588    0.7568 C.3       1 RES1    0.0000
     12 H3         3.0857   13.3312    1.1021 H         1 RES1    0.0000
     13 C6         2.1018   11.6434    0.6107 C.3       1 RES1    0.0000
     14 H4         1.1840   11.3836    0.4379 H         1 RES1    0.0000
     15 H5         2.6440   11.3587   -0.1411 H         1 RES1    0.0000
     16 C7         2.5931   10.9633    1.8771 C.3       1 RES1    0.0000
     17 H6         3.5281   11.1848    2.0102 H         1 RES1    0.0000
     18 H7         2.5305   10.0019    1.7633 H         1 RES1    0.0000
     19 C8         1.8019   11.3681    3.1329 C.3       1 RES1    0.0000
     20 C9         1.6230   12.9100    3.1925 C.3       1 RES1    0.0000
     21 H8         2.5133   13.2539    3.4150 H         1 RES1    0.0000
     22 C10        1.2267   13.6593    1.8733 C.3       1 RES1    0.0000
     23 C11        0.7561   13.2843    4.3948 C.3       1 RES1    0.0000
     24 H9         0.9144   14.2160    4.6170 H         1 RES1    0.0000
     25 H10       -0.1768   13.1946    4.1468 H         1 RES1    0.0000
     26 C12        1.0120   12.4535    5.6074 C.2       1 RES1    0.0000
     27 H11        0.5759   12.7046    6.3892 H         1 RES1    0.0000
     28 C13        1.8012   11.3926    5.6762 C.2       1 RES1    0.0000
     29 C14        2.5862   10.9288    4.4439 C.3       1 RES1    0.0000
     30 C15        2.7802    9.3940    4.4360 C.3       1 RES1    0.0000
     31 H12        1.9787    8.9846    4.0763 H         1 RES1    0.0000
     32 H13        3.5122    9.1792    3.8382 H         1 RES1    0.0000
     33 C16        3.0699    8.7767    5.7888 C.3       1 RES1    0.0000
     34 H14        3.9340    9.0853    6.1012 H         1 RES1    0.0000
     35 H15        3.1139    7.8127    5.6956 H         1 RES1    0.0000
     36 C17        2.0021    9.1341    6.8232 C.3       1 RES1    0.0000
     37 C18        1.9780   10.6666    7.0034 C.3       1 RES1    0.0000
     38 H16        1.1937   10.8784    7.5500 H         1 RES1    0.0000
     39 C19        3.2143   11.1571    7.7810 C.3       1 RES1    0.0000
     40 H17        3.9959   11.0385    7.2179 H         1 RES1    0.0000
     41 H18        3.1153   12.1083    7.9438 H         1 RES1    0.0000
     42 C20        3.4730   10.4563    9.1265 C.3       1 RES1    0.0000
     43 C21        3.5019    8.9418    8.8796 C.3       1 RES1    0.0000
     44 H19        4.2821    8.7251    8.3465 H         1 RES1    0.0000
     45 H20        3.5914    8.4863    9.7307 H         1 RES1    0.0000
     46 C22        2.2642    8.4225    8.1731 C.3       1 RES1    0.0000
     47 H21        1.4950    8.5456    8.7491 H         1 RES1    0.0000
     48 H22        2.3667    7.4703    8.0144 H         1 RES1    0.0000
     49 C23        3.5102   13.7771   -1.2928 C.3       1 RES1    0.0000
     50 H23        3.6952   12.8550   -1.4871 H         1 RES1    0.0000
     51 H24        4.1817   14.1194   -0.6965 H         1 RES1    0.0000
     52 H25        3.5171   14.2837   -2.1072 H         1 RES1    0.0000
     53 C24        1.0636   13.3437   -1.6005 C.3       1 RES1    0.0000
     54 H26        1.2473   12.4202   -1.7898 H         1 RES1    0.0000
     55 H27        1.0815   13.8475   -2.4158 H         1 RES1    0.0000
     56 H28        0.1961   13.4196   -1.1961 H         1 RES1    0.0000
     57 C25       -0.2559   13.5272    1.4768 C.3       1 RES1    0.0000
     58 H29       -0.4616   12.6038    1.3107 H         1 RES1    0.0000
     59 H30       -0.4217   14.0407    0.6818 H         1 RES1    0.0000
     60 H31       -0.8084   13.8544    2.1895 H         1 RES1    0.0000
     61 C26        0.4279   10.6706    3.0847 C.3       1 RES1    0.0000
     62 H32       -0.0812   10.9115    3.8617 H         1 RES1    0.0000
     63 H33        0.5525    9.7189    3.0682 H         1 RES1    0.0000
     64 H34       -0.0433   10.9460    2.2953 H         1 RES1    0.0000
     65 C27        3.9918   11.5756    4.5262 C.3       1 RES1    0.0000
     66 H35        4.5133   11.3049    3.7677 H         1 RES1    0.0000
     67 H36        4.4287   11.2897    5.3312 H         1 RES1    0.0000
     68 H37        3.9044   12.5320    4.5318 H         1 RES1    0.0000
     69 C28        0.6295    8.6675    6.3845 C.2       1 RES1    0.0000
     70 C29        4.8366   10.9101    9.6340 C.3       1 RES1    0.0000
     71 H38        5.5095   10.6865    8.9872 H         1 RES1    0.0000
     72 H39        5.0327   10.4684   10.4625 H         1 RES1    0.0000
     73 H40        4.8277   11.8598    9.7718 H         1 RES1    0.0000
     74 C30        2.4087   10.8107   10.1536 C.3       1 RES1    0.0000
     75 H41        1.5487   10.5264    9.8365 H         1 RES1    0.0000
     76 H42        2.4004   11.7618   10.2920 H         1 RES1    0.0000
     77 H43        2.6048   10.3704   10.9827 H         1 RES1    0.0000
     78 C31        1.4833   17.2823    0.5175 C.2       1 RES1    0.0000
     79 H44        1.3093   17.9443    1.1462 H         1 RES1    0.0000
     80 C32       -0.5869    6.9458    5.3567 C.3       1 RES1    0.0000
     81 H45       -0.4465    6.0914    4.9432 H         1 RES1    0.0000
     82 H46       -0.9880    7.5449    4.7228 H         1 RES1    0.0000
     83 H47       -1.1689    6.8437    6.1129 H         1 RES1    0.0000
@<TRIPOS>BOND
     1    1    2 1
     2    2    9 1
     3    3   69 2
     4    4   69 1
     5    5    6 1
     6    7    5 1
     7    8    5 1
     8    9    8 2
     9   10    9 1
    10   11   10 1
    11   12   11 1
    12   13   11 1
    13   14   13 1
    14   15   13 1
    15   16   13 1
    16   17   16 1
    17   18   16 1
    18   19   16 1
    19   20   19 1
    20   21   20 1
    21   22    5 1
    22   23   20 1
    23   24   23 1
    24   25   23 1
    25   26   23 1
    26   27   26 1
    27   28   26 2
    28   29   19 1
    29   30   29 1
    30   31   30 1
    31   32   30 1
    32   33   30 1
    33   34   33 1
    34   35   33 1
    35   36   33 1
    36   37   28 1
    37   38   37 1
    38   39   37 1
    39   40   39 1
    40   41   39 1
    41   42   39 1
    42   43   42 1
    43   44   43 1
    44   45   43 1
    45   46   36 1
    46   47   46 1
    47   48   46 1
    48   49   10 1
    49   50   49 1
    50   51   49 1
    51   52   49 1
    52   53   10 1
    53   54   53 1
    54   55   53 1
    55   56   53 1
    56   57   22 1
    57   58   57 1
    58   59   57 1
    59   60   57 1
    60   61   19 1
    61   62   61 1
    62   63   61 1
    63   64   61 1
    64   65   29 1
    65   66   65 1
    66   67   65 1
    67   68   65 1
    68   69   36 1
    69   70   42 1
    70   71   70 1
    71   72   70 1
    72   73   70 1
    73   74   42 1
    74   75   74 1
    75   76   74 1
    76   77   74 1
    77   78    1 2
    78   79   78 1
    79   80    4 1
    80   81   80 1
    81   82   80 1
    82   83   80 1
    83    8   78 1
    84   11   22 1
    85   20   22 1
    86   28   29 1
    87   36   37 1
    88   43   46 1
@<TRIPOS>SUBSTRUCTURE
     1 RES1 1

@<TRIPOS>CRYSIN
   6.8800   13.8033   29.3890  90.0000  90.0000  90.0000  19 1

