# MOL2 file generated by ConQuest
# Please check atom types

@<TRIPOS>MOLECULE
FOBTEW
   104   110     2
SMALL
NO_CHARGES
****
Generated from CSD

@<TRIPOS>ATOM
      1 C1        -0.2077   12.5877    5.0262 C.3       1 RES1    0.0000
      2 H1         0.5828   12.5055    4.4521 H         1 RES1    0.0000
      3 C2        -0.3312   11.3629    5.9029 C.3       1 RES1    0.0000
      4 H2        -0.4101   10.5837    5.3300 H         1 RES1    0.0000
      5 H3        -1.1548   11.4327    6.4119 H         1 RES1    0.0000
      6 C3         0.8232   11.1256    6.8840 C.3       1 RES1    0.0000
      7 C4         2.0282   10.4896    6.1924 C.3       1 RES1    0.0000
      8 H4         2.7090   10.3044    6.8437 H         1 RES1    0.0000
      9 H5         2.3739   11.0951    5.5316 H         1 RES1    0.0000
     10 H6         1.7593    9.6719    5.7689 H         1 RES1    0.0000
     11 C5         0.3523   10.2175    8.0169 C.3       1 RES1    0.0000
     12 H7        -0.3300   10.6649    8.5234 H         1 RES1    0.0000
     13 H8         1.0938   10.0124    8.5911 H         1 RES1    0.0000
     14 H9        -0.0021    9.4040    7.6492 H         1 RES1    0.0000
     15 C6         1.1795   13.7364    6.8389 C.3       1 RES1    0.0000
     16 C7         1.0253   14.7821    7.9445 C.3       1 RES1    0.0000
     17 H10        1.8051   14.7721    8.5045 H         1 RES1    0.0000
     18 H11        0.2500   14.5798    8.4712 H         1 RES1    0.0000
     19 H12        0.9254   15.6525    7.5495 H         1 RES1    0.0000
     20 C8         2.4749   13.9700    6.0477 C.3       1 RES1    0.0000
     21 H13        2.5026   13.3731    5.2968 H         1 RES1    0.0000
     22 H14        3.2310   13.8062    6.6159 H         1 RES1    0.0000
     23 H15        2.4998   14.8775    5.7357 H         1 RES1    0.0000
     24 C9        -0.0556   13.7899    5.9362 C.3       1 RES1    0.0000
     25 H16       -0.8455   13.8603    6.4937 H         1 RES1    0.0000
     26 H17       -0.0077   14.5897    5.3905 H         1 RES1    0.0000
     27 C10       -1.4518   12.3217    2.8618 C.ar      1 RES1    0.0000
     28 C11       -2.4075   11.3743    2.4295 C.ar      1 RES1    0.0000
     29 C12       -3.3694   10.7674    3.2813 C.ar      1 RES1    0.0000
     30 H18       -3.3827   10.9882    4.1840 H         1 RES1    0.0000
     31 C13       -4.2645    9.8728    2.8044 C.ar      1 RES1    0.0000
     32 H19       -4.8894    9.4938    3.3809 H         1 RES1    0.0000
     33 C14       -4.2610    9.5095    1.4449 C.ar      1 RES1    0.0000
     34 H20       -4.8863    8.8997    1.1270 H         1 RES1    0.0000
     35 C15       -3.3550   10.0451    0.6014 C.ar      1 RES1    0.0000
     36 H21       -3.3566    9.7816   -0.2895 H         1 RES1    0.0000
     37 C16       -2.3951   11.0051    1.0404 C.ar      1 RES1    0.0000
     38 C17       -0.6563   12.4172    0.5528 C.ar      1 RES1    0.0000
     39 C18        0.2396   12.9699   -0.4081 C.ar      1 RES1    0.0000
     40 H22        0.2152   12.6579   -1.2836 H         1 RES1    0.0000
     41 C19        1.1267   13.9444   -0.0759 C.ar      1 RES1    0.0000
     42 H23        1.7205   14.2749   -0.7118 H         1 RES1    0.0000
     43 C20        1.1425   14.4501    1.2432 C.ar      1 RES1    0.0000
     44 H24        1.7226   15.1425    1.4603 H         1 RES1    0.0000
     45 C21        0.3282   13.9430    2.1923 C.ar      1 RES1    0.0000
     46 H25        0.3609   14.2920    3.0535 H         1 RES1    0.0000
     47 C22       -0.5805   12.8887    1.9028 C.ar      1 RES1    0.0000
     48 C23        5.3740   12.2975    9.9392 C.3       2 RES2    0.0000
     49 H26        6.1185   12.1223   10.5520 H         2 RES2    0.0000
     50 C24        5.6507   13.5483    9.1296 C.3       2 RES2    0.0000
     51 H27        5.7505   14.2963    9.7394 H         2 RES2    0.0000
     52 H28        4.8799   13.7307    8.5673 H         2 RES2    0.0000
     53 C25        6.8849   13.4730    8.2494 C.3       2 RES2    0.0000
     54 C26        8.1712   13.4885    9.0905 C.3       2 RES2    0.0000
     55 H29        8.9258   13.3147    8.5234 H         2 RES2    0.0000
     56 H30        8.1183   12.8132    9.7702 H         2 RES2    0.0000
     57 H31        8.2727   14.3504    9.5033 H         2 RES2    0.0000
     58 C27        6.8822   14.6510    7.2672 C.3       2 RES2    0.0000
     59 H32        6.0860   14.6197    6.7322 H         2 RES2    0.0000
     60 H33        7.6536   14.5940    6.6978 H         2 RES2    0.0000
     61 H34        6.9075   15.4759    7.7571 H         2 RES2    0.0000
     62 C28        6.3648   10.9107    7.9730 C.3       2 RES2    0.0000
     63 C29        5.8430   10.1092    6.7784 C.3       2 RES2    0.0000
     64 H35        6.5748    9.8899    6.1971 H         2 RES2    0.0000
     65 H36        5.1993   10.6349    6.2980 H         2 RES2    0.0000
     66 H37        5.4290    9.3015    7.0916 H         2 RES2    0.0000
     67 C30        7.5332   10.1634    8.6041 C.3       2 RES2    0.0000
     68 H38        7.8542   10.6535    9.3645 H         2 RES2    0.0000
     69 H39        8.2395   10.0722    7.9611 H         2 RES2    0.0000
     70 H40        7.2427    9.2929    8.8853 H         2 RES2    0.0000
     71 C31        5.2165   11.1407    8.9647 C.3       2 RES2    0.0000
     72 H41        4.4026   11.2831    8.4570 H         2 RES2    0.0000
     73 H42        5.0953   10.3272    9.4796 H         2 RES2    0.0000
     74 C32        3.9291   12.1810   12.0415 C.ar      2 RES2    0.0000
     75 C33        4.6550   12.8376   13.0657 C.ar      2 RES2    0.0000
     76 C34        5.6912   13.7706   12.8225 C.ar      2 RES2    0.0000
     77 H43        5.9214   13.9757   11.9459 H         2 RES2    0.0000
     78 C35        6.3562   14.3732   13.8404 C.ar      2 RES2    0.0000
     79 H44        7.0401   14.9758   13.6541 H         2 RES2    0.0000
     80 C36        6.0133   14.0897   15.1785 C.ar      2 RES2    0.0000
     81 H45        6.4846   14.4886   15.8737 H         2 RES2    0.0000
     82 C37        5.0050   13.2406   15.4501 C.ar      2 RES2    0.0000
     83 H46        4.7810   13.0796   16.3387 H         2 RES2    0.0000
     84 C38        4.2713   12.5838   14.4276 C.ar      2 RES2    0.0000
     85 C39        2.5809   11.1635   13.8119 C.ar      2 RES2    0.0000
     86 C40        1.4939   10.3229   14.1666 C.ar      2 RES2    0.0000
     87 H47        1.2519   10.2503   15.0622 H         2 RES2    0.0000
     88 C41        0.8021    9.6291   13.2425 C.ar      2 RES2    0.0000
     89 H48        0.0799    9.1034   13.5035 H         2 RES2    0.0000
     90 C42        1.1659    9.6918   11.8783 C.ar      2 RES2    0.0000
     91 H49        0.7155    9.1733   11.2507 H         2 RES2    0.0000
     92 C43        2.1697   10.5096   11.4891 C.ar      2 RES2    0.0000
     93 H50        2.3886   10.5580   10.5864 H         2 RES2    0.0000
     94 C44        2.9002   11.2945   12.4180 C.ar      2 RES2    0.0000
     95 N1         1.2453   12.4170    7.5028 N.3       1 RES1    0.0000
     96 N2        -1.4163   12.7488    4.1898 N.pl3     1 RES1    0.0000
     97 H51       -2.1416   12.5425    4.6526 H         1 RES1    0.0000
     98 N3        -1.5412   11.5013    0.1319 N.ar      1 RES1    0.0000
     99 N4         6.8475   12.2211    7.4526 N.3       2 RES2    0.0000
    100 N5         4.1253   12.4713   10.6993 N.pl3     2 RES2    0.0000
    101 H52        3.4532   12.2932   10.1759 H         2 RES2    0.0000
    102 N6         3.2541   11.7889   14.7890 N.ar      2 RES2    0.0000
    103 O1         2.0569   12.3221    8.4892 O.2       1 RES1    0.0000
    104 O2         7.6317   12.1683    6.4372 O.2       2 RES2    0.0000
@<TRIPOS>BOND
     1    1    2 1
     2    3    1 1
     3    4    3 1
     4    5    3 1
     5    6    3 1
     6    7    6 1
     7    8    7 1
     8    9    7 1
     9   10    7 1
    10   11    6 1
    11   12   11 1
    12   13   11 1
    13   14   11 1
    14   15   16 1
    15   16   17 1
    16   18   16 1
    17   19   16 1
    18   20   15 1
    19   21   20 1
    20   22   20 1
    21   23   20 1
    22   24    1 1
    23   25   24 1
    24   26   24 1
    25   27   28 ar
    26   28   29 ar
    27   29   30 1
    28   31   29 ar
    29   32   31 1
    30   33   31 ar
    31   34   33 1
    32   35   33 ar
    33   36   35 1
    34   37   28 ar
    35   38   39 ar
    36   39   40 1
    37   41   39 ar
    38   42   41 1
    39   43   41 ar
    40   44   43 1
    41   45   43 ar
    42   46   45 1
    43   47   27 ar
    44   48   49 1
    45   50   48 1
    46   51   50 1
    47   52   50 1
    48   53   50 1
    49   54   53 1
    50   55   54 1
    51   56   54 1
    52   57   54 1
    53   58   53 1
    54   59   58 1
    55   60   58 1
    56   61   58 1
    57   62   63 1
    58   63   64 1
    59   65   63 1
    60   66   63 1
    61   67   62 1
    62   68   67 1
    63   69   67 1
    64   70   67 1
    65   71   48 1
    66   72   71 1
    67   73   71 1
    68   74   75 ar
    69   75   76 ar
    70   76   77 1
    71   78   76 ar
    72   79   78 1
    73   80   78 ar
    74   81   80 1
    75   82   80 ar
    76   83   82 1
    77   84   75 ar
    78   85   86 ar
    79   86   87 1
    80   88   86 ar
    81   89   88 1
    82   90   88 ar
    83   91   90 1
    84   92   90 ar
    85   93   92 1
    86   94   74 ar
    87   95    6 1
    88   96    1 1
    89   97   96 1
    90   98   37 ar
    91   99   53 1
    92  100   48 1
    93  101  100 1
    94  102   84 ar
    95  103   95 1
    96  104   99 1
    97   15   24 1
    98   15   95 1
    99   27   96 1
   100   35   37 ar
   101   38   47 ar
   102   38   98 ar
   103   45   47 ar
   104   62   71 1
   105   62   99 1
   106   74  100 1
   107   82   84 ar
   108   85   94 ar
   109   85  102 ar
   110   92   94 ar
@<TRIPOS>SUBSTRUCTURE
     1 RES1 1
     2 RES2 48

@<TRIPOS>CRYSIN
  11.1168   14.2464   11.8709  90.0000  92.1130  90.0000   4 1

