# MOL2 file generated by ConQuest
# Please check atom types

@<TRIPOS>MOLECULE
FOBZUS
    27    29     1
SMALL
NO_CHARGES
****
Generated from CSD

@<TRIPOS>ATOM
      1 O1         2.7711    7.2254    1.0419 O.2       1 RES1    0.0000
      2 O2         1.3751    8.8039    1.4557 O.2       1 RES1    0.0000
      3 N1         1.4659    9.2917    4.2378 N.pl3     1 RES1    0.0000
      4 H1         1.5753    8.4555    4.0678 H         1 RES1    0.0000
      5 N2         1.8032   11.4915    4.1894 N.2       1 RES1    0.0000
      6 N3         2.4964    8.3450    1.4472 N.pl3     1 RES1    0.0000
      7 C1         0.5054    9.8339    5.0525 C.ar      1 RES1    0.0000
      8 C2        -0.4933    9.2647    5.8174 C.ar      1 RES1    0.0000
      9 H2        -0.6354    8.3456    5.8262 H         1 RES1    0.0000
     10 C3        -1.2677   10.1188    6.5659 C.ar      1 RES1    0.0000
     11 H3        -1.9492    9.7703    7.0952 H         1 RES1    0.0000
     12 C4        -1.0546   11.4961    6.5495 C.ar      1 RES1    0.0000
     13 H4        -1.5901   12.0426    7.0776 H         1 RES1    0.0000
     14 C5        -0.0781   12.0648    5.7764 C.ar      1 RES1    0.0000
     15 H5         0.0468   12.9862    5.7588 H         1 RES1    0.0000
     16 C6         0.7221   11.2149    5.0147 C.ar      1 RES1    0.0000
     17 C7         2.2083   10.3101    3.7516 C.2       1 RES1    0.0000
     18 C8         3.4222   10.1299    2.9345 C.ar      1 RES1    0.0000
     19 C9         4.5275   10.9171    3.2419 C.ar      1 RES1    0.0000
     20 H6         4.4525   11.5604    3.9096 H         1 RES1    0.0000
     21 C10        5.7312   10.7703    2.5840 C.ar      1 RES1    0.0000
     22 H7         6.4485   11.3198    2.8017 H         1 RES1    0.0000
     23 C11        5.8717    9.8159    1.6066 C.ar      1 RES1    0.0000
     24 H8         6.6858    9.7109    1.1693 H         1 RES1    0.0000
     25 C12        4.8085    9.0188    1.2763 C.ar      1 RES1    0.0000
     26 H9         4.8983    8.3693    0.6154 H         1 RES1    0.0000
     27 C13        3.6032    9.1830    1.9269 C.ar      1 RES1    0.0000
@<TRIPOS>BOND
     1    1    6 2
     2    2    6 2
     3    3    4 1
     4    5   16 1
     5    6   27 1
     6    7    3 1
     7    8    7 ar
     8    9    8 1
     9   10    8 ar
    10   11   10 1
    11   12   10 ar
    12   13   12 1
    13   14   12 ar
    14   15   14 1
    15   16    7 ar
    16   17    3 1
    17   18   17 1
    18   19   18 ar
    19   20   19 1
    20   21   19 ar
    21   22   21 1
    22   23   21 ar
    23   24   23 1
    24   25   23 ar
    25   26   25 1
    26   27   18 ar
    27    5   17 2
    28   14   16 ar
    29   25   27 ar
@<TRIPOS>SUBSTRUCTURE
     1 RES1 1

@<TRIPOS>CRYSIN
   7.8060    9.9010   29.3070  90.0000  90.0000  90.0000  61 1

