# MOL2 file generated by ConQuest
# Please check atom types

@<TRIPOS>MOLECULE
FOCFIN
    24    25     1
SMALL
NO_CHARGES
****
Generated from CSD

@<TRIPOS>ATOM
      1 N1         3.3246    3.5222    5.6849 N.am      1 RES1    0.0000
      2 C1         2.1823    2.7387    5.4416 C.2       1 RES1    0.0000
      3 O1         1.0734    3.1873    5.2824 O.2       1 RES1    0.0000
      4 C2         2.6194    1.2999    5.3961 C.3       1 RES1    0.0000
      5 C3         3.3246    4.9536    5.6849 C.ar      1 RES1    0.0000
      6 C4         2.6202    5.6420    4.7033 C.ar      1 RES1    0.0000
      7 C5         2.6106    7.0247    4.7041 C.ar      1 RES1    0.0000
      8 C6         3.3246    7.6830    5.6849 C.ar      1 RES1    0.0000
      9 N2         3.3246    9.1515    5.6849 N.pl3     1 RES1    0.0000
     10 O2         3.0867    9.7361    4.6260 O.2       1 RES1    0.0000
     11 H1         2.6214    0.9631    4.4653 H         1 RES1    0.0000
     12 H2         2.0169    0.7325    5.9404 H         1 RES1    0.0000
     13 H3         2.1470    5.1633    4.0325 H         1 RES1    0.0000
     14 H4         2.1257    7.5092    4.0469 H         1 RES1    0.0000
     15 C1B        4.4668    2.7387    5.9282 C.2       1 RES1    0.0000
     16 O1B        5.5758    3.1873    6.0874 O.2       1 RES1    0.0000
     17 C2B        4.0298    1.2999    5.9737 C.3       1 RES1    0.0000
     18 C4B        4.0290    5.6420    6.6665 C.ar      1 RES1    0.0000
     19 C5B        4.0386    7.0247    6.6658 C.ar      1 RES1    0.0000
     20 O2B        3.5625    9.7361    6.7438 O.2       1 RES1    0.0000
     21 H1B        4.0278    0.9631    6.9045 H         1 RES1    0.0000
     22 H2B        4.6323    0.7325    5.4295 H         1 RES1    0.0000
     23 H3B        4.5022    5.1633    7.3373 H         1 RES1    0.0000
     24 H4B        4.5235    7.5092    7.3229 H         1 RES1    0.0000
@<TRIPOS>BOND
     1    1    2 1
     2    2    3 2
     3    4    2 1
     4    5    1 1
     5    6    5 ar
     6    7    6 ar
     7    8    7 ar
     8    9    8 1
     9   10    9 2
    10   11    4 1
    11   12    4 1
    12   13    6 1
    13   14    7 1
    14   15    1 1
    15   16   15 2
    16   17    4 1
    17   18    5 ar
    18   19    8 ar
    19   20    9 2
    20   21   17 1
    21   22   17 1
    22   23   18 1
    23   24   19 1
    24   15   17 1
    25   18   19 ar
@<TRIPOS>SUBSTRUCTURE
     1 RES1 1

@<TRIPOS>CRYSIN
  10.3731   11.5900    7.9761  90.0000 108.1350  90.0000  15 1

