# MOL2 file generated by ConQuest
# Please check atom types

@<TRIPOS>MOLECULE
FOCVOI
    14    14     1
SMALL
NO_CHARGES
****
Generated from CSD

@<TRIPOS>ATOM
      1 C1         2.0997    2.0997    9.0395 C.ar      1 RES1    0.0000
      2 C2         0.1628    0.1628    9.0395 C.ar      1 RES1    0.0000
      3 N1         3.0870    3.0870    9.0395 N.3       1 RES1    0.0000
      4 N2        -0.8734   -0.8726    9.0395 N.pl3     1 RES1    0.0000
      5 C3         0.9681    2.2465    9.8621 C.ar      1 RES1    0.0000
      6 C4        -0.0183    1.2585    9.8458 C.ar      1 RES1    0.0000
      7 C5         4.4341    2.7874    9.4192 C.3       1 RES1    0.0000
      8 C6         0.8046    3.3987   10.8076 C.3       1 RES1    0.0000
      9 O1        -1.8514   -0.7251    9.7554 O.2       1 RES1    0.0000
     10 C3D        2.2465    0.9681    8.2169 C.ar      1 RES1    0.0000
     11 C5D        2.7874    4.4341    8.6598 C.3       1 RES1    0.0000
     12 C4D        1.2585   -0.0183    8.2332 C.ar      1 RES1    0.0000
     13 O1D       -0.7251   -1.8514    8.3236 O.2       1 RES1    0.0000
     14 C6D        3.3987    0.8046    7.2714 C.3       1 RES1    0.0000
@<TRIPOS>BOND
     1    1    3 1
     2    2    4 1
     3    3    7 1
     4    4    9 2
     5    5    1 ar
     6    6    2 ar
     7    8    5 1
     8   10    1 ar
     9   11    3 1
    10   12    2 ar
    11   13    4 2
    12   14   10 1
    13    5    6 ar
    14   10   12 ar
@<TRIPOS>SUBSTRUCTURE
     1 RES1 1

@<TRIPOS>CRYSIN
   7.6410    7.6410   18.0790  90.0000  90.0000  90.0000  92 1

