# MOL2 file generated by ConQuest
# Please check atom types

@<TRIPOS>MOLECULE
FOCXUR
    32    34     1
SMALL
NO_CHARGES
****
Generated from CSD

@<TRIPOS>ATOM
      1 O1         1.8030    6.6229    1.3088 O.2       1 RES1    0.0000
      2 N1         3.5649    2.8667    0.2289 N.3       1 RES1    0.0000
      3 N2         1.6325    6.8186    0.1080 N.pl3     1 RES1    0.0000
      4 C1         1.2922    3.4318   -1.4246 C.ar      1 RES1    0.0000
      5 H1         1.6655    2.5597   -1.3751 H         1 RES1    0.0000
      6 O2         1.7513    7.9238   -0.4210 O.2       1 RES1    0.0000
      7 C2         4.8692    1.1477   -0.8823 C.ar      1 RES1    0.0000
      8 H2         4.5484    0.4970   -0.2697 H         1 RES1    0.0000
      9 N3         4.0399    5.1994   -0.1579 N.3       1 RES1    0.0000
     10 C3         4.4424    2.4804   -0.7762 C.ar      1 RES1    0.0000
     11 C4         0.2457    3.6744   -2.3081 C.ar      1 RES1    0.0000
     12 H3        -0.0946    2.9655   -2.8413 H         1 RES1    0.0000
     13 C5         1.2020    5.6983   -0.7374 C.ar      1 RES1    0.0000
     14 C6         1.8058    4.4388   -0.6114 C.ar      1 RES1    0.0000
     15 C7         6.2303    1.7130   -2.7932 C.ar      1 RES1    0.0000
     16 H4         6.8243    1.4520   -3.4870 H         1 RES1    0.0000
     17 C8         5.8202    3.0310   -2.6757 C.ar      1 RES1    0.0000
     18 H5         6.1408    3.6728   -3.2984 H         1 RES1    0.0000
     19 C9         4.5489    4.8820   -1.4989 C.3       1 RES1    0.0000
     20 H6         5.3330    5.4567   -1.6865 H         1 RES1    0.0000
     21 H7         3.8501    5.0999   -2.1652 H         1 RES1    0.0000
     22 C10        0.1853    5.9677   -1.6280 C.ar      1 RES1    0.0000
     23 H8        -0.1752    6.8433   -1.7005 H         1 RES1    0.0000
     24 C11        4.9514    3.4384   -1.6702 C.ar      1 RES1    0.0000
     25 C12        5.7575    0.7790   -1.8789 C.ar      1 RES1    0.0000
     26 H9         6.0471   -0.1239   -1.9385 H         1 RES1    0.0000
     27 C13       -0.3024    4.9363   -2.4178 C.ar      1 RES1    0.0000
     28 H10       -1.0093    5.0984   -3.0312 H         1 RES1    0.0000
     29 C14        3.0450    4.2265    0.2707 C.3       1 RES1    0.0000
     30 H11        2.7930    4.4347    1.2155 H         1 RES1    0.0000
     31 H12        3.0858    2.2434    0.6090 H         1 RES1    0.0000
     32 H13        4.7546    5.1802    0.4090 H         1 RES1    0.0000
@<TRIPOS>BOND
     1    1    3 2
     2    2   10 1
     3    3    6 2
     4    4    5 1
     5    7    8 1
     6    9   19 1
     7   10    7 ar
     8   11    4 ar
     9   12   11 1
    10   13    3 1
    11   14    4 ar
    12   15   16 1
    13   17   15 ar
    14   18   17 1
    15   19   20 1
    16   21   19 1
    17   22   13 ar
    18   23   22 1
    19   24   10 ar
    20   25    7 ar
    21   26   25 1
    22   27   11 ar
    23   28   27 1
    24   29    2 1
    25   30   29 1
    26   31    2 1
    27   32    9 1
    28    9   29 1
    29   13   14 ar
    30   14   29 1
    31   15   25 ar
    32   17   24 ar
    33   19   24 1
    34   22   27 ar
@<TRIPOS>SUBSTRUCTURE
     1 RES1 1

@<TRIPOS>CRYSIN
  12.1392    7.7897   13.5753  90.0000 111.1400  90.0000  14 1

