# MOL2 file generated by ConQuest
# Please check atom types

@<TRIPOS>MOLECULE
FOCXUR01
    32    34     1
SMALL
NO_CHARGES
****
Generated from CSD

@<TRIPOS>ATOM
      1 O1         4.3059    5.0993   -1.2728 O.2       1 RES1    0.0000
      2 O2         4.3949    3.8170    0.4458 O.2       1 RES1    0.0000
      3 N1         2.5458    8.8433   -0.1893 N.3       1 RES1    0.0000
      4 H1         2.9582    9.5993   -0.5081 H         1 RES1    0.0000
      5 N2         2.0676    6.5250    0.2261 N.3       1 RES1    0.0000
      6 H2         1.4865    6.5172   -0.3811 H         1 RES1    0.0000
      7 N3         4.4912    4.9110   -0.0813 N.pl3     1 RES1    0.0000
      8 C1         1.6526    9.2503    0.7964 C.ar      1 RES1    0.0000
      9 C2         1.2278   10.5648    0.8917 C.ar      1 RES1    0.0000
     10 H3         1.5559   11.1992    0.2947 H         1 RES1    0.0000
     11 C3         0.3214   10.9451    1.8672 C.ar      1 RES1    0.0000
     12 H4         0.0368   11.8290    1.9117 H         1 RES1    0.0000
     13 C4        -0.1631   10.0307    2.7704 C.ar      1 RES1    0.0000
     14 H5        -0.7577   10.2926    3.4347 H         1 RES1    0.0000
     15 C5         0.2453    8.7272    2.6726 C.ar      1 RES1    0.0000
     16 H6        -0.0833    8.1077    3.2835 H         1 RES1    0.0000
     17 C6         1.1347    8.2951    1.6932 C.ar      1 RES1    0.0000
     18 C7         1.5533    6.8654    1.5484 C.3       1 RES1    0.0000
     19 H7         2.2385    6.6741    2.2077 H         1 RES1    0.0000
     20 H8         0.7912    6.2968    1.7428 H         1 RES1    0.0000
     21 C8         3.0577    7.4967   -0.2274 C.3       1 RES1    0.0000
     22 H9         3.2917    7.2850   -1.1559 H         1 RES1    0.0000
     23 C9         4.3109    7.2850    0.6443 C.ar      1 RES1    0.0000
     24 C10        4.8237    8.2888    1.4354 C.ar      1 RES1    0.0000
     25 H10        4.4442    9.1366    1.3985 H         1 RES1    0.0000
     26 C11        5.8967    8.0598    2.2877 C.ar      1 RES1    0.0000
     27 H11        6.2378    8.7578    2.7996 H         1 RES1    0.0000
     28 C12        6.4552    6.8176    2.3779 C.ar      1 RES1    0.0000
     29 H12        7.1651    6.6701    2.9596 H         1 RES1    0.0000
     30 C13        5.9731    5.7831    1.6119 C.ar      1 RES1    0.0000
     31 H13        6.3418    4.9314    1.6729 H         1 RES1    0.0000
     32 C14        4.9225    6.0435    0.7469 C.ar      1 RES1    0.0000
@<TRIPOS>BOND
     1    1    7 2
     2    2    7 2
     3    3    4 1
     4    5    6 1
     5    7   32 1
     6    8    3 1
     7    9    8 ar
     8   10    9 1
     9   11    9 ar
    10   12   11 1
    11   13   11 ar
    12   14   13 1
    13   15   13 ar
    14   16   15 1
    15   17    8 ar
    16   18    5 1
    17   19   18 1
    18   20   18 1
    19   21    3 1
    20   22   21 1
    21   23   21 1
    22   24   23 ar
    23   25   24 1
    24   26   24 ar
    25   27   26 1
    26   28   26 ar
    27   29   28 1
    28   30   28 ar
    29   31   30 1
    30   32   23 ar
    31    5   21 1
    32   15   17 ar
    33   17   18 1
    34   30   32 ar
@<TRIPOS>SUBSTRUCTURE
     1 RES1 1

@<TRIPOS>CRYSIN
  12.3580    7.8426   13.6730  90.0000 111.7200  90.0000  14 1

