# MOL2 file generated by ConQuest
# Please check atom types

@<TRIPOS>MOLECULE
FOGKAO
    46    49     1
SMALL
NO_CHARGES
****
Generated from CSD

@<TRIPOS>ATOM
      1 O1         8.3467    3.4970    3.9988 O.2       1 RES1    0.0000
      2 O2         5.2345    0.0933    3.9400 O.2       1 RES1    0.0000
      3 N1         7.5205    2.5973    4.3792 N.3       1 RES1    0.0000
      4 N2         6.0721    0.9686    4.3594 N.pl3     1 RES1    0.0000
      5 C1         6.7990    1.7966    3.5820 C.2       1 RES1    0.0000
      6 C2         7.1041    2.4728    5.8219 C.3       1 RES1    0.0000
      7 C3         6.4985    1.0509    5.7984 C.3       1 RES1    0.0000
      8 C4         6.0794    3.5823    6.0514 C.3       1 RES1    0.0000
      9 H1         5.7777    3.5565    6.9625 H         1 RES1    0.0000
     10 H2         5.3310    3.4545    5.4619 H         1 RES1    0.0000
     11 H3         6.4847    4.4347    5.8731 H         1 RES1    0.0000
     12 C5         8.2970    2.6633    6.7433 C.3       1 RES1    0.0000
     13 H4         8.0241    2.5219    7.6536 H         1 RES1    0.0000
     14 H5         8.6367    3.5551    6.6460 H         1 RES1    0.0000
     15 H6         8.9832    2.0325    6.5125 H         1 RES1    0.0000
     16 C6         5.2930    0.8334    6.7043 C.3       1 RES1    0.0000
     17 H7         5.5693    0.8864    7.6213 H         1 RES1    0.0000
     18 H8         4.9176   -0.0340    6.5341 H         1 RES1    0.0000
     19 H9         4.6344    1.5077    6.5276 H         1 RES1    0.0000
     20 C7         7.5186   -0.0614    5.9971 C.3       1 RES1    0.0000
     21 H10        7.8030   -0.0748    6.9130 H         1 RES1    0.0000
     22 H11        8.2763    0.0938    5.4296 H         1 RES1    0.0000
     23 H12        7.1191   -0.9054    5.7741 H         1 RES1    0.0000
     24 C8         6.7829    1.8149    2.1070 C.ar      1 RES1    0.0000
     25 C9         6.1819    2.8926    1.4312 C.ar      1 RES1    0.0000
     26 C10        5.5762    3.9897    2.0903 C.ar      1 RES1    0.0000
     27 H13        5.5912    4.0255    3.0184 H         1 RES1    0.0000
     28 C11        4.9752    4.9853    1.4015 C.ar      1 RES1    0.0000
     29 H14        4.5872    5.6936    1.8623 H         1 RES1    0.0000
     30 C12        4.9303    4.9635   -0.0097 C.ar      1 RES1    0.0000
     31 H15        4.5169    5.6555   -0.4736 H         1 RES1    0.0000
     32 C13        5.4853    3.9436   -0.6790 C.ar      1 RES1    0.0000
     33 H16        5.4450    3.9358   -1.6082 H         1 RES1    0.0000
     34 C14        6.1347    2.8710   -0.0009 C.ar      1 RES1    0.0000
     35 C15        6.6850    1.7940   -0.6823 C.ar      1 RES1    0.0000
     36 H17        6.6505    1.7877   -1.6125 H         1 RES1    0.0000
     37 C16        7.2838    0.7275   -0.0310 C.ar      1 RES1    0.0000
     38 C17        7.8249   -0.3797   -0.7348 C.ar      1 RES1    0.0000
     39 H18        7.7915   -0.3888   -1.6642 H         1 RES1    0.0000
     40 C18        8.3833   -1.4125   -0.0909 C.ar      1 RES1    0.0000
     41 H19        8.7299   -2.1276   -0.5727 H         1 RES1    0.0000
     42 C19        8.4444   -1.4139    1.3281 C.ar      1 RES1    0.0000
     43 H20        8.8404   -2.1303    1.7697 H         1 RES1    0.0000
     44 C20        7.9354   -0.3902    2.0399 C.ar      1 RES1    0.0000
     45 H21        7.9804   -0.4174    2.9688 H         1 RES1    0.0000
     46 C21        7.3310    0.7347    1.4076 C.ar      1 RES1    0.0000
@<TRIPOS>BOND
     1    1    3 1
     2    2    4 1
     3    3    5 1
     4    4    5 2
     5    5   24 1
     6    6    3 1
     7    7    4 1
     8    8    6 1
     9    9    8 1
    10   10    8 1
    11   11    8 1
    12   12    6 1
    13   13   12 1
    14   14   12 1
    15   15   12 1
    16   16    7 1
    17   17   16 1
    18   18   16 1
    19   19   16 1
    20   20    7 1
    21   21   20 1
    22   22   20 1
    23   23   20 1
    24   24   25 ar
    25   25   26 ar
    26   26   27 1
    27   28   26 ar
    28   29   28 1
    29   30   28 ar
    30   31   30 1
    31   32   30 ar
    32   33   32 1
    33   34   25 ar
    34   35   34 ar
    35   36   35 1
    36   37   35 ar
    37   38   37 ar
    38   39   38 1
    39   40   38 ar
    40   41   40 1
    41   42   40 ar
    42   43   42 1
    43   44   42 ar
    44   45   44 1
    45   46   24 ar
    46    6    7 1
    47   32   34 ar
    48   37   46 ar
    49   44   46 ar
@<TRIPOS>SUBSTRUCTURE
     1 RES1 1

@<TRIPOS>CRYSIN
  11.5140   13.5950   21.5290  90.0000  90.0000  90.0000  61 1

