# MOL2 file generated by ConQuest
# Please check atom types

@<TRIPOS>MOLECULE
FOGMEU
    96   104     2
SMALL
NO_CHARGES
****
Generated from CSD

@<TRIPOS>ATOM
      1 O1         3.9613    3.0968    6.9076 O.2       1 RES1    0.0000
      2 N1         3.6490    4.3225    7.1263 N.pl3     1 RES1    0.0000
      3 N2         3.9625    7.0411    4.0679 N.ar      1 RES1    0.0000
      4 N3         3.4847    8.8122    5.5600 N.ar      1 RES1    0.0000
      5 N4         2.0119    7.5942   10.1957 N.ar      1 RES1    0.0000
      6 N5         1.9365    5.2835   10.7248 N.ar      1 RES1    0.0000
      7 C1         3.8478    5.2512    6.1662 C.ar      1 RES1    0.0000
      8 H1         4.2237    4.9991    5.3544 H         1 RES1    0.0000
      9 C2         3.5023    6.5577    6.3733 C.ar      1 RES1    0.0000
     10 C3         2.9609    6.9276    7.6009 C.ar      1 RES1    0.0000
     11 H2         2.7327    7.8151    7.7620 H         1 RES1    0.0000
     12 C4         2.7648    5.9718    8.5775 C.ar      1 RES1    0.0000
     13 C5         3.1103    4.6775    8.3165 C.ar      1 RES1    0.0000
     14 H3         2.9729    4.0281    8.9669 H         1 RES1    0.0000
     15 C6         3.6665    7.5321    5.2711 C.ar      1 RES1    0.0000
     16 C7         3.9929    7.9222    3.0735 C.ar      1 RES1    0.0000
     17 H4         4.1964    7.6111    2.2214 H         1 RES1    0.0000
     18 C8         3.7434    9.2649    3.2277 C.ar      1 RES1    0.0000
     19 C9         3.5256    9.6579    4.5310 C.ar      1 RES1    0.0000
     20 H5         3.3991   10.5626    4.7024 H         1 RES1    0.0000
     21 C10        3.6574   10.2013    2.0882 C.ar      1 RES1    0.0000
     22 C11        2.9877    9.8324    0.9331 C.ar      1 RES1    0.0000
     23 H6         2.6441    8.9712    0.8620 H         1 RES1    0.0000
     24 C12        2.8190   10.7101   -0.1116 C.ar      1 RES1    0.0000
     25 H7         2.3680   10.4439   -0.8798 H         1 RES1    0.0000
     26 C13        3.3202   11.9752   -0.0113 C.ar      1 RES1    0.0000
     27 H8         3.1918   12.5816   -0.7035 H         1 RES1    0.0000
     28 C14        4.0115   12.3509    1.1063 C.ar      1 RES1    0.0000
     29 H9         4.3699   13.2078    1.1593 H         1 RES1    0.0000
     30 C15        4.1828   11.4740    2.1528 C.ar      1 RES1    0.0000
     31 H10        4.6565   11.7408    2.9070 H         1 RES1    0.0000
     32 C16        2.2023    6.3136    9.9121 C.ar      1 RES1    0.0000
     33 C17        1.5340    5.6053   11.9581 C.ar      1 RES1    0.0000
     34 H11        1.3487    4.9158   12.5536 H         1 RES1    0.0000
     35 C18        1.3774    6.8985   12.3939 C.ar      1 RES1    0.0000
     36 C19        1.5964    7.8535   11.4399 C.ar      1 RES1    0.0000
     37 H12        1.4462    8.7413   11.6718 H         1 RES1    0.0000
     38 C20        1.0440    7.2298   13.8054 C.ar      1 RES1    0.0000
     39 C21        0.2066    6.4119   14.5406 C.ar      1 RES1    0.0000
     40 H13       -0.1667    5.6583   14.1429 H         1 RES1    0.0000
     41 C22       -0.0784    6.7022   15.8562 C.ar      1 RES1    0.0000
     42 H14       -0.6447    6.1472   16.3405 H         1 RES1    0.0000
     43 C23        0.4673    7.8065   16.4523 C.ar      1 RES1    0.0000
     44 H15        0.2685    8.0062   17.3392 H         1 RES1    0.0000
     45 C24        1.3101    8.6181   15.7325 C.ar      1 RES1    0.0000
     46 H16        1.6985    9.3595   16.1364 H         1 RES1    0.0000
     47 C25        1.5800    8.3343   14.4209 C.ar      1 RES1    0.0000
     48 H17        2.1362    8.9019   13.9368 H         1 RES1    0.0000
     49 O2         2.8017    3.9186    2.8898 O.2       2 RES2    0.0000
     50 N6         1.8868    4.8148    3.0422 N.pl3     2 RES2    0.0000
     51 N7        -0.6518    8.4210    1.2338 N.ar      2 RES2    0.0000
     52 N8         0.6773    7.0653   -0.1863 N.ar      2 RES2    0.0000
     53 N9        -0.8756    7.2242    6.0767 N.ar      2 RES2    0.0000
     54 N10       -0.0036    5.0997    6.7050 N.ar      2 RES2    0.0000
     55 C26        1.5250    5.6045    2.0127 C.ar      2 RES2    0.0000
     56 H18        1.9278    5.4903    1.1830 H         2 RES2    0.0000
     57 C27        0.5652    6.5808    2.1731 C.ar      2 RES2    0.0000
     58 C28       -0.0242    6.7504    3.4171 C.ar      2 RES2    0.0000
     59 H19       -0.6622    7.4150    3.5451 H         2 RES2    0.0000
     60 C29        0.3446    5.9237    4.4670 C.ar      2 RES2    0.0000
     61 C30        1.2840    4.9472    4.2514 C.ar      2 RES2    0.0000
     62 H20        1.5104    4.3682    4.9422 H         2 RES2    0.0000
     63 C31        0.1707    7.4041    1.0063 C.ar      2 RES2    0.0000
     64 C32       -0.9959    9.1551    0.1706 C.ar      2 RES2    0.0000
     65 H21       -1.5608    9.8811    0.3032 H         2 RES2    0.0000
     66 C33       -0.5590    8.8936   -1.1147 C.ar      2 RES2    0.0000
     67 C34        0.2958    7.8185   -1.2151 C.ar      2 RES2    0.0000
     68 H22        0.6272    7.6042   -2.0569 H         2 RES2    0.0000
     69 C35       -0.9845    9.6852   -2.2828 C.ar      2 RES2    0.0000
     70 C36       -2.2043   10.3281   -2.3027 C.ar      2 RES2    0.0000
     71 H23       -2.7592   10.2712   -1.5595 H         2 RES2    0.0000
     72 C37       -2.6171   11.0491   -3.3951 C.ar      2 RES2    0.0000
     73 H24       -3.4427   11.4776   -3.3826 H         2 RES2    0.0000
     74 C38       -1.8198   11.1398   -4.5027 C.ar      2 RES2    0.0000
     75 H25       -2.0998   11.6258   -5.2434 H         2 RES2    0.0000
     76 C39       -0.5976   10.5040   -4.5088 C.ar      2 RES2    0.0000
     77 H26       -0.0551   10.5529   -5.2632 H         2 RES2    0.0000
     78 C40       -0.1797    9.8035   -3.4163 C.ar      2 RES2    0.0000
     79 H27        0.6572    9.3973   -3.4262 H         2 RES2    0.0000
     80 C41       -0.2231    6.0857    5.8260 C.ar      2 RES2    0.0000
     81 C42       -1.3278    7.3707    7.3203 C.ar      2 RES2    0.0000
     82 H28       -1.7926    8.1514    7.5223 H         2 RES2    0.0000
     83 C43       -1.1564    6.4518    8.3260 C.ar      2 RES2    0.0000
     84 C44       -0.4765    5.3200    7.9309 C.ar      2 RES2    0.0000
     85 H29       -0.3373    4.6593    8.5686 H         2 RES2    0.0000
     86 C45       -1.6679    6.6550    9.7046 C.ar      2 RES2    0.0000
     87 C46       -1.8055    7.9091   10.2341 C.ar      2 RES2    0.0000
     88 H30       -1.5565    8.6494    9.7278 H         2 RES2    0.0000
     89 C47       -2.3092    8.0986   11.5117 C.ar      2 RES2    0.0000
     90 H31       -2.3962    8.9579   11.8561 H         2 RES2    0.0000
     91 C48       -2.6759    7.0239   12.2635 C.ar      2 RES2    0.0000
     92 H32       -3.0296    7.1505   13.1144 H         2 RES2    0.0000
     93 C49       -2.5259    5.7746   11.7711 C.ar      2 RES2    0.0000
     94 H33       -2.7553    5.0404   12.2940 H         2 RES2    0.0000
     95 C50       -2.0295    5.5828   10.4884 C.ar      2 RES2    0.0000
     96 H34       -1.9413    4.7203   10.1539 H         2 RES2    0.0000
@<TRIPOS>BOND
     1    1    2 1
     2    2    7 ar
     3    3   15 ar
     4    4   15 ar
     5    5   32 ar
     6    6   32 ar
     7    7    8 1
     8    9    7 ar
     9   10    9 ar
    10   11   10 1
    11   12   10 ar
    12   13    2 ar
    13   14   13 1
    14   15    9 1
    15   16    3 ar
    16   17   16 1
    17   18   16 ar
    18   19    4 ar
    19   20   19 1
    20   21   18 1
    21   22   21 ar
    22   23   22 1
    23   24   22 ar
    24   25   24 1
    25   26   24 ar
    26   27   26 1
    27   28   26 ar
    28   29   28 1
    29   30   21 ar
    30   31   30 1
    31   32   12 1
    32   33    6 ar
    33   34   33 1
    34   35   33 ar
    35   36    5 ar
    36   37   36 1
    37   38   35 1
    38   39   38 ar
    39   40   39 1
    40   41   39 ar
    41   42   41 1
    42   43   41 ar
    43   44   43 1
    44   45   43 ar
    45   46   45 1
    46   47   38 ar
    47   48   47 1
    48   49   50 1
    49   50   55 ar
    50   51   63 ar
    51   52   63 ar
    52   53   80 ar
    53   54   80 ar
    54   55   56 1
    55   57   55 ar
    56   58   57 ar
    57   59   58 1
    58   60   58 ar
    59   61   50 ar
    60   62   61 1
    61   63   57 1
    62   64   51 ar
    63   65   64 1
    64   66   64 ar
    65   67   52 ar
    66   68   67 1
    67   69   66 1
    68   70   69 ar
    69   71   70 1
    70   72   70 ar
    71   73   72 1
    72   74   72 ar
    73   75   74 1
    74   76   74 ar
    75   77   76 1
    76   78   69 ar
    77   79   78 1
    78   80   60 1
    79   81   53 ar
    80   82   81 1
    81   83   81 ar
    82   84   54 ar
    83   85   84 1
    84   86   83 1
    85   87   86 ar
    86   88   87 1
    87   89   87 ar
    88   90   89 1
    89   91   89 ar
    90   92   91 1
    91   93   91 ar
    92   94   93 1
    93   95   86 ar
    94   96   95 1
    95   12   13 ar
    96   18   19 ar
    97   28   30 ar
    98   35   36 ar
    99   45   47 ar
   100   60   61 ar
   101   66   67 ar
   102   76   78 ar
   103   83   84 ar
   104   93   95 ar
@<TRIPOS>SUBSTRUCTURE
     1 RES1 1
     2 RES2 49

@<TRIPOS>CRYSIN
   7.8288   13.0240   20.9394 106.3510  96.2090  99.8340   2 1

