# MOL2 file generated by ConQuest
# Please check atom types

@<TRIPOS>MOLECULE
FOGVED
    38    39     1
SMALL
NO_CHARGES
****
Generated from CSD

@<TRIPOS>ATOM
      1 O1         3.0948    2.8924    0.5331 O.3       1 RES1    0.0000
      2 N1         3.7137    2.6070    1.7649 N.2       1 RES1    0.0000
      3 C1         3.6541    3.6249    2.5451 C.2       1 RES1    0.0000
      4 H1         3.2408    4.4213    2.2326 H         1 RES1    0.0000
      5 O2         5.7080    3.7294    7.8122 O.3       1 RES1    0.0000
      6 C2         6.8349    2.9095    8.1664 C.3       1 RES1    0.0000
      7 H2         7.5562    3.0066    7.4937 H         1 RES1    0.0000
      8 H3         6.5677    1.9573    8.2080 H         1 RES1    0.0000
      9 C3         7.3193    3.3843    9.5344 C.3       1 RES1    0.0000
     10 H4         7.4105    4.3701    9.5339 H         1 RES1    0.0000
     11 H5         6.6597    3.1341   10.2286 H         1 RES1    0.0000
     12 C4        12.5116    0.8850   10.2395 C.3       1 RES1    0.0000
     13 H6        12.4228   -0.0069   10.6591 H         1 RES1    0.0000
     14 H7        12.8588    0.7532    9.3219 H         1 RES1    0.0000
     15 C5        13.5079    1.7007   11.0276 C.3       1 RES1    0.0000
     16 H8        14.3706    1.2371   11.0424 H         1 RES1    0.0000
     17 H9        13.1832    1.8154   11.9459 H         1 RES1    0.0000
     18 H10       13.6167    2.5793   10.6070 H         1 RES1    0.0000
     19 C6         4.2071    3.5934    3.9080 C.ar      1 RES1    0.0000
     20 C7         5.0633    2.5761    4.3532 C.ar      1 RES1    0.0000
     21 H11        5.2946    1.8692    3.7623 H         1 RES1    0.0000
     22 C8         5.5793    2.5841    5.6448 C.ar      1 RES1    0.0000
     23 H12        6.1615    1.8900    5.9297 H         1 RES1    0.0000
     24 C9         5.2370    3.6201    6.5238 C.ar      1 RES1    0.0000
     25 C10        4.3761    4.6368    6.1057 C.ar      1 RES1    0.0000
     26 H13        4.1341    5.3341    6.7027 H         1 RES1    0.0000
     27 C11        3.8769    4.6214    4.8115 C.ar      1 RES1    0.0000
     28 H14        3.2998    5.3202    4.5288 H         1 RES1    0.0000
     29 C12        8.6552    2.7463    9.8442 C.ar      1 RES1    0.0000
     30 N2         9.7171    3.2338    9.1668 N.ar      1 RES1    0.0000
     31 C13       10.9086    2.6380    9.3307 C.ar      1 RES1    0.0000
     32 H15       11.6484    2.9927    8.8522 H         1 RES1    0.0000
     33 C14       11.1388    1.5289   10.1577 C.ar      1 RES1    0.0000
     34 C15       10.0461    1.0680   10.8829 C.ar      1 RES1    0.0000
     35 H16       10.1493    0.3403   11.4843 H         1 RES1    0.0000
     36 C16        8.7938    1.6751   10.7281 C.ar      1 RES1    0.0000
     37 H17        8.0446    1.3603   11.2202 H         1 RES1    0.0000
     38 H18        3.0688    2.0378    0.1142 H         1 RES1    0.0000
@<TRIPOS>BOND
     1    1    2 1
     2    2    3 2
     3    3    4 1
     4    5    6 1
     5    6    7 1
     6    8    6 1
     7    9    6 1
     8   10    9 1
     9   11    9 1
    10   12   13 1
    11   14   12 1
    12   15   12 1
    13   16   15 1
    14   17   15 1
    15   18   15 1
    16   19    3 1
    17   20   19 ar
    18   21   20 1
    19   22   20 ar
    20   23   22 1
    21   24    5 1
    22   25   24 ar
    23   26   25 1
    24   27   19 ar
    25   28   27 1
    26   29    9 1
    27   30   29 ar
    28   31   30 ar
    29   32   31 1
    30   33   12 1
    31   34   33 ar
    32   35   34 1
    33   36   29 ar
    34   37   36 1
    35   38    1 1
    36   22   24 ar
    37   25   27 ar
    38   31   33 ar
    39   34   36 ar
@<TRIPOS>SUBSTRUCTURE
     1 RES1 1

@<TRIPOS>CRYSIN
  16.4538    5.3346   17.9520  90.0000 114.7090  90.0000  14 1

