# MOL2 file generated by ConQuest
# Please check atom types

@<TRIPOS>MOLECULE
FOGYIK
    44    46     1
SMALL
NO_CHARGES
****
Generated from CSD

@<TRIPOS>ATOM
      1 N1         4.3273   10.1238   16.7446 N.pl3     1 RES1    0.0000
      2 O1         3.9505   11.3031    8.5036 O.2       1 RES1    0.0000
      3 O2         5.1808   10.8396   17.2735 O.2       1 RES1    0.0000
      4 O3         3.7048    9.2655   17.3491 O.2       1 RES1    0.0000
      5 C1         3.3412   10.2635    8.7436 C.2       1 RES1    0.0000
      6 C2         2.7536    9.4544    7.6322 C.2       1 RES1    0.0000
      7 C3         2.0639    8.1595    7.9659 C.3       1 RES1    0.0000
      8 H1         2.1858    7.5232    7.2174 H         1 RES1    0.0000
      9 H2         1.0932    8.3249    8.0697 H         1 RES1    0.0000
     10 C4         2.6079    7.5398    9.2457 C.3       1 RES1    0.0000
     11 H3         2.1058    6.7105    9.4465 H         1 RES1    0.0000
     12 H4         3.5580    7.2966    9.1126 H         1 RES1    0.0000
     13 C5         2.4943    8.4893   10.4239 C.3       1 RES1    0.0000
     14 H5         1.5368    8.6438   10.6228 H         1 RES1    0.0000
     15 H6         2.9055    8.0675   11.2199 H         1 RES1    0.0000
     16 C6         3.1618    9.8140   10.1698 C.2       1 RES1    0.0000
     17 C7         3.6375   10.6447   11.1095 C.2       1 RES1    0.0000
     18 H7         3.9991   11.4569   10.7741 H         1 RES1    0.0000
     19 C8         3.6898   10.5063   12.5689 C.ar      1 RES1    0.0000
     20 C9         4.5888   11.3466   13.2459 C.ar      1 RES1    0.0000
     21 H8         5.0740   11.9979   12.7537 H         1 RES1    0.0000
     22 C10        4.7844   11.2500   14.6076 C.ar      1 RES1    0.0000
     23 H9         5.3944   11.8264   15.0534 H         1 RES1    0.0000
     24 C11        4.0729   10.2963   15.3109 C.ar      1 RES1    0.0000
     25 C12        3.1275    9.4889   14.7019 C.ar      1 RES1    0.0000
     26 H10        2.6253    8.8626   15.2106 H         1 RES1    0.0000
     27 C13        2.9282    9.6116   13.3356 C.ar      1 RES1    0.0000
     28 H11        2.2639    9.0815   12.9108 H         1 RES1    0.0000
     29 C14        2.8803    9.9859    6.3977 C.2       1 RES1    0.0000
     30 H12        3.4016   10.7795    6.3768 H         1 RES1    0.0000
     31 C15        2.3735    9.5839    5.0838 C.ar      1 RES1    0.0000
     32 C16        2.8467   10.3015    3.9758 C.ar      1 RES1    0.0000
     33 H13        3.5158   10.9631    4.1066 H         1 RES1    0.0000
     34 C17        2.3697   10.0749    2.6976 C.ar      1 RES1    0.0000
     35 H14        2.7236   10.5760    1.9737 H         1 RES1    0.0000
     36 C18        1.3848    9.1310    2.4523 C.ar      1 RES1    0.0000
     37 C19        0.9371    8.3878    3.5431 C.ar      1 RES1    0.0000
     38 H15        0.2876    7.7090    3.4015 H         1 RES1    0.0000
     39 C20        1.4064    8.6046    4.8255 C.ar      1 RES1    0.0000
     40 H16        1.0676    8.0807    5.5422 H         1 RES1    0.0000
     41 C21        0.7920    8.9550    1.0815 C.3       1 RES1    0.0000
     42 H17        0.6181    8.0049    0.9211 H         1 RES1    0.0000
     43 H18        1.4202    9.2915    0.4085 H         1 RES1    0.0000
     44 H19       -0.0486    9.4565    1.0232 H         1 RES1    0.0000
@<TRIPOS>BOND
     1    1    3 2
     2    2    5 2
     3    4    1 2
     4    5    6 1
     5    6    7 1
     6    7    8 1
     7    9    7 1
     8   10    7 1
     9   11   10 1
    10   12   10 1
    11   13   10 1
    12   14   13 1
    13   15   13 1
    14   16    5 1
    15   17   16 2
    16   18   17 1
    17   19   17 1
    18   20   19 ar
    19   21   20 1
    20   22   20 ar
    21   23   22 1
    22   24    1 1
    23   25   24 ar
    24   26   25 1
    25   27   19 ar
    26   28   27 1
    27   29    6 2
    28   30   29 1
    29   31   29 1
    30   32   31 ar
    31   33   32 1
    32   34   32 ar
    33   35   34 1
    34   36   34 ar
    35   37   36 ar
    36   38   37 1
    37   39   31 ar
    38   40   39 1
    39   41   36 1
    40   42   41 1
    41   43   41 1
    42   44   41 1
    43   13   16 1
    44   22   24 ar
    45   25   27 ar
    46   37   39 ar
@<TRIPOS>SUBSTRUCTURE
     1 RES1 1

@<TRIPOS>CRYSIN
   7.5713   10.9972   20.0451  90.0000 101.5500  90.0000  14 1

