# MOL2 file generated by ConQuest
# Please check atom types

@<TRIPOS>MOLECULE
FOHDEM
    60    56     3
SMALL
NO_CHARGES
****
Generated from CSD

@<TRIPOS>ATOM
      1 C1         0.2852    0.3177    2.2149 C.ar      1 RES1    0.0000
      2 C2        -0.7127   -0.3902    1.5611 C.ar      1 RES1    0.0000
      3 H1        -0.5156   -1.1866    1.1222 H         1 RES1    0.0000
      4 C3        -1.9968    0.1020    1.5706 C.ar      1 RES1    0.0000
      5 C4        -2.3343    1.2784    2.1902 C.ar      1 RES1    0.0000
      6 H2        -3.2063    1.6005    2.1798 H         1 RES1    0.0000
      7 C5        -1.3261    1.9576    2.8254 C.ar      1 RES1    0.0000
      8 C6        -0.0281    1.5039    2.8537 C.ar      1 RES1    0.0000
      9 H3         0.6304    1.9891    3.2962 H         1 RES1    0.0000
     10 C7         1.6699   -0.2306    2.1601 C.2       1 RES1    0.0000
     11 C8         3.9097    0.0737    2.8674 C.3       1 RES1    0.0000
     12 H4         4.2375   -0.0505    1.9634 H         1 RES1    0.0000
     13 H5         3.9787   -0.7716    3.3387 H         1 RES1    0.0000
     14 C9         4.7065    1.1134    3.5618 C.3       1 RES1    0.0000
     15 H6         4.3499    1.2291    4.4561 H         1 RES1    0.0000
     16 H7         5.6185    0.7938    3.6516 H         1 RES1    0.0000
     17 C10        4.7338    2.4117    2.9002 C.3       1 RES1    0.0000
     18 H8         5.0816    2.3113    2.0117 H         1 RES1    0.0000
     19 H9         5.2936    3.0125    3.3976 H         1 RES1    0.0000
     20 H10        3.8430    2.7672    2.8568 H         1 RES1    0.0000
     21 C11        7.1175    6.6783    3.1014 C.ar      2 RES2    0.0000
     22 C12        8.1045    6.6885    4.0713 C.ar      2 RES2    0.0000
     23 H11        7.8825    6.5899    4.9689 H         2 RES2    0.0000
     24 C13        9.4114    6.8454    3.6954 C.ar      2 RES2    0.0000
     25 C14        9.7980    6.9883    2.3832 C.ar      2 RES2    0.0000
     26 H12       10.6912    7.0933    2.1450 H         2 RES2    0.0000
     27 C15        8.7943    6.9686    1.4405 C.ar      2 RES2    0.0000
     28 C16        7.4676    6.8233    1.7643 C.ar      2 RES2    0.0000
     29 H13        6.8160    6.8221    1.1010 H         2 RES2    0.0000
     30 C17        5.7055    6.4953    3.5454 C.2       2 RES2    0.0000
     31 C18        3.4639    6.2332    2.8471 C.3       2 RES2    0.0000
     32 H14        3.1407    7.0043    3.3396 H         2 RES2    0.0000
     33 H15        3.3342    5.4416    3.3937 H         2 RES2    0.0000
     34 C19        2.7265    6.0971    1.5568 C.3       2 RES2    0.0000
     35 H16        3.1071    5.3473    1.0730 H         2 RES2    0.0000
     36 H17        1.8057    5.8706    1.7606 H         2 RES2    0.0000
     37 C20        2.7199    7.2546    0.6635 C.3       2 RES2    0.0000
     38 H18        2.3709    8.0166    1.1309 H         2 RES2    0.0000
     39 H19        2.1674    7.0658   -0.0985 H         2 RES2    0.0000
     40 H20        3.6150    7.4389    0.3728 H         2 RES2    0.0000
     41 C21        2.6257    7.6304    1.4873 Du        3 SUP3    0.0000
     42 H21        2.2119    7.8830    0.6538 Du        3 SUP3    0.0000
     43 H22        3.4998    8.0129    1.5375 Du        3 SUP3    0.0000
     44 H23        2.0890    7.9484    2.2155 Du        3 SUP3    0.0000
     45 N1        -3.0504   -0.6558    0.8662 N.pl3     1 RES1    0.0000
     46 N2        -1.6498    3.2329    3.4858 N.pl3     1 RES1    0.0000
     47 N3        10.4568    6.8549    4.7314 N.pl3     2 RES2    0.0000
     48 N4         9.1671    7.1069    0.0258 N.pl3     2 RES2    0.0000
     49 O1         2.5224    0.5228    2.8430 O.3       1 RES1    0.0000
     50 O2         1.9616   -1.2188    1.5510 O.2       1 RES1    0.0000
     51 O3        -2.7220   -1.6840    0.3076 O.2       1 RES1    0.0000
     52 O4        -4.1721   -0.2083    0.8735 O.2       1 RES1    0.0000
     53 O5        -2.8120    3.5758    3.5128 O.2       1 RES1    0.0000
     54 O6        -0.7384    3.8645    3.9769 O.2       1 RES1    0.0000
     55 O7         4.8819    6.3981    2.5184 O.3       2 RES2    0.0000
     56 O8         5.3786    6.4508    4.6981 O.2       2 RES2    0.0000
     57 O9        10.1066    6.7429    5.8956 O.2       2 RES2    0.0000
     58 O10       11.6103    6.9692    4.3803 O.2       2 RES2    0.0000
     59 O11       10.3443    7.0298   -0.2747 O.2       2 RES2    0.0000
     60 O12        8.2768    7.2678   -0.7842 O.2       2 RES2    0.0000
@<TRIPOS>BOND
     1    1    2 ar
     2    2    3 1
     3    4    2 ar
     4    5    4 ar
     5    6    5 1
     6    7    5 ar
     7    8    1 ar
     8    9    8 1
     9   10    1 1
    10   11   12 1
    11   13   11 1
    12   14   11 1
    13   15   14 1
    14   16   14 1
    15   17   14 1
    16   18   17 1
    17   19   17 1
    18   20   17 1
    19   21   22 ar
    20   22   23 1
    21   24   22 ar
    22   25   24 ar
    23   26   25 1
    24   27   25 ar
    25   28   21 ar
    26   29   28 1
    27   30   21 1
    28   31   32 1
    29   33   31 1
    30   34   31 1
    31   35   34 1
    32   36   34 1
    33   37   34 1
    34   38   37 1
    35   39   37 1
    36   40   37 1
    37   45    4 1
    38   46    7 1
    39   47   24 1
    40   48   27 1
    41   49   10 1
    42   50   10 2
    43   51   45 2
    44   52   45 2
    45   53   46 2
    46   54   46 2
    47   55   30 1
    48   56   30 2
    49   57   47 2
    50   58   47 2
    51   59   48 2
    52   60   48 2
    53    7    8 ar
    54   11   49 1
    55   27   28 ar
    56   31   55 1
@<TRIPOS>SUBSTRUCTURE
     1 RES1 1
     2 RES2 21
     3 SUP3 41

@<TRIPOS>CRYSIN
  11.0566   11.3596   11.4916 117.5540  99.9370 102.8300   2 1

