# MOL2 file generated by ConQuest
# Please check atom types

@<TRIPOS>MOLECULE
FOHGUG
    39    42     1
SMALL
NO_CHARGES
****
Generated from CSD

@<TRIPOS>ATOM
      1 O1        -1.6120    1.4017    0.3039 O.2       1 RES1    0.0000
      2 O2        -1.6972   -1.4361    2.6616 O.2       1 RES1    0.0000
      3 N1        -2.3579   -0.4390    2.4714 N.pl3     1 RES1    0.0000
      4 C1         0.2595    1.3934    4.2004 C.ar      1 RES1    0.0000
      5 H1        -0.3070    1.8064    4.8125 H         1 RES1    0.0000
      6 N2        -2.7893    2.8142    1.6975 N.am      1 RES1    0.0000
      7 C2        -3.1705    2.7978    3.0613 C.ar      1 RES1    0.0000
      8 O3        -3.5194   -0.4369    2.0914 O.2       1 RES1    0.0000
      9 C3        -0.2596    0.8604    3.0254 C.ar      1 RES1    0.0000
     10 C4        -2.0154    1.7256    1.3937 C.2       1 RES1    0.0000
     11 C5        -2.6023    1.7012    3.7065 C.ar      1 RES1    0.0000
     12 C6        -1.7375    0.9602    2.7230 C.3       1 RES1    0.0000
     13 C7        -2.8829    1.4378    5.0356 C.ar      1 RES1    0.0000
     14 H2        -2.5123    0.7000    5.4643 H         1 RES1    0.0000
     15 C8        -4.0413    3.1406   -0.3573 C.ar      1 RES1    0.0000
     16 H3        -4.1808    2.2218   -0.4023 H         1 RES1    0.0000
     17 C9        -3.3210    3.6879    0.6923 C.ar      1 RES1    0.0000
     18 C10        1.9654    0.1925    2.3733 C.ar      1 RES1    0.0000
     19 H4         2.5359   -0.2121    1.7604 H         1 RES1    0.0000
     20 C11        1.6237    1.3145    4.4634 C.ar      1 RES1    0.0000
     21 H5         1.9628    1.6622    5.2568 H         1 RES1    0.0000
     22 C12        2.4776    0.7171    3.5519 C.ar      1 RES1    0.0000
     23 H6         3.3901    0.6713    3.7263 H         1 RES1    0.0000
     24 C13       -4.0035    3.6801    3.7283 C.ar      1 RES1    0.0000
     25 H7        -4.3667    4.4215    3.2986 H         1 RES1    0.0000
     26 C14       -3.7361    2.3075    5.7173 C.ar      1 RES1    0.0000
     27 H8        -3.9435    2.1464    6.6099 H         1 RES1    0.0000
     28 C15        0.6088    0.2621    2.1064 C.ar      1 RES1    0.0000
     29 H9         0.2742   -0.0869    1.3122 H         1 RES1    0.0000
     30 C16       -4.2736    3.4114    5.0720 C.ar      1 RES1    0.0000
     31 H10       -4.8299    3.9865    5.5461 H         1 RES1    0.0000
     32 C17       -3.6415    5.8826   -0.2011 C.ar      1 RES1    0.0000
     33 H11       -3.5219    6.8027   -0.1422 H         1 RES1    0.0000
     34 C18       -4.3476    5.3450   -1.2637 C.ar      1 RES1    0.0000
     35 H12       -4.6863    5.9013   -1.9279 H         1 RES1    0.0000
     36 C19       -4.5487    3.9769   -1.3386 C.ar      1 RES1    0.0000
     37 H13       -5.0270    3.6167   -2.0507 H         1 RES1    0.0000
     38 C20       -3.1095    5.0524    0.7778 C.ar      1 RES1    0.0000
     39 H14       -2.6189    5.4081    1.4837 H         1 RES1    0.0000
@<TRIPOS>BOND
     1    1   10 2
     2    2    3 2
     3    3    8 2
     4    4    5 1
     5    6    7 1
     6    7   11 ar
     7    9    4 ar
     8   10    6 1
     9   11   12 1
    10   12    3 1
    11   13   11 ar
    12   14   13 1
    13   15   16 1
    14   17    6 1
    15   18   19 1
    16   20    4 ar
    17   21   20 1
    18   22   18 ar
    19   23   22 1
    20   24    7 ar
    21   25   24 1
    22   26   13 ar
    23   27   26 1
    24   28    9 ar
    25   29   28 1
    26   30   24 ar
    27   31   30 1
    28   32   33 1
    29   34   32 ar
    30   35   34 1
    31   36   15 ar
    32   37   36 1
    33   38   17 ar
    34   39   38 1
    35    9   12 1
    36   10   12 1
    37   15   17 ar
    38   18   28 ar
    39   20   22 ar
    40   26   30 ar
    41   32   38 ar
    42   34   36 ar
@<TRIPOS>SUBSTRUCTURE
     1 RES1 1

@<TRIPOS>CRYSIN
   8.7901    9.5950    9.9790  91.9350 101.3090 106.1880   2 1

