# MOL2 file generated by ConQuest
# Please check atom types

@<TRIPOS>MOLECULE
FOHMIZ
    96   100     2
SMALL
NO_CHARGES
****
Generated from CSD

@<TRIPOS>ATOM
      1 C1        23.4172    1.8660   11.0537 C.3       1 RES1    0.0000
      2 C2        23.5454    1.6001    9.5595 C.3       1 RES1    0.0000
      3 C3        25.0081    1.3680    9.1952 C.3       1 RES1    0.0000
      4 C4        25.8490    2.5864    9.5893 C.3       1 RES1    0.0000
      5 C5        25.7051    2.8839   11.0659 C.3       1 RES1    0.0000
      6 C6        24.2580    3.0705   11.4560 C.3       1 RES1    0.0000
      7 N1        22.0078    2.1169   11.3829 N.2       1 RES1    0.0000
      8 C7        21.3726    1.2442   12.0209 C.2       1 RES1    0.0000
      9 C8        19.9363    1.3669   12.3216 C.ar      1 RES1    0.0000
     10 C9        19.2902    0.3768   13.0558 C.ar      1 RES1    0.0000
     11 C10       17.9340    0.4422   13.2875 C.ar      1 RES1    0.0000
     12 C11       17.2317    1.5058   12.7619 C.ar      1 RES1    0.0000
     13 C12       17.8326    2.5039   12.0385 C.ar      1 RES1    0.0000
     14 C13       19.1985    2.4455   11.8407 C.ar      1 RES1    0.0000
     15 N2        15.7776    1.5540   12.9705 N.pl3     1 RES1    0.0000
     16 O1        15.2725    0.7639   13.7521 O.2       1 RES1    0.0000
     17 O2        15.1326    2.3961   12.3595 O.2       1 RES1    0.0000
     18 N3        22.7281    0.4288    9.2236 N.2       1 RES1    0.0000
     19 C14       22.0318    0.4841    8.1548 C.2       1 RES1    0.0000
     20 C15       21.0705   -0.5564    7.7945 C.ar      1 RES1    0.0000
     21 C16       20.6924   -1.5277    8.7075 C.ar      1 RES1    0.0000
     22 C17       19.6976   -2.4471    8.4041 C.ar      1 RES1    0.0000
     23 C18       19.0629   -2.3425    7.1849 C.ar      1 RES1    0.0000
     24 C19       19.4411   -1.4146    6.2502 C.ar      1 RES1    0.0000
     25 C20       20.4580   -0.5275    6.5550 C.ar      1 RES1    0.0000
     26 N4        17.9498   -3.2533    6.8937 N.pl3     1 RES1    0.0000
     27 O3        17.8135   -4.2493    7.5940 O.2       1 RES1    0.0000
     28 O4        17.1823   -2.9477    5.9779 O.2       1 RES1    0.0000
     29 C21       36.1658    2.3565   11.3422 C.3       2 RES2    0.0000
     30 C22       37.1139    2.1919   10.1447 C.3       2 RES2    0.0000
     31 C23       38.4051    1.5036   10.5538 C.3       2 RES2    0.0000
     32 C24       39.0991    2.2337   11.6863 C.3       2 RES2    0.0000
     33 C25       38.1694    2.3645   12.8851 C.3       2 RES2    0.0000
     34 C26       36.8813    3.0812   12.4936 C.3       2 RES2    0.0000
     35 N5        35.0275    3.1579   10.9440 N.2       2 RES2    0.0000
     36 C27       33.8862    2.7773   11.3260 C.2       2 RES2    0.0000
     37 C28       32.6636    3.5433   11.0361 C.ar      2 RES2    0.0000
     38 C29       31.4400    3.1069   11.5481 C.ar      2 RES2    0.0000
     39 C30       30.2815    3.8210   11.2962 C.ar      2 RES2    0.0000
     40 C31       30.3793    4.9552   10.5267 C.ar      2 RES2    0.0000
     41 C32       31.5749    5.4318   10.0215 C.ar      2 RES2    0.0000
     42 C33       32.7216    4.7221   10.2924 C.ar      2 RES2    0.0000
     43 N6        29.1501    5.7223   10.2396 N.pl3     2 RES2    0.0000
     44 O5        28.0835    5.2897   10.6730 O.2       2 RES2    0.0000
     45 O6        29.2426    6.7376    9.5663 O.2       2 RES2    0.0000
     46 N7        36.4028    1.3782    9.1626 N.2       2 RES2    0.0000
     47 C34       36.2180    1.8499    7.9990 C.2       2 RES2    0.0000
     48 C35       35.3924    1.1563    6.9898 C.ar      2 RES2    0.0000
     49 C36       34.7420   -0.0397    7.3014 C.ar      2 RES2    0.0000
     50 C37       33.8561   -0.6079    6.4141 C.ar      2 RES2    0.0000
     51 C38       33.6368    0.0177    5.2112 C.ar      2 RES2    0.0000
     52 C39       34.2892    1.1874    4.8509 C.ar      2 RES2    0.0000
     53 C40       35.1891    1.7481    5.7544 C.ar      2 RES2    0.0000
     54 N8        32.6721   -0.5698    4.2643 N.pl3     2 RES2    0.0000
     55 O7        32.1349   -1.6285    4.5732 O.2       2 RES2    0.0000
     56 O8        32.4787    0.0070    3.1996 O.2       2 RES2    0.0000
     57 H1        23.7355    1.0625   11.5590 H         1 RES1    0.0000
     58 H2        23.2020    2.3935    9.0543 H         1 RES1    0.0000
     59 H3        25.0868    1.2088    8.2212 H         1 RES1    0.0000
     60 H4        25.3435    0.5650    9.6679 H         1 RES1    0.0000
     61 H5        26.8009    2.4133    9.3780 H         1 RES1    0.0000
     62 H6        25.5571    3.3734    9.0638 H         1 RES1    0.0000
     63 H7        26.0900    2.1378   11.5901 H         1 RES1    0.0000
     64 H8        26.2132    3.7052   11.2853 H         1 RES1    0.0000
     65 H9        23.9014    3.8821   11.0158 H         1 RES1    0.0000
     66 H10       24.1967    3.2024   12.4354 H         1 RES1    0.0000
     67 H11       21.8377    0.4723   12.3230 H         1 RES1    0.0000
     68 H12       19.7885   -0.3538   13.3999 H         1 RES1    0.0000
     69 H13       17.4925   -0.2284   13.7954 H         1 RES1    0.0000
     70 H14       17.3201    3.2195   11.6809 H         1 RES1    0.0000
     71 H15       19.6400    3.1461   11.3720 H         1 RES1    0.0000
     72 H16       22.1438    1.2281    7.5750 H         1 RES1    0.0000
     73 H17       21.1187   -1.5653    9.5541 H         1 RES1    0.0000
     74 H18       19.4577   -3.1305    9.0204 H         1 RES1    0.0000
     75 H19       19.0122   -1.3809    5.4036 H         1 RES1    0.0000
     76 H20       20.7386    0.1077    5.9075 H         1 RES1    0.0000
     77 H21       35.8543    1.4581   11.6511 H         2 RES2    0.0000
     78 H22       37.3182    3.0887    9.7519 H         2 RES2    0.0000
     79 H23       38.2046    0.5763   10.8369 H         2 RES2    0.0000
     80 H24       39.0113    1.4597    9.7736 H         2 RES2    0.0000
     81 H25       39.3765    3.1343   11.3815 H         2 RES2    0.0000
     82 H26       39.9142    1.7363   11.9518 H         2 RES2    0.0000
     83 H27       38.6264    2.8727   13.6031 H         2 RES2    0.0000
     84 H28       37.9508    1.4645   13.2360 H         2 RES2    0.0000
     85 H29       37.0940    4.0080   12.2159 H         2 RES2    0.0000
     86 H30       36.2772    3.1257   13.2780 H         2 RES2    0.0000
     87 H31       33.8129    1.9673   11.8177 H         2 RES2    0.0000
     88 H32       31.4027    2.3163   12.0737 H         2 RES2    0.0000
     89 H33       29.4420    3.5358   11.6443 H         2 RES2    0.0000
     90 H34       31.6035    6.2262    9.5013 H         2 RES2    0.0000
     91 H35       33.5585    5.0367    9.9713 H         2 RES2    0.0000
     92 H36       36.6245    2.6776    7.7687 H         2 RES2    0.0000
     93 H37       34.9119   -0.4653    8.1331 H         2 RES2    0.0000
     94 H38       33.4054   -1.4157    6.6295 H         2 RES2    0.0000
     95 H39       34.1263    1.5953    4.0083 H         2 RES2    0.0000
     96 H40       35.6609    2.5382    5.5241 H         2 RES2    0.0000
@<TRIPOS>BOND
     1    1    2 1
     2    2    3 1
     3    3    4 1
     4    4    5 1
     5    5    6 1
     6    6    1 1
     7    7    1 1
     8    8    7 2
     9    9    8 1
    10   10    9 ar
    11   11   10 ar
    12   12   11 ar
    13   13   12 ar
    14   14    9 ar
    15   15   12 1
    16   16   15 2
    17   17   15 2
    18   18    2 1
    19   19   18 2
    20   20   19 1
    21   21   20 ar
    22   22   21 ar
    23   23   22 ar
    24   24   23 ar
    25   25   20 ar
    26   26   23 1
    27   27   26 2
    28   28   26 2
    29   29   30 1
    30   30   31 1
    31   31   32 1
    32   32   33 1
    33   33   34 1
    34   34   29 1
    35   35   29 1
    36   36   35 2
    37   37   36 1
    38   38   37 ar
    39   39   38 ar
    40   40   39 ar
    41   41   40 ar
    42   42   37 ar
    43   43   40 1
    44   44   43 2
    45   45   43 2
    46   46   30 1
    47   47   46 2
    48   48   47 1
    49   49   48 ar
    50   50   49 ar
    51   51   50 ar
    52   52   51 ar
    53   53   48 ar
    54   54   51 1
    55   55   54 2
    56   56   54 2
    57   57    1 1
    58   58    2 1
    59   59    3 1
    60   60    3 1
    61   61    4 1
    62   62    4 1
    63   63    5 1
    64   64    5 1
    65   65    6 1
    66   66    6 1
    67   67    8 1
    68   68   10 1
    69   69   11 1
    70   70   13 1
    71   71   14 1
    72   72   19 1
    73   73   21 1
    74   74   22 1
    75   75   24 1
    76   76   25 1
    77   77   29 1
    78   78   30 1
    79   79   31 1
    80   80   31 1
    81   81   32 1
    82   82   32 1
    83   83   33 1
    84   84   33 1
    85   85   34 1
    86   86   34 1
    87   87   36 1
    88   88   38 1
    89   89   39 1
    90   90   41 1
    91   91   42 1
    92   92   47 1
    93   93   49 1
    94   94   50 1
    95   95   52 1
    96   96   53 1
    97   13   14 ar
    98   24   25 ar
    99   41   42 ar
   100   52   53 ar
@<TRIPOS>SUBSTRUCTURE
     1 RES1 1
     2 RES2 29

@<TRIPOS>CRYSIN
  52.2750    5.3605   14.0209  90.0000 104.9520  90.0000   5 1

