# MOL2 file generated by ConQuest
# Please check atom types

@<TRIPOS>MOLECULE
FOHMUK
    13    13     1
SMALL
NO_CHARGES
****
Generated from CSD

@<TRIPOS>ATOM
      1 C1         1.1795    3.0550    4.2954 C.3       1 RES1    0.0000
      2 C2         1.7569    1.8308    4.9579 C.3       1 RES1    0.0000
      3 C3         1.0789    1.7346    3.6500 C.3       1 RES1    0.0000
      4 N1         1.0303    1.3592    6.1227 N.pl3     1 RES1    0.0000
      5 N2         2.1838    3.9963    3.7675 N.pl3     1 RES1    0.0000
      6 O1        -0.1869    1.4776    6.1545 O.2       1 RES1    0.0000
      7 O2         1.6984    0.8266    7.0025 O.2       1 RES1    0.0000
      8 O3         1.8789    5.1799    3.8373 O.2       1 RES1    0.0000
      9 O4         3.2211    3.5618    3.3077 O.2       1 RES1    0.0000
     10 H1         0.3723    3.4582    4.6491 H         1 RES1    0.0000
     11 H2         2.7521    1.6829    4.9329 H         1 RES1    0.0000
     12 H3         1.6300    1.5719    2.9234 H         1 RES1    0.0000
     13 H4         0.3607    1.4425    3.6046 H         1 RES1    0.0000
@<TRIPOS>BOND
     1    1    2 1
     2    2    3 1
     3    3    1 1
     4    4    2 1
     5    5    1 1
     6    6    4 2
     7    7    4 2
     8    8    5 2
     9    9    5 2
    10   10    1 1
    11   11    2 1
    12   12    3 1
    13   13    3 1
@<TRIPOS>SUBSTRUCTURE
     1 RES1 1

@<TRIPOS>CRYSIN
   5.2120   18.4930    6.2200  90.0000 114.1300  90.0000 231 1

