# MOL2 file generated by ConQuest
# Please check atom types

@<TRIPOS>MOLECULE
FOHQID
    28    28     1
SMALL
NO_CHARGES
****
Generated from CSD

@<TRIPOS>ATOM
      1 N1         6.9947    1.4300    3.7189 N.pl3     1 RES1    0.0000
      2 O1         7.1574    1.3962    2.4399 O.2       1 RES1    0.0000
      3 C1         7.6139    0.4796    4.4666 C.2       1 RES1    0.0000
      4 C2         9.0421   -1.4824    4.5352 C.2       1 RES1    0.0000
      5 C3         8.3975   -0.5135    3.8222 C.2       1 RES1    0.0000
      6 H1         8.4738   -0.5030    2.8952 H         1 RES1    0.0000
      7 O2         9.4491   -2.4409    6.6699 O.2       1 RES1    0.0000
      8 C4         8.8953   -1.5405    6.0136 C.2       1 RES1    0.0000
      9 N2         9.8386   -2.4344    3.9830 N.3       1 RES1    0.0000
     10 H2        10.1571   -2.1918    3.1627 H         1 RES1    0.0000
     11 H3        10.2384   -2.9036    4.4782 H         1 RES1    0.0000
     12 C5         7.5021    0.4683    5.9101 C.2       1 RES1    0.0000
     13 H4         7.0143    1.1326    6.3428 H         1 RES1    0.0000
     14 C6         8.0981   -0.4974    6.6266 C.2       1 RES1    0.0000
     15 H5         7.9959   -0.4966    7.5502 H         1 RES1    0.0000
     16 C7         6.1540    2.5779    4.2631 C.3       1 RES1    0.0000
     17 C8         4.9939    2.0628    5.1180 C.3       1 RES1    0.0000
     18 H6         5.1353    1.9701    6.0811 H         1 RES1    0.0000
     19 H7         4.6800    1.2116    4.8982 H         1 RES1    0.0000
     20 H8         4.2526    2.7149    5.0087 H         1 RES1    0.0000
     21 C9         5.5590    3.3219    3.0499 C.3       1 RES1    0.0000
     22 H9         5.0172    2.7399    2.5904 H         1 RES1    0.0000
     23 H10        6.3135    3.6895    2.4555 H         1 RES1    0.0000
     24 H11        4.9936    4.0176    3.4302 H         1 RES1    0.0000
     25 C10        7.0843    3.5323    5.0040 C.3       1 RES1    0.0000
     26 H12        7.3836    3.2929    5.8880 H         1 RES1    0.0000
     27 H13        6.6792    4.4360    5.0901 H         1 RES1    0.0000
     28 H14        7.8752    3.7226    4.3491 H         1 RES1    0.0000
@<TRIPOS>BOND
     1    1    2 2
     2    3    1 2
     3    4    5 2
     4    5    3 1
     5    6    5 1
     6    7    8 2
     7    8    4 1
     8    9    4 1
     9   10    9 1
    10   11    9 1
    11   12    3 1
    12   13   12 1
    13   14    8 1
    14   15   14 1
    15   16    1 1
    16   17   16 1
    17   18   17 1
    18   19   17 1
    19   20   17 1
    20   21   16 1
    21   22   21 1
    22   23   21 1
    23   24   21 1
    24   25   16 1
    25   26   25 1
    26   27   25 1
    27   28   25 1
    28   12   14 2
@<TRIPOS>SUBSTRUCTURE
     1 RES1 1

@<TRIPOS>CRYSIN
  10.4900    8.0610   11.6890  90.0000  95.6700  90.0000  14 1

