# MOL2 file generated by ConQuest
# Please check atom types

@<TRIPOS>MOLECULE
FOJLIZ
    31    32     1
SMALL
NO_CHARGES
****
Generated from CSD

@<TRIPOS>ATOM
      1 C1         1.7448    2.2665    5.5139 C.3       1 RES1    0.0000
      2 C2         2.8844    2.0758    4.5356 C.3       1 RES1    0.0000
      3 C3         3.9311    3.2238    4.4932 C.3       1 RES1    0.0000
      4 C4         3.8821    4.0390    3.2310 C.2       1 RES1    0.0000
      5 C5         3.6482    3.3210    1.9195 C.3       1 RES1    0.0000
      6 C6         3.2222    1.8921    2.1921 C.3       1 RES1    0.0000
      7 C7         4.9741    1.2997    5.2436 C.3       1 RES1    0.0000
      8 C8         5.1268    1.5509    6.7247 C.3       1 RES1    0.0000
      9 C9         5.9097    0.2310    4.7257 C.3       1 RES1    0.0000
     10 O1         1.0120    3.4513    5.2716 O.3       1 RES1    0.0000
     11 O2         3.6279    0.9336    4.9135 O.3       1 RES1    0.0000
     12 O3         5.1889    2.5189    4.5038 O.3       1 RES1    0.0000
     13 O4         4.1674    5.8920    2.0853 O.3       1 RES1    0.0000
     14 O5         2.6147    3.9181    1.1373 O.3       1 RES1    0.0000
     15 O6         2.2830    1.8483    3.2817 O.3       1 RES1    0.0000
     16 N1         4.1399    5.2818    3.3552 N.2       1 RES1    0.0000
     17 H1         4.8774    0.6398    7.2472 H         1 RES1    0.0000
     18 H2         4.4633    2.3412    7.0412 H         1 RES1    0.0000
     19 H3         6.1472    1.8258    6.9481 H         1 RES1    0.0000
     20 H4         6.9062    0.5971    4.9294 H         1 RES1    0.0000
     21 H5         5.8023    0.0486    3.6664 H         1 RES1    0.0000
     22 H6         5.7462   -0.6884    5.2678 H         1 RES1    0.0000
     23 H7         1.1671    1.4289    5.4647 H         1 RES1    0.0000
     24 H8         2.1111    2.3388    6.3900 H         1 RES1    0.0000
     25 H9         0.6373    3.3245    4.5667 H         1 RES1    0.0000
     26 H10        3.8439    3.8388    5.3314 H         1 RES1    0.0000
     27 H11        4.4299    6.7344    1.7771 H         1 RES1    0.0000
     28 H12        4.4573    3.3163    1.4425 H         1 RES1    0.0000
     29 H13        2.8200    4.7463    0.9685 H         1 RES1    0.0000
     30 H14        4.0206    1.3175    2.4548 H         1 RES1    0.0000
     31 H15        2.7472    1.5047    1.4523 H         1 RES1    0.0000
@<TRIPOS>BOND
     1    1    2 1
     2    2    3 1
     3    3    4 1
     4    4    5 1
     5    5    6 1
     6    6   15 1
     7    7    8 1
     8    8   17 1
     9    9    7 1
    10   10    1 1
    11   11    2 1
    12   12    3 1
    13   13   16 1
    14   14    5 1
    15   15    2 1
    16   16    4 2
    17   18    8 1
    18   19    8 1
    19   20    9 1
    20   21    9 1
    21   22    9 1
    22   23    1 1
    23   24    1 1
    24   25   10 1
    25   26    3 1
    26   27   13 1
    27   28    5 1
    28   29   14 1
    29   30    6 1
    30   31    6 1
    31    7   11 1
    32    7   12 1
@<TRIPOS>SUBSTRUCTURE
     1 RES1 1

@<TRIPOS>CRYSIN
  11.9340   11.8480    7.5720  90.0000  90.0000  90.0000  19 1

