# MOL2 file generated by ConQuest
# Please check atom types

@<TRIPOS>MOLECULE
FOJNAT
    26    27     1
SMALL
USER_CHARGES
****
Generated from CSD

@<TRIPOS>ATOM
      1 O1         6.3291    2.9841    0.8247 O.3       1 RES1    0.0000
      2 N1         5.4204    2.2375    1.7051 N.am      1 RES1    0.0000
      3 C1         6.1426    1.5406    2.6055 C.2       1 RES1    0.0000
      4 O2         5.7009    0.9386    3.5560 O.2       1 RES1    0.0000
      5 C2         7.5988    1.5859    2.1882 C.3       1 RES1    0.0000
      6 C3         7.4938    2.1318    0.7413 C.3       1 RES1    0.0000
      7 C4         4.2126    2.9129    2.0229 C.3       1 RES1    0.0000
      8 O3         4.5063    3.9723    3.0079 O.3       1 RES1    0.0000
      9 C5         4.3990    5.1677    2.5516 C.2       1 RES1    0.0000
     10 O4         4.6277    6.1559    3.2372 O.2       1 RES1    0.0000
     11 C6         3.9964    5.1914    1.0679 C.3       1 RES1    0.0000
     12 C7         3.5828    3.7307    0.8203 C.3       1 RES1    0.0000
     13 C8         3.1990    1.9355    2.5627 C.2       1 RES1    0.0000
     14 O5         2.9993    0.9343    1.8726 O.co2     1 RES1    0.0000
     15 O6         2.5865    2.2138    3.6278 O.co2     1 RES1   -1.0000
     16 N2         8.2035    0.2460    2.2293 N.4       1 RES1    1.0000
     17 H1         8.1698    2.1793    2.8048 H         1 RES1    0.0000
     18 H2         7.4257    1.4025    0.0779 H         1 RES1    0.0000
     19 H3         8.3813    2.6971    0.5454 H         1 RES1    0.0000
     20 H4         4.8173    5.4806    0.4285 H         1 RES1    0.0000
     21 H5         3.1802    5.8689    0.8737 H         1 RES1    0.0000
     22 H6         3.9792    3.3660   -0.0445 H         1 RES1    0.0000
     23 H7         2.5692    3.8407    0.8014 H         1 RES1    0.0000
     24 H8         7.7468   -0.4531    1.5026 H         1 RES1    0.0000
     25 H9         9.2116    0.3452    2.0312 H         1 RES1    0.0000
     26 H10        8.0602   -0.1295    3.1108 H         1 RES1    0.0000
@<TRIPOS>BOND
     1    1    2 1
     2    2    3 1
     3    3    4 2
     4    5    3 1
     5    6    1 1
     6    7    2 1
     7    8    7 1
     8    9    8 1
     9   10    9 2
    10   11    9 1
    11   12    7 1
    12   13    7 1
    13   14   13 2
    14   15   13 1
    15   16    5 1
    16   17    5 1
    17   18    6 1
    18   19    6 1
    19   20   11 1
    20   21   11 1
    21   22   12 1
    22   23   12 1
    23   24   16 1
    24   25   16 1
    25   26   16 1
    26    5    6 1
    27   11   12 1
@<TRIPOS>SUBSTRUCTURE
     1 RES1 1

@<TRIPOS>CRYSIN
   7.8330   21.5770    5.5650  90.0000  90.0000  90.0000  19 1

