# MOL2 file generated by ConQuest
# Please check atom types

@<TRIPOS>MOLECULE
FOJPIF
    32    33     1
SMALL
NO_CHARGES
****
Generated from CSD

@<TRIPOS>ATOM
      1 N1         0.3931    6.8308    9.0160 N.pl3     1 RES1    0.0000
      2 O1         2.4235    9.3656   13.0419 O.2       1 RES1    0.0000
      3 O2         1.6986    9.7281   10.7013 O.3       1 RES1    0.0000
      4 H1         1.9823    9.9137   11.4480 H         1 RES1    0.0000
      5 O3         0.6864    5.8351    9.8268 O.2       1 RES1    0.0000
      6 O4        -0.3647    4.2215    8.3288 O.3       1 RES1    0.0000
      7 H2         0.0226    4.5467    8.9735 H         1 RES1    0.0000
      8 O5        -1.3201    4.9732    6.4818 O.2       1 RES1    0.0000
      9 C1         2.9515    7.8082   15.2416 C.ar      1 RES1    0.0000
     10 H3         3.1390    8.7181   15.2666 H         1 RES1    0.0000
     11 C2         3.2462    7.0235   16.3318 C.ar      1 RES1    0.0000
     12 H4         3.6261    7.4058   17.0896 H         1 RES1    0.0000
     13 C3         2.9792    5.6676   16.3022 C.ar      1 RES1    0.0000
     14 H5         3.1805    5.1365   17.0381 H         1 RES1    0.0000
     15 C4         2.4140    5.1061   15.1798 C.ar      1 RES1    0.0000
     16 H6         2.2339    4.1942   15.1584 H         1 RES1    0.0000
     17 C5         2.1143    5.8902   14.0847 C.ar      1 RES1    0.0000
     18 H7         1.7350    5.5024   13.3303 H         1 RES1    0.0000
     19 C6         2.3768    7.2572   14.1025 C.ar      1 RES1    0.0000
     20 C7         2.0982    8.1393   12.9458 C.2       1 RES1    0.0000
     21 C8         1.5235    7.6423   11.7457 C.2       1 RES1    0.0000
     22 H8         1.2646    6.7504   11.6926 H         1 RES1    0.0000
     23 C9         1.3470    8.4633   10.6683 C.2       1 RES1    0.0000
     24 C10        0.7395    8.1213    9.3523 C.ar      1 RES1    0.0000
     25 C11        0.4573    9.1304    8.4488 C.ar      1 RES1    0.0000
     26 H9         0.7191   10.0009    8.6491 H         1 RES1    0.0000
     27 C12       -0.1976    8.8867    7.2684 C.ar      1 RES1    0.0000
     28 H10       -0.3895    9.5786    6.6767 H         1 RES1    0.0000
     29 C13       -0.5638    7.5921    6.9824 C.ar      1 RES1    0.0000
     30 H11       -1.0210    7.4085    6.1926 H         1 RES1    0.0000
     31 C14       -0.2640    6.5705    7.8411 C.ar      1 RES1    0.0000
     32 C15       -0.6928    5.1692    7.4950 C.2       1 RES1    0.0000
@<TRIPOS>BOND
     1    1    5 1
     2    2   20 2
     3    3    4 1
     4    6    7 1
     5    8   32 2
     6    9   10 1
     7   11    9 ar
     8   12   11 1
     9   13   11 ar
    10   14   13 1
    11   15   13 ar
    12   16   15 1
    13   17   15 ar
    14   18   17 1
    15   19    9 ar
    16   20   19 1
    17   21   20 1
    18   22   21 1
    19   23    3 1
    20   24    1 ar
    21   25   24 ar
    22   26   25 1
    23   27   25 ar
    24   28   27 1
    25   29   27 ar
    26   30   29 1
    27   31    1 ar
    28   32    6 1
    29   17   19 ar
    30   21   23 2
    31   23   24 1
    32   29   31 ar
    33   31   32 1
@<TRIPOS>SUBSTRUCTURE
     1 RES1 1

@<TRIPOS>CRYSIN
   7.2931   13.4042   25.7490  90.0000  90.0000  90.0000  61 1

