# MOL2 file generated by ConQuest
# Please check atom types

@<TRIPOS>MOLECULE
FOJROM
    42    43     1
SMALL
NO_CHARGES
****
Generated from CSD

@<TRIPOS>ATOM
      1 C1        -2.5394   -0.4906    7.6259 C.ar      1 RES1    0.0000
      2 C2        -3.6980   -0.7109    8.3768 C.ar      1 RES1    0.0000
      3 C3        -4.6350   -1.6587    7.9391 C.ar      1 RES1    0.0000
      4 C4        -4.4137   -2.3705    6.7729 C.ar      1 RES1    0.0000
      5 H1        -5.0567   -3.0036    6.4738 H         1 RES1    0.0000
      6 C5        -3.2496   -2.1599    6.0341 C.ar      1 RES1    0.0000
      7 H2        -3.0947   -2.6560    5.2399 H         1 RES1    0.0000
      8 C6        -2.3278   -1.2343    6.4581 C.ar      1 RES1    0.0000
      9 H3        -1.5360   -1.0968    5.9514 H         1 RES1    0.0000
     10 O1        -3.9678   -0.0444    9.5311 O.3       1 RES1    0.0000
     11 H4        -3.3532    0.5068    9.6871 H         1 RES1    0.0000
     12 O2        -5.7469   -1.7920    8.7387 O.3       1 RES1    0.0000
     13 C7        -6.6766   -2.8203    8.3707 C.3       1 RES1    0.0000
     14 H5        -7.0773   -2.6028    7.5029 H         1 RES1    0.0000
     15 H6        -7.3807   -2.8828    9.0499 H         1 RES1    0.0000
     16 H7        -6.2068   -3.6783    8.3068 H         1 RES1    0.0000
     17 C8        -1.5409    0.4910    8.0330 C.2       1 RES1    0.0000
     18 H8        -0.7667    0.6151    7.4962 H         1 RES1    0.0000
     19 N1        -1.6805    1.1880    9.0933 N.2       1 RES1    0.0000
     20 O3        -0.6016    2.0724    9.2588 O.3       1 RES1    0.0000
     21 C9        -0.7232    2.7449   10.5241 C.3       1 RES1    0.0000
     22 H9        -0.6999    2.0854   11.2634 H         1 RES1    0.0000
     23 H10       -1.5831    3.2336   10.5676 H         1 RES1    0.0000
     24 C10        0.4289    3.7112   10.6567 C.3       1 RES1    0.0000
     25 H11        0.5374    4.1994    9.8020 H         1 RES1    0.0000
     26 H12        0.2103    4.3758   11.3579 H         1 RES1    0.0000
     27 O4         1.6766    3.0753   10.9914 O.3       1 RES1    0.0000
     28 N2         2.1228    2.3422    9.8819 N.2       1 RES1    0.0000
     29 C11        3.2090    1.7202   10.1224 C.2       1 RES1    0.0000
     30 H13        3.6347    1.8183   10.9661 H         1 RES1    0.0000
     31 C12        3.7988    0.8599    9.1089 C.ar      1 RES1    0.0000
     32 C13        3.1374    0.5318    7.9195 C.ar      1 RES1    0.0000
     33 C14        3.7288   -0.3415    7.0017 C.ar      1 RES1    0.0000
     34 H14        3.2685   -0.5808    6.2059 H         1 RES1    0.0000
     35 C15        4.9793   -0.8520    7.2572 C.ar      1 RES1    0.0000
     36 H15        5.3767   -1.4435    6.6292 H         1 RES1    0.0000
     37 C16        5.6727   -0.5211    8.4156 C.ar      1 RES1    0.0000
     38 H16        6.5418   -0.8710    8.5748 H         1 RES1    0.0000
     39 C17        5.0757    0.3272    9.3311 C.ar      1 RES1    0.0000
     40 H17        5.5417    0.5540   10.1285 H         1 RES1    0.0000
     41 O5         1.8993    1.0103    7.6117 O.3       1 RES1    0.0000
     42 H18        1.6461    1.5393    8.2122 H         1 RES1    0.0000
@<TRIPOS>BOND
     1    1    2 ar
     2    2    3 ar
     3    3    4 ar
     4    4    5 1
     5    6    4 ar
     6    7    6 1
     7    8    1 ar
     8    9    8 1
     9   10    2 1
    10   11   10 1
    11   12    3 1
    12   13   12 1
    13   14   13 1
    14   15   13 1
    15   16   13 1
    16   17    1 1
    17   18   17 1
    18   19   17 2
    19   20   19 1
    20   21   20 1
    21   22   21 1
    22   23   21 1
    23   24   21 1
    24   25   24 1
    25   26   24 1
    26   27   24 1
    27   28   27 1
    28   29   28 2
    29   30   29 1
    30   31   29 1
    31   32   31 ar
    32   33   32 ar
    33   34   33 1
    34   35   33 ar
    35   36   35 1
    36   37   35 ar
    37   38   37 1
    38   39   31 ar
    39   40   39 1
    40   41   32 1
    41   42   41 1
    42    6    8 ar
    43   37   39 ar
@<TRIPOS>SUBSTRUCTURE
     1 RES1 1

@<TRIPOS>CRYSIN
  15.2720    4.6280   23.2570  90.0000 104.4850  90.0000 231 1

