# MOL2 file generated by ConQuest
# Please check atom types

@<TRIPOS>MOLECULE
FOJREC
    76    78     2
SMALL
NO_CHARGES
****
Generated from CSD

@<TRIPOS>ATOM
      1 C1        -1.3021    5.5682    1.8452 C.ar      1 RES1    0.0000
      2 C2        -1.6285    5.2886    3.1801 C.ar      1 RES1    0.0000
      3 C3        -2.5917    4.3309    3.4765 C.ar      1 RES1    0.0000
      4 H1        -2.8073    4.1423    4.3812 H         1 RES1    0.0000
      5 C4        -3.2358    3.6528    2.4605 C.ar      1 RES1    0.0000
      6 H2        -3.8955    3.0031    2.6718 H         1 RES1    0.0000
      7 C5        -2.9271    3.9130    1.1351 C.ar      1 RES1    0.0000
      8 H3        -3.3676    3.4421    0.4373 H         1 RES1    0.0000
      9 C6        -1.9757    4.8622    0.8405 C.ar      1 RES1    0.0000
     10 H4        -1.7699    5.0431   -0.0690 H         1 RES1    0.0000
     11 O1        -1.0265    5.9280    4.2199 O.3       1 RES1    0.0000
     12 H5        -0.4772    6.4902    3.9230 H         1 RES1    0.0000
     13 C7        -0.3121    6.5634    1.4665 C.2       1 RES1    0.0000
     14 H6        -0.1213    6.6920    0.5440 H         1 RES1    0.0000
     15 N1         0.3121    7.2728    2.3310 N.2       1 RES1    0.0000
     16 O2         1.2057    8.1612    1.6952 O.3       1 RES1    0.0000
     17 C8         1.8712    8.9758    2.6691 C.3       1 RES1    0.0000
     18 H7         2.5871    9.4923    2.2199 H         1 RES1    0.0000
     19 H8         2.2986    8.3884    3.3414 H         1 RES1    0.0000
     20 C9         0.9523    9.9289    3.3717 C.3       1 RES1    0.0000
     21 H9         0.2407    9.4317    3.8477 H         1 RES1    0.0000
     22 H10        1.4562   10.4669    4.0318 H         1 RES1    0.0000
     23 O3         0.3797   10.7809    2.3689 O.3       1 RES1    0.0000
     24 N2        -0.4992   11.6820    2.9987 N.2       1 RES1    0.0000
     25 C10       -1.1112   12.4077    2.1494 C.2       1 RES1    0.0000
     26 H11       -0.9378   12.2882    1.2240 H         1 RES1    0.0000
     27 C11       -2.0677   13.4125    2.5683 C.ar      1 RES1    0.0000
     28 C12       -2.3255   13.6819    3.9226 C.ar      1 RES1    0.0000
     29 C13       -3.2400   14.6685    4.2693 C.ar      1 RES1    0.0000
     30 H12       -3.4234   14.8407    5.1847 H         1 RES1    0.0000
     31 C14       -3.8805   15.3969    3.2953 C.ar      1 RES1    0.0000
     32 H13       -4.4972   16.0744    3.5443 H         1 RES1    0.0000
     33 C15       -3.6371   15.1532    1.9538 C.ar      1 RES1    0.0000
     34 H14       -4.0813   15.6596    1.2826 H         1 RES1    0.0000
     35 C16       -2.7393   14.1646    1.6052 C.ar      1 RES1    0.0000
     36 H15       -2.5751   13.9921    0.6863 H         1 RES1    0.0000
     37 O4        -1.7206   13.0022    4.9277 O.3       1 RES1    0.0000
     38 H16       -1.1825   12.4439    4.6051 H         1 RES1    0.0000
     39 C17       -1.5869   16.9754    8.3114 C.ar      2 RES2    0.0000
     40 C18       -1.7133   17.0474    6.9085 C.ar      2 RES2    0.0000
     41 C19       -2.6016   17.9462    6.3388 C.ar      2 RES2    0.0000
     42 H17       -2.6871   17.9902    5.3939 H         2 RES2    0.0000
     43 C20       -3.3621   18.7762    7.1319 C.ar      2 RES2    0.0000
     44 H18       -3.9723   19.3843    6.7329 H         2 RES2    0.0000
     45 C21       -3.2400   18.7270    8.5124 C.ar      2 RES2    0.0000
     46 H19       -3.7545   19.3088    9.0596 H         2 RES2    0.0000
     47 C22       -2.3656   17.8273    9.0855 C.ar      2 RES2    0.0000
     48 H20       -2.2947   17.7892   10.0325 H         2 RES2    0.0000
     49 O5        -0.9930   16.2637    6.0749 O.3       2 RES2    0.0000
     50 H21       -0.4747   15.7791    6.5237 H         2 RES2    0.0000
     51 C23       -0.6891   16.0315    8.9579 C.2       2 RES2    0.0000
     52 H22       -0.6506   16.0017    9.9069 H         2 RES2    0.0000
     53 N3         0.0487   15.2422    8.2762 N.2       2 RES2    0.0000
     54 O6         0.8227   14.4123    9.1133 O.3       2 RES2    0.0000
     55 C24        1.6390   13.5563    8.2973 C.3       2 RES2    0.0000
     56 H23        2.3087   13.1088    8.8733 H         2 RES2    0.0000
     57 H24        2.1292   14.1123    7.6410 H         2 RES2    0.0000
     58 C25        0.8624   12.5113    7.5592 C.3       2 RES2    0.0000
     59 H25        0.1498   12.9362    7.0175 H         2 RES2    0.0000
     60 H26        1.4606   12.0099    6.9505 H         2 RES2    0.0000
     61 O7         0.2838   11.6217    8.5248 O.3       2 RES2    0.0000
     62 N4        -0.5163   10.6838    7.8504 N.2       2 RES2    0.0000
     63 C26       -1.0470    9.8414    8.6407 C.2       2 RES2    0.0000
     64 H27       -0.8619    9.8955    9.5701 H         2 RES2    0.0000
     65 C27       -1.9310    8.7973    8.1513 C.ar      2 RES2    0.0000
     66 C28       -2.2127    8.6359    6.7880 C.ar      2 RES2    0.0000
     67 C29       -3.0819    7.6301    6.3739 C.ar      2 RES2    0.0000
     68 H28       -3.2733    7.5266    5.4483 H         2 RES2    0.0000
     69 C30       -3.6671    6.7846    7.2889 C.ar      2 RES2    0.0000
     70 H29       -4.2679    6.1099    6.9945 H         2 RES2    0.0000
     71 C31       -3.3816    6.9148    8.6359 C.ar      2 RES2    0.0000
     72 H30       -3.7693    6.3201    9.2667 H         2 RES2    0.0000
     73 C32       -2.5301    7.9134    9.0531 C.ar      2 RES2    0.0000
     74 H31       -2.3447    8.0042    9.9802 H         2 RES2    0.0000
     75 O8        -1.6620    9.4300    5.8404 O.3       2 RES2    0.0000
     76 H32       -1.1433    9.9819    6.2036 H         2 RES2    0.0000
@<TRIPOS>BOND
     1    1    2 ar
     2    2    3 ar
     3    3    4 1
     4    5    3 ar
     5    6    5 1
     6    7    5 ar
     7    8    7 1
     8    9    1 ar
     9   10    9 1
    10   11    2 1
    11   12   11 1
    12   13    1 1
    13   14   13 1
    14   15   13 2
    15   16   15 1
    16   17   16 1
    17   18   17 1
    18   19   17 1
    19   20   17 1
    20   21   20 1
    21   22   20 1
    22   23   20 1
    23   24   23 1
    24   25   24 2
    25   26   25 1
    26   27   25 1
    27   28   27 ar
    28   29   28 ar
    29   30   29 1
    30   31   29 ar
    31   32   31 1
    32   33   31 ar
    33   34   33 1
    34   35   27 ar
    35   36   35 1
    36   37   28 1
    37   38   37 1
    38   39   40 ar
    39   40   41 ar
    40   41   42 1
    41   43   41 ar
    42   44   43 1
    43   45   43 ar
    44   46   45 1
    45   47   39 ar
    46   48   47 1
    47   49   40 1
    48   50   49 1
    49   51   39 1
    50   52   51 1
    51   53   51 2
    52   54   53 1
    53   55   54 1
    54   56   55 1
    55   57   55 1
    56   58   55 1
    57   59   58 1
    58   60   58 1
    59   61   58 1
    60   62   61 1
    61   63   62 2
    62   64   63 1
    63   65   63 1
    64   66   65 ar
    65   67   66 ar
    66   68   67 1
    67   69   67 ar
    68   70   69 1
    69   71   69 ar
    70   72   71 1
    71   73   65 ar
    72   74   73 1
    73   75   66 1
    74   76   75 1
    75    7    9 ar
    76   33   35 ar
    77   45   47 ar
    78   71   73 ar
@<TRIPOS>SUBSTRUCTURE
     1 RES1 1
     2 RES2 39

@<TRIPOS>CRYSIN
   4.6416   15.0604   20.9786  92.3230  93.0950  98.4404   2 1

