# MOL2 file generated by ConQuest
# Please check atom types

@<TRIPOS>MOLECULE
FOKMUO
    73    77     1
SMALL
NO_CHARGES
****
Generated from CSD

@<TRIPOS>ATOM
      1 C1         4.5746    9.6674    3.5122 C.2       1 RES1    0.0000
      2 O1         3.5194    9.5737    4.3419 O.3       1 RES1    0.0000
      3 O2         5.5628    8.9881    3.6794 O.2       1 RES1    0.0000
      4 C2         2.4607   10.5237    3.9580 C.3       1 RES1    0.0000
      5 C3         3.1754   11.5111    3.0229 C.3       1 RES1    0.0000
      6 C4         2.3225   12.2616    1.9749 C.3       1 RES1    0.0000
      7 C5         1.8640   11.3495    0.8053 C.3       1 RES1    0.0000
      8 C6         1.0207   12.1317   -0.2084 C.3       1 RES1    0.0000
      9 C7         0.6846   11.3076   -1.4524 C.3       1 RES1    0.0000
     10 C8         1.9402   10.7436   -2.1044 C.3       1 RES1    0.0000
     11 C9         2.7451    9.9162   -1.1079 C.3       1 RES1    0.0000
     12 C10        3.1071   10.7209    0.1457 C.3       1 RES1    0.0000
     13 C11        3.8344    9.8499    1.1626 C.3       1 RES1    0.0000
     14 C12        4.2743   10.6410    2.4020 C.3       1 RES1    0.0000
     15 C13        1.9295   11.1067    5.2566 C.3       1 RES1    0.0000
     16 C14        1.1731   13.0026    2.5905 C.2       1 RES1    0.0000
     17 C15        1.0289   14.3212    2.5827 C.2       1 RES1    0.0000
     18 C16       -0.1885   15.0318    3.1251 C.3       1 RES1    0.0000
     19 C17       -0.5963   16.2251    2.2638 C.3       1 RES1    0.0000
     20 C18        0.3217   17.4211    2.4578 C.3       1 RES1    0.0000
     21 C19        0.3150   17.8279    3.9313 C.3       1 RES1    0.0000
     22 C20        0.7590   16.6882    4.8497 C.3       1 RES1    0.0000
     23 C21        2.2617   16.4440    4.8018 C.3       1 RES1    0.0000
     24 N1        -0.0116   15.4593    4.5378 N.am      1 RES1    0.0000
     25 C22       -0.3931   14.5769    5.4899 C.2       1 RES1    0.0000
     26 O3        -0.8756   13.4707    5.2596 O.2       1 RES1    0.0000
     27 C23       -0.2462   15.0181    6.9240 C.ar      1 RES1    0.0000
     28 C24        0.8200   14.5793    7.7032 C.ar      1 RES1    0.0000
     29 C25        0.9012   15.0075    9.0196 C.ar      1 RES1    0.0000
     30 C26       -0.0406   15.8349    9.6066 C.ar      1 RES1    0.0000
     31 C27       -1.0980   16.2086    8.8079 C.ar      1 RES1    0.0000
     32 C28       -1.2254   15.8270    7.4866 C.ar      1 RES1    0.0000
     33 N2         2.0544   14.5740    9.8277 N.pl3     1 RES1    0.0000
     34 O4         2.8855   13.8480    9.3005 O.2       1 RES1    0.0000
     35 O5         2.1122   14.9729   10.9905 O.2       1 RES1    0.0000
     36 N3        -2.1435   17.0849    9.3718 N.pl3     1 RES1    0.0000
     37 O6        -1.9135   17.6311   10.4444 O.2       1 RES1    0.0000
     38 O7        -3.1867   17.1962    8.7390 O.2       1 RES1    0.0000
     39 H1         1.6650   10.1588    3.4743 H         1 RES1    0.0000
     40 H2         3.5032   12.3005    3.5412 H         1 RES1    0.0000
     41 H3         2.9295   12.9492    1.5761 H         1 RES1    0.0000
     42 H4         1.2796   10.6196    1.1603 H         1 RES1    0.0000
     43 H5         1.5311   12.9433   -0.4904 H         1 RES1    0.0000
     44 H6         0.1671   12.4093    0.2330 H         1 RES1    0.0000
     45 H7         0.2107   11.8932   -2.1111 H         1 RES1    0.0000
     46 H8         0.0864   10.5504   -1.1882 H         1 RES1    0.0000
     47 H9         2.5053   11.4996   -2.4343 H         1 RES1    0.0000
     48 H10        1.6765   10.1628   -2.8746 H         1 RES1    0.0000
     49 H11        3.5888    9.6091   -1.5493 H         1 RES1    0.0000
     50 H12        2.2033    9.1206   -0.8360 H         1 RES1    0.0000
     51 H13        3.7128   11.4581   -0.1516 H         1 RES1    0.0000
     52 H14        4.6444    9.4568    0.7290 H         1 RES1    0.0000
     53 H15        3.2210    9.1147    1.4524 H         1 RES1    0.0000
     54 H16        5.0366   11.2050    2.0844 H         1 RES1    0.0000
     55 H17        1.2029   11.7626    5.0548 H         1 RES1    0.0000
     56 H18        2.6712   11.5688    5.7426 H         1 RES1    0.0000
     57 H19        1.5645   10.3704    5.8273 H         1 RES1    0.0000
     58 H20        0.4622   12.4627    3.0407 H         1 RES1    0.0000
     59 H21        1.7664   14.8754    2.1969 H         1 RES1    0.0000
     60 H22       -0.9276   14.3592    3.0942 H         1 RES1    0.0000
     61 H23       -1.5285   16.4930    2.5079 H         1 RES1    0.0000
     62 H24       -0.5688   15.9512    1.3030 H         1 RES1    0.0000
     63 H25       -0.0018   18.1838    1.8982 H         1 RES1    0.0000
     64 H26        1.2513   17.1773    2.1824 H         1 RES1    0.0000
     65 H27        0.9372   18.6011    4.0550 H         1 RES1    0.0000
     66 H28       -0.6124   18.1028    4.1854 H         1 RES1    0.0000
     67 H29        0.5605   16.9597    5.7916 H         1 RES1    0.0000
     68 H30        2.4967   15.6921    5.4171 H         1 RES1    0.0000
     69 H31        2.7430   17.2722    5.0872 H         1 RES1    0.0000
     70 H32        2.5309   16.2063    3.8678 H         1 RES1    0.0000
     71 H33        1.5129   13.9676    7.3231 H         1 RES1    0.0000
     72 H34        0.0418   16.1430   10.5544 H         1 RES1    0.0000
     73 H35       -2.0096   16.1272    6.9441 H         1 RES1    0.0000
@<TRIPOS>BOND
     1    1    2 1
     2    2    4 1
     3    3    1 2
     4    4    5 1
     5    5    6 1
     6    6    7 1
     7    7    8 1
     8    8    9 1
     9    9   10 1
    10   10   11 1
    11   11   12 1
    12   12    7 1
    13   13   12 1
    14   14    1 1
    15   15    4 1
    16   16    6 1
    17   17   16 2
    18   18   17 1
    19   19   18 1
    20   20   19 1
    21   21   20 1
    22   22   21 1
    23   23   22 1
    24   24   18 1
    25   25   24 1
    26   26   25 2
    27   27   25 1
    28   28   27 ar
    29   29   28 ar
    30   30   29 ar
    31   31   30 ar
    32   32   27 ar
    33   33   29 1
    34   34   33 2
    35   35   33 2
    36   36   31 1
    37   37   36 2
    38   38   36 2
    39   39    4 1
    40   40    5 1
    41   41    6 1
    42   42    7 1
    43   43    8 1
    44   44    8 1
    45   45    9 1
    46   46    9 1
    47   47   10 1
    48   48   10 1
    49   49   11 1
    50   50   11 1
    51   51   12 1
    52   52   13 1
    53   53   13 1
    54   54   14 1
    55   55   15 1
    56   56   15 1
    57   57   15 1
    58   58   16 1
    59   59   17 1
    60   60   18 1
    61   61   19 1
    62   62   19 1
    63   63   20 1
    64   64   20 1
    65   65   21 1
    66   66   21 1
    67   67   22 1
    68   68   23 1
    69   69   23 1
    70   70   23 1
    71   71   28 1
    72   72   30 1
    73   73   32 1
    74    5   14 1
    75   13   14 1
    76   22   24 1
    77   31   32 ar
@<TRIPOS>SUBSTRUCTURE
     1 RES1 1

@<TRIPOS>CRYSIN
   6.1778   19.7758   11.2460  90.0000  97.6355  90.0000   4 1

