# MOL2 file generated by ConQuest
# Please check atom types

@<TRIPOS>MOLECULE
FOKNAV
    47    49     1
SMALL
USER_CHARGES
****
Generated from CSD

@<TRIPOS>ATOM
      1 C1         8.6426    4.8212    1.0136 C.ar      1 RES1    0.0000
      2 N1         9.0401    5.4520   -0.2579 N.pl3     1 RES1    0.0000
      3 C2         7.8840    3.6430    3.3781 C.ar      1 RES1    0.0000
      4 C3         9.6003    4.1569    1.7541 C.ar      1 RES1    0.0000
      5 H1        10.4820    4.1065    1.4629 H         1 RES1    0.0000
      6 C4         8.3888    3.2174    5.9012 C.2       1 RES1    0.0000
      7 O1         9.0791    0.9079    6.6929 O.2       1 RES1    0.0000
      8 C5         9.2048    3.5673    2.9453 C.ar      1 RES1    0.0000
      9 H2         9.8318    3.1148    3.4622 H         1 RES1    0.0000
     10 C6         7.4703    3.0160    4.6865 C.3       1 RES1    0.0000
     11 H3         6.5357    3.2143    4.9032 H         1 RES1    0.0000
     12 N2         7.7769    1.5723    4.8526 N.am      1 RES1    0.0000
     13 C7         7.3276    4.9185    1.4054 C.ar      1 RES1    0.0000
     14 H4         6.7053    5.3704    0.8828 H         1 RES1    0.0000
     15 C8         8.8859    4.2386    6.5614 C.2       1 RES1    0.0000
     16 H5         8.6375    5.0968    6.3022 H         1 RES1    0.0000
     17 C9         6.9588    4.3234    2.6021 C.ar      1 RES1    0.0000
     18 H6         6.0761    4.3815    2.8888 H         1 RES1    0.0000
     19 C10        8.5416    1.7198    5.9722 C.2       1 RES1    0.0000
     20 O2         8.1784    5.9762   -0.9396 O.2       1 RES1    0.0000
     21 C11        7.2366    0.3819    4.2217 C.3       1 RES1    0.0000
     22 H7         7.8663   -0.3480    4.3298 H         1 RES1    0.0000
     23 H8         7.1312    0.5463    3.2722 H         1 RES1    0.0000
     24 C12        5.9041   -0.0277    4.8010 C.ar      1 RES1    0.0000
     25 C13        9.8319    4.0855    7.7103 C.3       1 RES1    0.0000
     26 H9         9.8781    3.1427    7.9736 H         1 RES1    0.0000
     27 O3        10.2164    5.4012   -0.5820 O.2       1 RES1    0.0000
     28 C14        5.8265   -0.4782    6.1143 C.ar      1 RES1    0.0000
     29 H10        6.5993   -0.5463    6.6285 H         1 RES1    0.0000
     30 N3        11.5925    4.0650    6.2772 N.1       1 RES1    1.0000
     31 N4        11.1877    4.5620    7.3179 N.2       1 RES1    0.0000
     32 C15        4.6023   -0.8256    6.6580 C.ar      1 RES1    0.0000
     33 H11        4.5545   -1.1256    7.5365 H         1 RES1    0.0000
     34 C16        9.4295    4.9307    8.9107 C.3       1 RES1    0.0000
     35 H12       10.1050    4.8441    9.6013 H         1 RES1    0.0000
     36 H13        9.3934    5.8630    8.6446 H         1 RES1    0.0000
     37 C17        4.7476    0.0580    4.0628 C.ar      1 RES1    0.0000
     38 H14        4.7831    0.3566    3.1831 H         1 RES1    0.0000
     39 C18        8.0967    4.5269    9.4744 C.3       1 RES1    0.0000
     40 H15        7.8854    5.0847   10.2269 H         1 RES1    0.0000
     41 H16        8.1330    3.6096    9.7560 H         1 RES1    0.0000
     42 H17        7.4212    4.6278    8.8009 H         1 RES1    0.0000
     43 C19        3.4668   -0.7289    5.9088 C.ar      1 RES1    0.0000
     44 H18        2.6453   -0.9602    6.2770 H         1 RES1    0.0000
     45 C20        3.5384   -0.2943    4.6181 C.ar      1 RES1    0.0000
     46 H19        2.7621   -0.2349    4.1079 H         1 RES1    0.0000
     47 N5        12.0300    3.6655    5.3120 N.2       1 RES1   -1.0000
@<TRIPOS>BOND
     1    1    2 1
     2    2   20 2
     3    3    8 ar
     4    4    1 ar
     5    5    4 1
     6    6   10 1
     7    7   19 2
     8    8    4 ar
     9    9    8 1
    10   10    3 1
    11   11   10 1
    12   12   10 1
    13   13    1 ar
    14   14   13 1
    15   15    6 2
    16   16   15 1
    17   17    3 ar
    18   18   17 1
    19   19    6 1
    20   21   12 1
    21   22   21 1
    22   23   21 1
    23   24   21 1
    24   25   15 1
    25   26   25 1
    26   27    2 2
    27   28   24 ar
    28   29   28 1
    29   30   31 2
    30   31   25 1
    31   32   28 ar
    32   33   32 1
    33   34   25 1
    34   35   34 1
    35   36   34 1
    36   37   24 ar
    37   38   37 1
    38   39   34 1
    39   40   39 1
    40   41   39 1
    41   42   39 1
    42   43   32 ar
    43   44   43 1
    44   45   37 ar
    45   46   45 1
    46   47   30 2
    47   12   19 1
    48   13   17 ar
    49   43   45 ar
@<TRIPOS>SUBSTRUCTURE
     1 RES1 1

@<TRIPOS>CRYSIN
  15.8947    7.1605   17.1209  90.0000 100.8480  90.0000 231 1

