# MOL2 file generated by ConQuest
# Please check atom types

@<TRIPOS>MOLECULE
FOKSAA
   120   126     1
SMALL
NO_CHARGES
****
Generated from CSD

@<TRIPOS>ATOM
      1 O1         6.2988    8.5612   22.9925 O.2       1 RES1    0.0000
      2 O2         5.7383    6.8059   24.0765 O.2       1 RES1    0.0000
      3 O3        -7.9229   -2.3007   11.6221 O.2       1 RES1    0.0000
      4 O4        -7.3837   -3.8328   13.0321 O.2       1 RES1    0.0000
      5 O5         9.9178    3.9558    4.1774 O.2       1 RES1    0.0000
      6 O6         9.9813    5.8552    5.1934 O.2       1 RES1    0.0000
      7 N1         2.6744    3.5786   16.9270 N.ar      1 RES1    0.0000
      8 N2         4.7040    4.2932   15.9156 N.ar      1 RES1    0.0000
      9 N3         1.9952    4.3238   18.9874 N.3       1 RES1    0.0000
     10 N4         6.3268    5.4683   17.0751 N.3       1 RES1    0.0000
     11 N5         5.8412    7.4347   23.0469 N.pl3     1 RES1    0.0000
     12 N6        -0.4076    0.7769   14.3740 N.ar      1 RES1    0.0000
     13 N7         0.1275    0.2265   12.1263 N.ar      1 RES1    0.0000
     14 N8        -2.5082    0.5028   15.2483 N.3       1 RES1    0.0000
     15 N9        -1.2533   -1.0435   10.7861 N.3       1 RES1    0.0000
     16 N10       -7.1339   -2.8333   12.3814 N.pl3     1 RES1    0.0000
     17 N11        4.4594    1.6140   10.2501 N.ar      1 RES1    0.0000
     18 N12        6.0622    2.5352   11.7399 N.ar      1 RES1    0.0000
     19 N13        4.7696    1.5877    7.9553 N.3       1 RES1    0.0000
     20 N14        8.1766    3.1015   11.0987 N.3       1 RES1    0.0000
     21 N15        9.6465    4.6868    5.1091 N.pl3     1 RES1    0.0000
     22 C1         3.9019    1.9588   12.5693 C.ar      1 RES1    0.0000
     23 C2         4.1660    2.6948   13.7076 C.ar      1 RES1    0.0000
     24 H1         4.9848    3.1265   13.7899 H         1 RES1    0.0000
     25 C3         3.2340    2.8074   14.7309 C.ar      1 RES1    0.0000
     26 C4         2.0227    2.1457   14.5944 C.ar      1 RES1    0.0000
     27 H2         1.3896    2.2141   15.2730 H         1 RES1    0.0000
     28 C5         1.7351    1.3835   13.4736 C.ar      1 RES1    0.0000
     29 C6         2.6872    1.2919   12.4637 C.ar      1 RES1    0.0000
     30 H3         2.5077    0.7789   11.7090 H         1 RES1    0.0000
     31 C7         3.5540    3.6200   15.9314 C.ar      1 RES1    0.0000
     32 C8         2.9747    4.2991   18.0216 C.ar      1 RES1    0.0000
     33 C9         4.2095    4.9468   18.1800 C.ar      1 RES1    0.0000
     34 C10        5.0561    4.8915   17.0542 C.ar      1 RES1    0.0000
     35 C11        0.8892    3.3850   18.8726 C.3       1 RES1    0.0000
     36 H4         0.2553    3.7131   18.2313 H         1 RES1    0.0000
     37 H5         0.4607    3.2887   19.7268 H         1 RES1    0.0000
     38 H6         1.2220    2.5309   18.5854 H         1 RES1    0.0000
     39 C12        1.6320    5.5316   19.6786 C.3       1 RES1    0.0000
     40 H7         1.7921    5.4218   20.6197 H         1 RES1    0.0000
     41 H8         0.7015    5.7175   19.5326 H         1 RES1    0.0000
     42 H9         2.1607    6.2617   19.3478 H         1 RES1    0.0000
     43 C13        6.9475    5.7073   15.7730 C.3       1 RES1    0.0000
     44 H10        7.2675    4.8765   15.4143 H         1 RES1    0.0000
     45 H11        7.6834    6.3152   15.8755 H         1 RES1    0.0000
     46 H12        6.3004    6.0860   15.1736 H         1 RES1    0.0000
     47 C14        7.2544    4.9157   18.0449 C.3       1 RES1    0.0000
     48 H13        7.8664    5.5994   18.3276 H         1 RES1    0.0000
     49 H14        7.7438    4.1941   17.6443 H         1 RES1    0.0000
     50 H15        6.7667    4.5883   18.8043 H         1 RES1    0.0000
     51 C15        4.6267    5.5975   19.4441 C.ar      1 RES1    0.0000
     52 C16        4.5314    4.9206   20.6554 C.ar      1 RES1    0.0000
     53 H16        4.2111    4.0478   20.6694 H         1 RES1    0.0000
     54 C17        4.9093    5.5281   21.8356 C.ar      1 RES1    0.0000
     55 H17        4.8426    5.0730   22.6447 H         1 RES1    0.0000
     56 C18        5.3834    6.8173   21.7968 C.ar      1 RES1    0.0000
     57 C19        5.4662    7.5265   20.6321 C.ar      1 RES1    0.0000
     58 H18        5.7662    8.4065   20.6321 H         1 RES1    0.0000
     59 C20        5.0946    6.9078   19.4550 C.ar      1 RES1    0.0000
     60 H19        5.1583    7.3760   18.6537 H         1 RES1    0.0000
     61 C21        0.3994    0.7522   13.3179 C.ar      1 RES1    0.0000
     62 C22       -1.6547    0.2907   14.1937 C.ar      1 RES1    0.0000
     63 C23       -2.0295   -0.3776   13.0150 C.ar      1 RES1    0.0000
     64 C24       -1.0543   -0.4007   11.9917 C.ar      1 RES1    0.0000
     65 C25       -3.9210    0.8333   15.0664 C.3       1 RES1    0.0000
     66 H20       -4.1122    1.6696   15.4982 H         1 RES1    0.0000
     67 H21       -4.4642    0.1430   15.4531 H         1 RES1    0.0000
     68 H22       -4.1150    0.9057   14.1285 H         1 RES1    0.0000
     69 C26       -1.9592    0.9379   16.5231 C.3       1 RES1    0.0000
     70 H23       -2.5901    0.7527   17.2234 H         1 RES1    0.0000
     71 H24       -1.7853    1.8810   16.4905 H         1 RES1    0.0000
     72 H25       -1.1404    0.4675   16.6970 H         1 RES1    0.0000
     73 C27       -0.3141   -0.7478    9.7182 C.3       1 RES1    0.0000
     74 H26       -0.6189   -1.1545    8.9044 H         1 RES1    0.0000
     75 H27        0.5508   -1.0970    9.9465 H         1 RES1    0.0000
     76 H28       -0.2548    0.2031    9.6002 H         1 RES1    0.0000
     77 C28       -1.6913   -2.4341   10.7819 C.3       1 RES1    0.0000
     78 H29       -1.0511   -2.9698   10.3083 H         1 RES1    0.0000
     79 H30       -2.5452   -2.4991   10.3487 H         1 RES1    0.0000
     80 H31       -1.7653   -2.7490   11.6857 H         1 RES1    0.0000
     81 C29       -3.3549   -1.0247   12.8489 C.ar      1 RES1    0.0000
     82 C30       -3.7935   -1.9862   13.7449 C.ar      1 RES1    0.0000
     83 H32       -3.2505   -2.2317   14.4592 H         1 RES1    0.0000
     84 C31        4.8717    2.0218   11.4450 C.ar      1 RES1    0.0000
     85 C32       -5.0304   -2.5857   13.5865 C.ar      1 RES1    0.0000
     86 H33       -5.3141   -3.2384   14.1859 H         1 RES1    0.0000
     87 C33        5.2699    1.9155    9.2104 C.ar      1 RES1    0.0000
     88 C34       -5.8233   -2.2201   12.5585 C.ar      1 RES1    0.0000
     89 C35        6.5257    2.5238    9.3796 C.ar      1 RES1    0.0000
     90 C36       -5.4336   -1.2667   11.6438 C.ar      1 RES1    0.0000
     91 H34       -5.9960   -1.0197   10.9450 H         1 RES1    0.0000
     92 C37        6.9190    2.7226   10.7198 C.ar      1 RES1    0.0000
     93 C38       -4.1825   -0.6840   11.7867 C.ar      1 RES1    0.0000
     94 H35       -3.8945   -0.0584   11.1624 H         1 RES1    0.0000
     95 C39        3.6681    0.6162    7.9261 C.3       1 RES1    0.0000
     96 H36        3.5615    0.2788    7.0347 H         1 RES1    0.0000
     97 H37        2.8551    1.0455    8.2041 H         1 RES1    0.0000
     98 H38        3.8653   -0.1092    8.5224 H         1 RES1    0.0000
     99 C40        4.5791    2.6459    6.9649 C.3       1 RES1    0.0000
    100 H39        3.6661    2.9393    6.9819 H         1 RES1    0.0000
    101 H40        4.7905    2.3071    6.0921 H         1 RES1    0.0000
    102 H41        5.1572    3.3836    7.1714 H         1 RES1    0.0000
    103 C41        8.4261    3.5330   12.4575 C.3       1 RES1    0.0000
    104 H42        9.1639    4.1464   12.4684 H         1 RES1    0.0000
    105 H43        8.6345    2.7715   13.0026 H         1 RES1    0.0000
    106 H44        7.6431    3.9696   12.8038 H         1 RES1    0.0000
    107 C42        9.3719    2.8184   10.3269 C.3       1 RES1    0.0000
    108 H45       10.0501    2.4620   10.9062 H         1 RES1    0.0000
    109 H46        9.6900    3.6285    9.9216 H         1 RES1    0.0000
    110 H47        9.1661    2.1775    9.6421 H         1 RES1    0.0000
    111 C43        7.3318    3.0484    8.2522 C.ar      1 RES1    0.0000
    112 C44        7.7599    2.2497    7.1962 C.ar      1 RES1    0.0000
    113 H48        7.5368    1.3473    7.1823 H         1 RES1    0.0000
    114 C45        8.5132    2.7862    6.1666 C.ar      1 RES1    0.0000
    115 H49        8.7929    2.2517    5.4585 H         1 RES1    0.0000
    116 C46        8.8412    4.1135    6.2070 C.ar      1 RES1    0.0000
    117 C47        8.4403    4.9280    7.2180 C.ar      1 RES1    0.0000
    118 H50        8.6687    5.8298    7.2211 H         1 RES1    0.0000
    119 C48        7.6873    4.3921    8.2398 C.ar      1 RES1    0.0000
    120 H51        7.4102    4.9411    8.9371 H         1 RES1    0.0000
@<TRIPOS>BOND
     1    1   11 2
     2    2   11 2
     3    3   16 2
     4    4   16 2
     5    5   21 2
     6    6   21 2
     7    7   31 ar
     8    8   31 ar
     9    9   32 1
    10   10   34 1
    11   11   56 1
    12   12   61 ar
    13   13   61 ar
    14   14   62 1
    15   15   64 1
    16   16   88 1
    17   17   84 ar
    18   18   84 ar
    19   19   87 1
    20   20   92 1
    21   21  116 1
    22   22   23 ar
    23   23   24 1
    24   25   23 ar
    25   26   25 ar
    26   27   26 1
    27   28   26 ar
    28   29   22 ar
    29   30   29 1
    30   31   25 1
    31   32    7 ar
    32   33   32 ar
    33   34    8 ar
    34   35    9 1
    35   36   35 1
    36   37   35 1
    37   38   35 1
    38   39    9 1
    39   40   39 1
    40   41   39 1
    41   42   39 1
    42   43   10 1
    43   44   43 1
    44   45   43 1
    45   46   43 1
    46   47   10 1
    47   48   47 1
    48   49   47 1
    49   50   47 1
    50   51   33 1
    51   52   51 ar
    52   53   52 1
    53   54   52 ar
    54   55   54 1
    55   56   54 ar
    56   57   56 ar
    57   58   57 1
    58   59   51 ar
    59   60   59 1
    60   61   28 1
    61   62   12 ar
    62   63   62 ar
    63   64   13 ar
    64   65   14 1
    65   66   65 1
    66   67   65 1
    67   68   65 1
    68   69   14 1
    69   70   69 1
    70   71   69 1
    71   72   69 1
    72   73   15 1
    73   74   73 1
    74   75   73 1
    75   76   73 1
    76   77   15 1
    77   78   77 1
    78   79   77 1
    79   80   77 1
    80   81   63 1
    81   82   81 ar
    82   83   82 1
    83   84   22 1
    84   85   82 ar
    85   86   85 1
    86   87   17 ar
    87   88   85 ar
    88   89   87 ar
    89   90   88 ar
    90   91   90 1
    91   92   18 ar
    92   93   81 ar
    93   94   93 1
    94   95   19 1
    95   96   95 1
    96   97   95 1
    97   98   95 1
    98   99   19 1
    99  100   99 1
   100  101   99 1
   101  102   99 1
   102  103   20 1
   103  104  103 1
   104  105  103 1
   105  106  103 1
   106  107   20 1
   107  108  107 1
   108  109  107 1
   109  110  107 1
   110  111   89 1
   111  112  111 ar
   112  113  112 1
   113  114  112 ar
   114  115  114 1
   115  116  114 ar
   116  117  116 ar
   117  118  117 1
   118  119  111 ar
   119  120  119 1
   120   28   29 ar
   121   33   34 ar
   122   57   59 ar
   123   63   64 ar
   124   89   92 ar
   125   90   93 ar
   126  117  119 ar
@<TRIPOS>SUBSTRUCTURE
     1 RES1 1

@<TRIPOS>CRYSIN
  11.2345   13.9990   15.5967  93.6900  93.1180 100.3420   2 1

