# MOL2 file generated by ConQuest
# Please check atom types

@<TRIPOS>MOLECULE
FOKTOO
    74    78     2
SMALL
NO_CHARGES
****
Generated from CSD

@<TRIPOS>ATOM
      1 N1        -0.6062   -1.9369    2.5954 N.3       1 RES1    0.0000
      2 C1         0.5629   -1.2697    3.1443 C.3       1 RES1    0.0000
      3 N2         0.7468   -1.5056    4.5857 N.am      1 RES1    0.0000
      4 C2         0.2602   -2.5701    5.2444 C.2       1 RES1    0.0000
      5 C3        -0.7743   -3.4246    4.5600 C.3       1 RES1    0.0000
      6 C4        -2.1551   -3.0127    5.1019 C.3       1 RES1    0.0000
      7 C5        -3.2588   -3.8350    4.4478 C.3       1 RES1    0.0000
      8 C6        -3.2192   -3.6670    2.9411 C.3       1 RES1    0.0000
      9 C7        -1.8584   -4.0627    2.3688 C.3       1 RES1    0.0000
     10 C8        -0.6966   -3.3390    3.0369 C.3       1 RES1    0.0000
     11 C9         0.5002    0.2035    2.8056 C.ar      1 RES1    0.0000
     12 C10        0.2281    1.1954    3.7494 C.ar      1 RES1    0.0000
     13 C11        0.1460    2.5281    3.3592 C.ar      1 RES1    0.0000
     14 C12        0.3187    2.8318    2.0300 C.ar      1 RES1    0.0000
     15 C13        0.5962    1.8771    1.0676 C.ar      1 RES1    0.0000
     16 C14        0.7034    0.5622    1.4834 C.ar      1 RES1    0.0000
     17 O1         0.6040   -2.8253    6.3961 O.2       1 RES1    0.0000
     18 N3         0.2141    4.2356    1.6002 N.pl3     1 RES1    0.0000
     19 O2         0.2377    5.0982    2.4715 O.2       1 RES1    0.0000
     20 O3         0.0847    4.3971    0.4275 O.2       1 RES1    0.0000
     21 N4         3.6584    9.3467   21.5734 N.3       2 RES2    0.0000
     22 C15        2.4678    9.9476   20.9988 C.3       2 RES2    0.0000
     23 N5         2.1511    9.4452   19.6485 N.am      2 RES2    0.0000
     24 C16        2.6252    8.3242   19.0902 C.2       2 RES2    0.0000
     25 C17        3.6943    7.5714   19.8448 C.3       2 RES2    0.0000
     26 C18        5.0620    7.8428   19.1953 C.3       2 RES2    0.0000
     27 C19        6.1681    7.1061   19.9522 C.3       2 RES2    0.0000
     28 C20        6.1940    7.5019   21.4099 C.3       2 RES2    0.0000
     29 C21        4.8473    7.2402   22.0734 C.3       2 RES2    0.0000
     30 C22        3.6905    7.8961   21.3445 C.3       2 RES2    0.0000
     31 C23        2.5832   11.4548   21.0011 C.ar      2 RES2    0.0000
     32 C24        2.7385   12.1930   19.8237 C.ar      2 RES2    0.0000
     33 C25        2.7800   13.5774   19.8471 C.ar      2 RES2    0.0000
     34 C26        2.6472   14.2042   21.0665 C.ar      2 RES2    0.0000
     35 C27        2.5359   13.5177   22.2509 C.ar      2 RES2    0.0000
     36 C28        2.5063   12.1349   22.2088 C.ar      2 RES2    0.0000
     37 O4         2.2294    7.9300   17.9899 O.2       2 RES2    0.0000
     38 N6         2.5867   15.6661   21.0875 N.pl3     2 RES2    0.0000
     39 O5         2.7600   16.2719   20.0457 O.2       2 RES2    0.0000
     40 O6         2.3228   16.2267   22.1341 O.2       2 RES2    0.0000
     41 H1         1.4081   -1.6800    2.6865 H         1 RES1    0.0000
     42 H2        -0.5865   -4.3293    4.8590 H         1 RES1    0.0000
     43 H3        -2.2938   -2.0516    4.9758 H         1 RES1    0.0000
     44 H4        -2.1421   -3.1177    6.0270 H         1 RES1    0.0000
     45 H5        -4.1300   -3.5054    4.8356 H         1 RES1    0.0000
     46 H6        -3.1145   -4.8300    4.7188 H         1 RES1    0.0000
     47 H7        -3.3702   -2.7139    2.7098 H         1 RES1    0.0000
     48 H8        -3.9425   -4.2162    2.4996 H         1 RES1    0.0000
     49 H9        -1.8028   -3.8931    1.3549 H         1 RES1    0.0000
     50 H10       -1.7313   -4.9916    2.4762 H         1 RES1    0.0000
     51 H11        0.1228   -3.7639    2.7565 H         1 RES1    0.0000
     52 H12        0.0582    1.0177    4.7422 H         1 RES1    0.0000
     53 H13       -0.0661    3.1823    4.0180 H         1 RES1    0.0000
     54 H14        0.7589    2.1000    0.1635 H         1 RES1    0.0000
     55 H15        0.9699   -0.1454    0.8410 H         1 RES1    0.0000
     56 H16       -1.3201   -1.4700    2.8500 H         1 RES1    0.0000
     57 H17        1.3680   -1.0339    5.1160 H         1 RES1    0.0000
     58 H18        1.5983    9.7247   21.6552 H         2 RES2    0.0000
     59 H19        3.5086    6.6716   19.7163 H         2 RES2    0.0000
     60 H20        5.0302    7.5762   18.1978 H         2 RES2    0.0000
     61 H21        5.2336    8.8039   19.1790 H         2 RES2    0.0000
     62 H22        5.9854    6.1870   19.9032 H         2 RES2    0.0000
     63 H23        7.0158    7.3016   19.4827 H         2 RES2    0.0000
     64 H24        6.9472    6.9624   21.9122 H         2 RES2    0.0000
     65 H25        6.3796    8.4001   21.5150 H         2 RES2    0.0000
     66 H26        4.6670    6.2516   22.1224 H         2 RES2    0.0000
     67 H27        4.8514    7.5439   23.0101 H         2 RES2    0.0000
     68 H28        2.8801    7.5439   21.7253 H         2 RES2    0.0000
     69 H29        2.7716   11.7440   18.9687 H         2 RES2    0.0000
     70 H30        3.0057   14.0863   19.0155 H         2 RES2    0.0000
     71 H31        2.4179   13.9894   23.0802 H         2 RES2    0.0000
     72 H32        2.3561   11.6147   22.9867 H         2 RES2    0.0000
     73 H33        4.3906    9.7570   21.2113 H         2 RES2    0.0000
     74 H34        1.5130    9.9347   19.1089 H         2 RES2    0.0000
@<TRIPOS>BOND
     1    1    2 1
     2    2    3 1
     3    3    4 1
     4    4    5 1
     5    5    6 1
     6    6    7 1
     7    7    8 1
     8    8    9 1
     9    9   10 1
    10   10    1 1
    11   11    2 1
    12   12   11 ar
    13   13   12 ar
    14   14   13 ar
    15   15   14 ar
    16   16   11 ar
    17   17    4 2
    18   18   14 1
    19   19   18 2
    20   20   18 2
    21   21   22 1
    22   22   23 1
    23   23   24 1
    24   24   25 1
    25   25   26 1
    26   26   27 1
    27   27   28 1
    28   28   29 1
    29   29   30 1
    30   30   21 1
    31   31   22 1
    32   32   31 ar
    33   33   32 ar
    34   34   33 ar
    35   35   34 ar
    36   36   31 ar
    37   37   24 2
    38   38   34 1
    39   39   38 2
    40   40   38 2
    41   41    2 1
    42   42    5 1
    43   43    6 1
    44   44    6 1
    45   45    7 1
    46   46    7 1
    47   47    8 1
    48   48    8 1
    49   49    9 1
    50   50    9 1
    51   51   10 1
    52   52   12 1
    53   53   13 1
    54   54   15 1
    55   55   16 1
    56   56    1 1
    57   57    3 1
    58   58   22 1
    59   59   25 1
    60   60   26 1
    61   61   26 1
    62   62   27 1
    63   63   27 1
    64   64   28 1
    65   65   28 1
    66   66   29 1
    67   67   29 1
    68   68   30 1
    69   69   32 1
    70   70   33 1
    71   71   35 1
    72   72   36 1
    73   73   21 1
    74   74   23 1
    75    5   10 1
    76   15   16 ar
    77   25   30 1
    78   35   36 ar
@<TRIPOS>SUBSTRUCTURE
     1 RES1 1
     2 RES2 21

@<TRIPOS>CRYSIN
   7.1310   16.1540   23.3680  90.0000  91.4500  90.0000  14 1

