# MOL2 file generated by ConQuest
# Please check atom types

@<TRIPOS>MOLECULE
FOLGAQ
   100   104     2
SMALL
NO_CHARGES
****
Generated from CSD

@<TRIPOS>ATOM
      1 C1         0.9789    5.5306   -1.0651 C.3       1 RES1    0.0000
      2 H1         1.7376    5.0770   -1.4897 H         1 RES1    0.0000
      3 H2         1.0363    6.4944   -1.2367 H         1 RES1    0.0000
      4 H3         0.1409    5.1823   -1.4356 H         1 RES1    0.0000
      5 O1         0.8541   -1.8525    4.1948 O.3       1 RES1    0.0000
      6 O2         3.1580    3.2901    0.4849 O.2       1 RES1    0.0000
      7 O3         1.7224    2.3090   -0.7891 O.2       1 RES1    0.0000
      8 N1         2.0107    3.0663    0.1312 N.pl3     1 RES1    0.0000
      9 C2         1.0344    2.0856    2.7540 C.ar      1 RES1    0.0000
     10 C3         1.5284    1.7414    4.0652 C.ar      1 RES1    0.0000
     11 C4         0.4370   -0.2623    2.4117 C.ar      1 RES1    0.0000
     12 H4         0.0745   -0.9274    1.8388 H         1 RES1    0.0000
     13 C5        -0.1264    4.2751    3.0876 C.ar      1 RES1    0.0000
     14 C6         2.0820    2.7002    4.9490 C.ar      1 RES1    0.0000
     15 H5         2.1367    3.6081    4.6735 H         1 RES1    0.0000
     16 C7         0.8889    3.8057    0.8319 C.3       1 RES1    0.0000
     17 H6         0.0106    3.4536    0.5074 H         1 RES1    0.0000
     18 C8         1.0035    3.5560    2.3500 C.3       1 RES1    0.0000
     19 H7         1.8638    3.9649    2.6534 H         1 RES1    0.0000
     20 C9         2.5405    2.3477    6.1934 C.ar      1 RES1    0.0000
     21 H8         2.9088    3.0110    6.7654 H         1 RES1    0.0000
     22 C10        0.8929   -0.5989    3.6579 C.ar      1 RES1    0.0000
     23 C11        1.9333    0.0607    5.8101 C.ar      1 RES1    0.0000
     24 H9         1.8825   -0.8387    6.1105 H         1 RES1    0.0000
     25 C12        1.4518    0.3946    4.5175 C.ar      1 RES1    0.0000
     26 C13        0.0417    5.5558    3.5886 C.ar      1 RES1    0.0000
     27 H10        0.8610    6.0095    3.4300 H         1 RES1    0.0000
     28 C14        0.5098    1.0867    1.9817 C.ar      1 RES1    0.0000
     29 H11        0.1789    1.3066    1.1190 H         1 RES1    0.0000
     30 O4        -3.1910    6.0499    5.2831 O.3       1 RES1    0.0000
     31 C15        2.4688    1.0136    6.6286 C.ar      1 RES1    0.0000
     32 H12        2.7919    0.7752    7.4893 H         1 RES1    0.0000
     33 C16       -0.9555    6.1966    4.3183 C.ar      1 RES1    0.0000
     34 H13       -0.8177    7.0765    4.6492 H         1 RES1    0.0000
     35 C17       -2.3327    4.2535    4.0736 C.ar      1 RES1    0.0000
     36 H14       -3.1460    3.7943    4.2486 H         1 RES1    0.0000
     37 C18       -1.3423    3.6380    3.3394 C.ar      1 RES1    0.0000
     38 H15       -1.4898    2.7637    2.9984 H         1 RES1    0.0000
     39 C19        1.0134    5.2782    0.4403 C.3       1 RES1    0.0000
     40 H16        0.2743    5.7836    0.8633 H         1 RES1    0.0000
     41 H17        1.8641    5.6319    0.8024 H         1 RES1    0.0000
     42 C20       -2.1499    5.5405    4.5581 C.ar      1 RES1    0.0000
     43 C21        0.3182   -2.8964    3.3809 C.3       1 RES1    0.0000
     44 H18       -0.6218   -2.7040    3.1797 H         1 RES1    0.0000
     45 H19        0.3831   -3.7494    3.8590 H         1 RES1    0.0000
     46 H20        0.8259   -2.9514    2.5451 H         1 RES1    0.0000
     47 C22       -3.0284    7.3508    5.8470 C.3       1 RES1    0.0000
     48 H21       -2.1979    7.3799    6.3662 H         1 RES1    0.0000
     49 H22       -3.7874    7.5492    6.4339 H         1 RES1    0.0000
     50 H23       -2.9882    8.0157    5.1281 H         1 RES1    0.0000
     51 O5         6.2443   14.1328    5.2513 O.3       2 RES2    0.0000
     52 O6         4.2354    5.0267    4.0128 O.3       2 RES2    0.0000
     53 N2         2.1118    9.5618    0.2641 N.pl3     2 RES2    0.0000
     54 O7         0.9512    9.4905    0.6504 O.2       2 RES2    0.0000
     55 C23        2.0210    9.1560    4.8941 C.ar      2 RES2    0.0000
     56 H24        1.8008   10.0524    4.6667 H         2 RES2    0.0000
     57 C24        5.3344   11.2054    3.1939 C.ar      2 RES2    0.0000
     58 H25        5.7366   10.4567    2.7697 H         2 RES2    0.0000
     59 C25        2.8653    8.4131    4.0307 C.ar      2 RES2    0.0000
     60 C26        3.0436   10.3645    2.4068 C.3       2 RES2    0.0000
     61 H26        2.1173   10.5375    2.7400 H         2 RES2    0.0000
     62 O8         2.5743    8.8577   -0.6253 O.2       2 RES2    0.0000
     63 C27        3.3864    8.9459    2.8049 C.ar      2 RES2    0.0000
     64 C28        6.1369   12.1084    3.8847 C.ar      2 RES2    0.0000
     65 H27        7.0769   11.9773    3.9212 H         2 RES2    0.0000
     66 C29        3.1864    7.0831    4.4162 C.ar      2 RES2    0.0000
     67 C30        5.5622   13.2008    4.5193 C.ar      2 RES2    0.0000
     68 C31        4.2032    8.1357    2.0414 C.ar      2 RES2    0.0000
     69 H28        4.5606    8.4857    1.2340 H         2 RES2    0.0000
     70 C32        3.9557   11.3741    3.1096 C.ar      2 RES2    0.0000
     71 C33        3.4042   12.4861    3.7379 C.ar      2 RES2    0.0000
     72 H29        2.4666   12.6299    3.6844 H         2 RES2    0.0000
     73 C34        4.1822   13.3856    4.4365 C.ar      2 RES2    0.0000
     74 H30        3.7774   14.1318    4.8616 H         2 RES2    0.0000
     75 C35        4.0226    6.2927    3.5694 C.ar      2 RES2    0.0000
     76 C36        4.5317    6.8112    2.4045 C.ar      2 RES2    0.0000
     77 H31        5.0975    6.2857    1.8510 H         2 RES2    0.0000
     78 C37        1.8328    7.2979    6.4134 C.ar      2 RES2    0.0000
     79 H32        1.4806    6.9313    7.2159 H         2 RES2    0.0000
     80 C38        1.5139    8.6174    6.0467 C.ar      2 RES2    0.0000
     81 H33        0.9439    9.1378    6.6003 H         2 RES2    0.0000
     82 C39        2.6479    6.5409    5.6189 C.ar      2 RES2    0.0000
     83 H34        2.8563    5.6494    5.8696 H         2 RES2    0.0000
     84 C40        2.4781   11.9657    0.4989 C.3       2 RES2    0.0000
     85 H35        3.1125   12.6561    0.8159 H         2 RES2    0.0000
     86 H36        1.6202   12.1114    0.9702 H         2 RES2    0.0000
     87 C41        3.0144   10.6053    0.8887 C.3       2 RES2    0.0000
     88 H37        3.9397   10.4999    0.5223 H         2 RES2    0.0000
     89 C42        5.0472    4.1749    3.2011 C.3       2 RES2    0.0000
     90 H38        4.6244    4.0588    2.3246 H         2 RES2    0.0000
     91 H39        5.1407    3.3019    3.6357 H         2 RES2    0.0000
     92 H40        5.9324    4.5789    3.0864 H         2 RES2    0.0000
     93 C43        7.6362   13.9032    5.4651 C.3       2 RES2    0.0000
     94 H41        7.7607   13.0368    5.9062 H         2 RES2    0.0000
     95 H42        8.0005   14.6141    6.0334 H         2 RES2    0.0000
     96 H43        8.1031   13.9017    4.6032 H         2 RES2    0.0000
     97 C44        2.2506   12.1692   -0.9850 C.3       2 RES2    0.0000
     98 H44        3.0868   12.0034   -1.4694 H         2 RES2    0.0000
     99 H45        1.9557   13.0903   -1.1474 H         2 RES2    0.0000
    100 H46        1.5629   11.5459   -1.2989 H         2 RES2    0.0000
@<TRIPOS>BOND
     1    1    2 1
     2    3    1 1
     3    4    1 1
     4    5   22 1
     5    6    8 2
     6    7    8 2
     7    8   16 1
     8    9   10 ar
     9   10   14 ar
    10   11   12 1
    11   13   18 1
    12   14   15 1
    13   16   17 1
    14   18    9 1
    15   19   18 1
    16   20   14 ar
    17   21   20 1
    18   22   11 ar
    19   23   24 1
    20   25   10 ar
    21   26   13 ar
    22   27   26 1
    23   28    9 ar
    24   29   28 1
    25   30   42 1
    26   31   20 ar
    27   32   31 1
    28   33   26 ar
    29   34   33 1
    30   35   36 1
    31   37   13 ar
    32   38   37 1
    33   39    1 1
    34   40   39 1
    35   41   39 1
    36   42   33 ar
    37   43    5 1
    38   44   43 1
    39   45   43 1
    40   46   43 1
    41   47   30 1
    42   48   47 1
    43   49   47 1
    44   50   47 1
    45   51   67 1
    46   52   75 1
    47   53   54 2
    48   55   56 1
    49   57   58 1
    50   59   55 ar
    51   60   61 1
    52   62   53 2
    53   63   59 ar
    54   64   57 ar
    55   65   64 1
    56   66   59 ar
    57   67   64 ar
    58   68   63 ar
    59   69   68 1
    60   70   57 ar
    61   71   70 ar
    62   72   71 1
    63   73   67 ar
    64   74   73 1
    65   75   66 ar
    66   76   68 ar
    67   77   76 1
    68   78   79 1
    69   80   55 ar
    70   81   80 1
    71   82   66 ar
    72   83   82 1
    73   84   85 1
    74   86   84 1
    75   87   53 1
    76   88   87 1
    77   89   52 1
    78   90   89 1
    79   91   89 1
    80   92   89 1
    81   93   51 1
    82   94   93 1
    83   95   93 1
    84   96   93 1
    85   97   84 1
    86   98   97 1
    87   99   97 1
    88  100   97 1
    89   11   28 ar
    90   16   18 1
    91   16   39 1
    92   22   25 ar
    93   23   25 ar
    94   23   31 ar
    95   35   37 ar
    96   35   42 ar
    97   60   63 1
    98   60   70 1
    99   60   87 1
   100   71   73 ar
   101   75   76 ar
   102   78   80 ar
   103   78   82 ar
   104   84   87 1
@<TRIPOS>SUBSTRUCTURE
     1 RES1 1
     2 RES2 51

@<TRIPOS>CRYSIN
  10.8942   13.1866   13.7843  95.4640  98.8870  96.0730   2 1

