# MOL2 file generated by ConQuest
# Please check atom types

@<TRIPOS>MOLECULE
FOLHEV
    47    50     1
SMALL
NO_CHARGES
****
Generated from CSD

@<TRIPOS>ATOM
      1 O1        -3.7971   -2.4059    6.7607 O.2       1 RES1    0.0000
      2 O2         4.1109    2.3776   12.5578 O.2       1 RES1    0.0000
      3 O3         0.4147    2.8734   12.5393 O.3       1 RES1    0.0000
      4 H1        -0.0576    2.6758   13.2057 H         1 RES1    0.0000
      5 O4        -0.2933    2.9473    9.1226 O.2       1 RES1    0.0000
      6 O5        -1.7507    3.2201   10.6728 O.2       1 RES1    0.0000
      7 N1        -0.8466    2.5949   10.1572 N.pl3     1 RES1    0.0000
      8 C1        -2.9782   -1.7434    7.3931 C.2       1 RES1    0.0000
      9 C2        -1.5746   -1.7051    7.0190 C.2       1 RES1    0.0000
     10 H2        -1.2705   -2.2518    6.3049 H         1 RES1    0.0000
     11 C3        -0.7027   -0.9203    7.6549 C.2       1 RES1    0.0000
     12 H3         0.2015   -0.9258    7.3626 H         1 RES1    0.0000
     13 C4        -1.0680   -0.0326    8.8023 C.3       1 RES1    0.0000
     14 H4        -1.3451    0.8469    8.4137 H         1 RES1    0.0000
     15 C5        -2.2787   -0.5945    9.5412 C.3       1 RES1    0.0000
     16 H5        -2.0047   -1.4569    9.9663 H         1 RES1    0.0000
     17 C6        -3.4056   -0.8969    8.5570 C.3       1 RES1    0.0000
     18 H6        -4.1353   -1.3617    9.0394 H         1 RES1    0.0000
     19 H7        -3.7682   -0.0422    8.2134 H         1 RES1    0.0000
     20 C7         0.0860    0.2555    9.7940 C.3       1 RES1    0.0000
     21 H8         0.2168   -0.5970   10.3007 H         1 RES1    0.0000
     22 C8         1.4469    0.5624    9.1648 C.3       1 RES1    0.0000
     23 H9         1.7239   -0.1990    8.5958 H         1 RES1    0.0000
     24 H10        1.3685    1.3628    8.5875 H         1 RES1    0.0000
     25 C9         2.5090    0.8094   10.2290 C.3       1 RES1    0.0000
     26 H11        3.3669    1.0242    9.7842 H         1 RES1    0.0000
     27 H12        2.6399   -0.0205   10.7526 H         1 RES1    0.0000
     28 C10        2.1421    1.9596   11.1949 C.3       1 RES1    0.0000
     29 C11        3.0511    1.8220   12.4217 C.2       1 RES1    0.0000
     30 C12        2.4015    0.9166   13.4280 C.3       1 RES1    0.0000
     31 H13        2.2962    1.3801   14.2965 H         1 RES1    0.0000
     32 H14        2.9476    0.1027   13.5665 H         1 RES1    0.0000
     33 C13        1.0383    0.5551   12.8435 C.3       1 RES1    0.0000
     34 H15        0.3455    0.5300   13.5500 H         1 RES1    0.0000
     35 H16        1.0698   -0.3255   12.3913 H         1 RES1    0.0000
     36 C14        0.7537    1.6867   11.8296 C.3       1 RES1    0.0000
     37 C15       -0.3872    1.2837   10.8443 C.3       1 RES1    0.0000
     38 C16       -1.6035    0.7278   11.5857 C.3       1 RES1    0.0000
     39 H17       -1.3280   -0.0703   12.1033 H         1 RES1    0.0000
     40 H18       -1.9282    1.4082   12.2274 H         1 RES1    0.0000
     41 C17       -2.7473    0.3420   10.6478 C.3       1 RES1    0.0000
     42 H19       -3.4623   -0.1006   11.1697 H         1 RES1    0.0000
     43 H20       -3.1285    1.1616   10.2427 H         1 RES1    0.0000
     44 C18        2.3574    3.3111   10.5372 C.3       1 RES1    0.0000
     45 H21        3.3174    3.5021   10.4894 H         1 RES1    0.0000
     46 H22        1.9120    4.0061   11.0654 H         1 RES1    0.0000
     47 H23        1.9822    3.2977    9.6320 H         1 RES1    0.0000
@<TRIPOS>BOND
     1    1    8 2
     2    2   29 2
     3    3    4 1
     4    5    7 2
     5    6    7 2
     6    7   37 1
     7    8    9 1
     8    9   10 1
     9   11    9 2
    10   12   11 1
    11   13   11 1
    12   14   13 1
    13   15   13 1
    14   16   15 1
    15   17    8 1
    16   18   17 1
    17   19   17 1
    18   20   13 1
    19   21   20 1
    20   22   20 1
    21   23   22 1
    22   24   22 1
    23   25   22 1
    24   26   25 1
    25   27   25 1
    26   28   25 1
    27   29   28 1
    28   30   29 1
    29   31   30 1
    30   32   30 1
    31   33   30 1
    32   34   33 1
    33   35   33 1
    34   36    3 1
    35   37   20 1
    36   38   37 1
    37   39   38 1
    38   40   38 1
    39   41   15 1
    40   42   41 1
    41   43   41 1
    42   44   28 1
    43   45   44 1
    44   46   44 1
    45   47   44 1
    46   15   17 1
    47   28   36 1
    48   33   36 1
    49   36   37 1
    50   38   41 1
@<TRIPOS>SUBSTRUCTURE
     1 RES1 1

@<TRIPOS>CRYSIN
   8.9976   10.8156   16.5526  90.0000  90.0000  90.0000  19 1

