# MOL2 file generated by ConQuest
# Please check atom types

@<TRIPOS>MOLECULE
FOLWOU
   118   124     2
SMALL
NO_CHARGES
****
Generated from CSD

@<TRIPOS>ATOM
      1 O1         8.7018    3.2522   45.4085 O.3       1 RES1    0.0000
      2 N1         7.9742    4.9356   35.2057 N.pl3     1 RES1    0.0000
      3 C1         7.5328    4.0238   45.1221 C.3       1 RES1    0.0000
      4 H1         7.1675    4.3963   45.9745 H         1 RES1    0.0000
      5 O2         5.8784    1.3771   46.3214 O.3       1 RES1    0.0000
      6 H2         5.8222    1.9828   46.9006 H         1 RES1    0.0000
      7 C2         6.5576    2.9916   44.5679 C.3       1 RES1    0.0000
      8 H3         6.7064    2.8470   43.5979 H         1 RES1    0.0000
      9 H4         5.6207    3.2766   44.7130 H         1 RES1    0.0000
     10 O3        10.4242    1.2532   46.5312 O.3       1 RES1    0.0000
     11 H5        11.0398    0.7330   46.2911 H         1 RES1    0.0000
     12 C3         6.8711    1.7277   45.3636 C.3       1 RES1    0.0000
     13 H6         6.9868    0.9665   44.7271 H         1 RES1    0.0000
     14 O4         9.9765    5.9604   41.2642 O.3       1 RES1    0.0000
     15 C4         8.2300    2.0413   46.0123 C.3       1 RES1    0.0000
     16 H7         8.1011    2.1895   46.9904 H         1 RES1    0.0000
     17 O5         8.6035    9.6052   42.2177 O.3       1 RES1    0.0000
     18 C5         9.2407    0.9518   45.8044 C.3       1 RES1    0.0000
     19 H8         8.8693    0.0880   46.1116 H         1 RES1    0.0000
     20 H9         9.4521    0.8708   44.8405 H         1 RES1    0.0000
     21 O6         7.8985    8.3593   40.4004 O.3       1 RES1    0.0000
     22 C6         7.8625    5.1569   44.1890 C.ar      1 RES1    0.0000
     23 C7         8.8227    4.9999   43.1863 C.ar      1 RES1    0.0000
     24 H10        9.3009    4.1829   43.1112 H         1 RES1    0.0000
     25 O7         7.6094    6.0231   34.7824 O.2       1 RES1    0.0000
     26 C8         9.0773    6.0415   42.3004 C.ar      1 RES1    0.0000
     27 O8         7.6362    3.8794   34.6983 O.2       1 RES1    0.0000
     28 C9         8.4135    7.2686   42.4270 C.ar      1 RES1    0.0000
     29 C10        7.4542    7.4040   43.4273 C.ar      1 RES1    0.0000
     30 H11        6.9840    8.2251   43.5128 H         1 RES1    0.0000
     31 C11        7.1743    6.3640   44.2967 C.ar      1 RES1    0.0000
     32 H12        6.5115    6.4729   44.9681 H         1 RES1    0.0000
     33 C12        8.7426    8.4124   41.5122 C.3       1 RES1    0.0000
     34 H13        9.6907    8.3227   41.2070 H         1 RES1    0.0000
     35 C13        8.9957   10.7214   41.3946 C.3       1 RES1    0.0000
     36 H14        9.9540   10.6424   41.1597 H         1 RES1    0.0000
     37 H15        8.8683   11.5658   41.8968 H         1 RES1    0.0000
     38 C14        8.1676   10.7457   40.1410 C.3       1 RES1    0.0000
     39 H16        7.2255   10.9543   40.3659 H         1 RES1    0.0000
     40 H17        8.5042   11.4481   39.5296 H         1 RES1    0.0000
     41 C15        8.2475    9.4069   39.4715 C.3       1 RES1    0.0000
     42 H18        7.6286    9.3849   38.6980 H         1 RES1    0.0000
     43 H19        9.1659    9.2586   39.1327 H         1 RES1    0.0000
     44 C16       10.6220    4.6968   41.0459 C.3       1 RES1    0.0000
     45 H20        9.9474    3.9790   40.9518 H         1 RES1    0.0000
     46 H21       11.2099    4.4757   41.8118 H         1 RES1    0.0000
     47 C17       11.4417    4.8232   39.7701 C.3       1 RES1    0.0000
     48 H22       11.9924    5.6451   39.8131 H         1 RES1    0.0000
     49 H23       12.0542    4.0489   39.6950 H         1 RES1    0.0000
     50 C18       10.5632    4.8797   38.5477 C.ar      1 RES1    0.0000
     51 C19       10.0923    6.0833   38.0374 C.ar      1 RES1    0.0000
     52 H24       10.3619    6.8987   38.4428 H         1 RES1    0.0000
     53 C20        9.2366    6.1154   36.9488 C.ar      1 RES1    0.0000
     54 H25        8.9206    6.9408   36.6001 H         1 RES1    0.0000
     55 C21        8.8549    4.9134   36.3799 C.ar      1 RES1    0.0000
     56 C22        9.2889    3.6941   36.8609 C.ar      1 RES1    0.0000
     57 H26        9.0005    2.8814   36.4631 H         1 RES1    0.0000
     58 C23       10.1577    3.6896   37.9420 C.ar      1 RES1    0.0000
     59 H27       10.4826    2.8613   38.2775 H         1 RES1    0.0000
     60 O9         2.2424    5.5293   45.8167 O.3       2 RES2    0.0000
     61 N2         2.8498    5.1194   35.0281 N.pl3     2 RES2    0.0000
     62 C24        3.2342    5.7735   44.8169 C.3       2 RES2    0.0000
     63 H28        4.1081    5.9676   45.2611 H         2 RES2    0.0000
     64 O10        2.6164    9.0233   45.5687 O.3       2 RES2    0.0000
     65 H29        3.4017    8.8624   45.8186 H         2 RES2    0.0000
     66 C25        2.7482    7.0302   44.1015 C.3       2 RES2    0.0000
     67 H30        2.1524    6.7982   43.3474 H         2 RES2    0.0000
     68 H31        3.5120    7.5581   43.7585 H         2 RES2    0.0000
     69 O11        0.3951    5.9432   48.1032 O.3       2 RES2    0.0000
     70 H32        0.6693    5.1628   47.9543 H         2 RES2    0.0000
     71 C26        1.9861    7.8098   45.1765 C.3       2 RES2    0.0000
     72 H33        1.0696    8.0174   44.8358 H         2 RES2    0.0000
     73 O12        5.2600    3.7588   40.8422 O.3       2 RES2    0.0000
     74 C27        1.8685    6.8024   46.3374 C.3       2 RES2    0.0000
     75 H34        2.5051    7.0614   47.0613 H         2 RES2    0.0000
     76 O13        3.6292    0.0995   41.7551 O.3       2 RES2    0.0000
     77 C28        0.4804    6.7108   46.9063 C.3       2 RES2    0.0000
     78 H35        0.1512    7.6260   47.0896 H         2 RES2    0.0000
     79 H36       -0.1160    6.3083   46.2250 H         2 RES2    0.0000
     80 O14        3.3384    1.5771   39.9964 O.3       2 RES2    0.0000
     81 C29        3.3931    4.5729   43.9248 C.ar      2 RES2    0.0000
     82 C30        4.2455    4.7237   42.8225 C.ar      2 RES2    0.0000
     83 H37        4.6918    5.5504   42.6812 H         2 RES2    0.0000
     84 O15        2.2602    4.0907   34.7337 O.2       2 RES2    0.0000
     85 C31        4.4399    3.6785   41.9422 C.ar      2 RES2    0.0000
     86 O16        2.6882    6.1669   34.4346 O.2       2 RES2    0.0000
     87 C32        3.7994    2.4424   42.1525 C.ar      2 RES2    0.0000
     88 C33        2.9741    2.3103   43.2619 C.ar      2 RES2    0.0000
     89 H38        2.5470    1.4775   43.4230 H         2 RES2    0.0000
     90 C34        2.7559    3.3655   44.1436 C.ar      2 RES2    0.0000
     91 H39        2.1752    3.2575   44.8878 H         2 RES2    0.0000
     92 C35        4.0413    1.3113   41.1928 C.3       2 RES2    0.0000
     93 H40        5.0198    1.2603   40.9896 H         2 RES2    0.0000
     94 C36        3.9369   -0.9920   40.8715 C.3       2 RES2    0.0000
     95 H41        3.6289   -1.8421   41.2731 H         2 RES2    0.0000
     96 H42        4.9171   -1.0488   40.7439 H         2 RES2    0.0000
     97 C37        3.2638   -0.7913   39.5405 C.3       2 RES2    0.0000
     98 H43        2.2817   -0.8536   39.6477 H         2 RES2    0.0000
     99 H44        3.5547   -1.4929   38.9059 H         2 RES2    0.0000
    100 C38        3.6413    0.5733   39.0103 C.3       2 RES2    0.0000
    101 H45        4.6081    0.5943   38.7972 H         2 RES2    0.0000
    102 H46        3.1383    0.7598   38.1782 H         2 RES2    0.0000
    103 C39        5.9608    5.0004   40.6542 C.3       2 RES2    0.0000
    104 H47        6.6189    5.1341   41.3818 H         2 RES2    0.0000
    105 H48        5.3231    5.7571   40.6636 H         2 RES2    0.0000
    106 C40        6.6698    4.9326   39.3113 C.3       2 RES2    0.0000
    107 H49        7.2977    5.6939   39.2319 H         2 RES2    0.0000
    108 H50        7.1970    4.0958   39.2603 H         2 RES2    0.0000
    109 C41        5.6898    4.9752   38.1650 C.ar      2 RES2    0.0000
    110 C42        5.0007    3.8337   37.7728 C.ar      2 RES2    0.0000
    111 H51        5.1814    3.0087   38.2066 H         2 RES2    0.0000
    112 C43        4.0567    3.8755   36.7607 C.ar      2 RES2    0.0000
    113 H52        3.5880    3.0910   36.5009 H         2 RES2    0.0000
    114 C44        3.8125    5.0796   36.1403 C.ar      2 RES2    0.0000
    115 C45        4.4593    6.2379   36.5089 C.ar      2 RES2    0.0000
    116 H53        4.2649    7.0605   36.0756 H         2 RES2    0.0000
    117 C46        5.3979    6.1783   37.5234 C.ar      2 RES2    0.0000
    118 H54        5.8517    6.9705   37.7861 H         2 RES2    0.0000
@<TRIPOS>BOND
     1    1    3 1
     2    2   25 2
     3    3    4 1
     4    5    6 1
     5    7    3 1
     6    8    7 1
     7    9    7 1
     8   10   11 1
     9   12    5 1
    10   13   12 1
    11   14   26 1
    12   15    1 1
    13   16   15 1
    14   17   33 1
    15   18   10 1
    16   19   18 1
    17   20   18 1
    18   21   33 1
    19   22    3 1
    20   23   22 ar
    21   24   23 1
    22   26   23 ar
    23   27    2 2
    24   28   26 ar
    25   29   28 ar
    26   30   29 1
    27   31   22 ar
    28   32   31 1
    29   33   28 1
    30   34   33 1
    31   35   17 1
    32   36   35 1
    33   37   35 1
    34   38   35 1
    35   39   38 1
    36   40   38 1
    37   41   21 1
    38   42   41 1
    39   43   41 1
    40   44   14 1
    41   45   44 1
    42   46   44 1
    43   47   44 1
    44   48   47 1
    45   49   47 1
    46   50   47 1
    47   51   50 ar
    48   52   51 1
    49   53   51 ar
    50   54   53 1
    51   55    2 1
    52   56   55 ar
    53   57   56 1
    54   58   50 ar
    55   59   58 1
    56   60   62 1
    57   61   84 2
    58   62   63 1
    59   64   65 1
    60   66   62 1
    61   67   66 1
    62   68   66 1
    63   69   70 1
    64   71   64 1
    65   72   71 1
    66   73   85 1
    67   74   60 1
    68   75   74 1
    69   76   92 1
    70   77   69 1
    71   78   77 1
    72   79   77 1
    73   80   92 1
    74   81   62 1
    75   82   81 ar
    76   83   82 1
    77   85   82 ar
    78   86   61 2
    79   87   85 ar
    80   88   87 ar
    81   89   88 1
    82   90   81 ar
    83   91   90 1
    84   92   87 1
    85   93   92 1
    86   94   76 1
    87   95   94 1
    88   96   94 1
    89   97   94 1
    90   98   97 1
    91   99   97 1
    92  100   80 1
    93  101  100 1
    94  102  100 1
    95  103   73 1
    96  104  103 1
    97  105  103 1
    98  106  103 1
    99  107  106 1
   100  108  106 1
   101  109  106 1
   102  110  109 ar
   103  111  110 1
   104  112  110 ar
   105  113  112 1
   106  114   61 1
   107  115  114 ar
   108  116  115 1
   109  117  109 ar
   110  118  117 1
   111    7   12 1
   112   12   15 1
   113   15   18 1
   114   29   31 ar
   115   38   41 1
   116   53   55 ar
   117   56   58 ar
   118   66   71 1
   119   71   74 1
   120   74   77 1
   121   88   90 ar
   122   97  100 1
   123  112  114 ar
   124  115  117 ar
@<TRIPOS>SUBSTRUCTURE
     1 RES1 1
     2 RES2 60

@<TRIPOS>CRYSIN
   9.5072    9.5696   47.2503  90.0000  90.0000  90.0000  19 1

