# MOL2 file generated by ConQuest
# Please check atom types

@<TRIPOS>MOLECULE
FOMCIT
    56    58     2
SMALL
NO_CHARGES
****
Generated from CSD

@<TRIPOS>ATOM
      1 N1         7.3891    2.0289    6.5555 N.2       1 RES1    0.0000
      2 C1         8.0891    1.2875    5.5013 C.3       1 RES1    0.0000
      3 C2         9.3967    0.7487    6.0119 C.3       1 RES1    0.0000
      4 N2         9.1093   -0.0950    7.1531 N.3       1 RES1    0.0000
      5 C3         8.1106    0.2210    7.9884 C.2       1 RES1    0.0000
      6 C4         7.4137    1.5139    7.7343 C.2       1 RES1    0.0000
      7 C5         6.7178    2.2407    8.8261 C.ar      1 RES1    0.0000
      8 C6         7.1838    2.2097   10.1391 C.ar      1 RES1    0.0000
      9 C7         6.5125    2.9201   11.1320 C.ar      1 RES1    0.0000
     10 C8         5.3804    3.6305   10.8285 C.ar      1 RES1    0.0000
     11 C9         4.9082    3.6634    9.5438 C.ar      1 RES1    0.0000
     12 C10        5.5816    2.9895    8.5461 C.ar      1 RES1    0.0000
     13 N3         7.6539   -0.5132    8.9508 N.2       1 RES1    0.0000
     14 O1         8.3908   -1.7385    8.9438 O.3       1 RES1    0.0000
     15 C11        7.7678   -2.6425    9.8497 C.3       1 RES1    0.0000
     16 H1         7.5132    0.5844    5.2237 H         1 RES1    0.0000
     17 H2         8.2625    1.9358    4.7295 H         1 RES1    0.0000
     18 H3        10.0074    1.4975    6.2825 H         1 RES1    0.0000
     19 H4         9.8842    0.1644    5.3178 H         1 RES1    0.0000
     20 H5         9.6276   -0.7853    7.3649 H         1 RES1    0.0000
     21 H6         8.0162    1.6984   10.3767 H         1 RES1    0.0000
     22 H7         6.8256    2.8854   11.9768 H         1 RES1    0.0000
     23 H8         4.9575    4.1820   11.5297 H         1 RES1    0.0000
     24 H9         4.0748    4.1820    9.2708 H         1 RES1    0.0000
     25 H10        5.2449    3.0315    7.6002 H         1 RES1    0.0000
     26 H11        8.1496   -3.4880    9.6708 H         1 RES1    0.0000
     27 H12        6.6921   -2.6845    9.6473 H         1 RES1    0.0000
     28 H13        7.9546   -2.3375   10.7532 H         1 RES1    0.0000
     29 N4         4.1241    2.1458   18.8922 N.2       2 RES2    0.0000
     30 C12        4.5818    3.0753   17.8593 C.3       2 RES2    0.0000
     31 C13        3.4528    3.7583   17.1463 C.3       2 RES2    0.0000
     32 N5         2.6204    4.3847   18.1440 N.3       2 RES2    0.0000
     33 C14        2.3433    3.7382   19.2875 C.2       2 RES2    0.0000
     34 C15        3.0689    2.4690   19.5417 C.2       2 RES2    0.0000
     35 C16        2.6122    1.5450   20.6076 C.ar      2 RES2    0.0000
     36 C17        1.2738    1.2108   20.7652 C.ar      2 RES2    0.0000
     37 C18        0.8817    0.2739   21.7041 C.ar      2 RES2    0.0000
     38 C19        1.8167   -0.3123   22.5182 C.ar      2 RES2    0.0000
     39 C20        3.1387    0.0274   22.3935 C.ar      2 RES2    0.0000
     40 C21        3.5380    0.9405   21.4335 C.ar      2 RES2    0.0000
     41 N6         1.5868    4.1674   20.2452 N.2       2 RES2    0.0000
     42 O2         1.0757    5.4439   19.8499 O.3       2 RES2    0.0000
     43 C22        0.3880    5.9954   20.9605 C.3       2 RES2    0.0000
     44 H14        5.2346    3.6889   18.2593 H         2 RES2    0.0000
     45 H15        5.0602    2.5932   17.2475 H         2 RES2    0.0000
     46 H16        2.9458    3.0498   16.6122 H         2 RES2    0.0000
     47 H17        3.7669    4.4559   16.5887 H         2 RES2    0.0000
     48 H18        2.1965    5.1316   18.0005 H         2 RES2    0.0000
     49 H19        0.5953    1.6436   20.2358 H         2 RES2    0.0000
     50 H20       -0.0308    0.0730   21.7417 H         2 RES2    0.0000
     51 H21        1.5191   -0.9861   23.1771 H         2 RES2    0.0000
     52 H22        3.8079   -0.3287   22.9653 H         2 RES2    0.0000
     53 H23        4.4648    1.1505   21.3652 H         2 RES2    0.0000
     54 H24        0.2155    6.8665   20.6593 H         2 RES2    0.0000
     55 H25        1.0059    6.0265   21.7417 H         2 RES2    0.0000
     56 H26        0.0000    5.5334   21.1299 H         2 RES2    0.0000
@<TRIPOS>BOND
     1    1    2 1
     2    2    3 1
     3    3    4 1
     4    4    5 1
     5    5    6 1
     6    6    1 2
     7    7    6 1
     8    8    7 ar
     9    9    8 ar
    10   10    9 ar
    11   11   10 ar
    12   12    7 ar
    13   13    5 2
    14   14   13 1
    15   15   14 1
    16   16    2 1
    17   17    2 1
    18   18    3 1
    19   19    3 1
    20   20    4 1
    21   21    8 1
    22   22    9 1
    23   23   10 1
    24   24   11 1
    25   25   12 1
    26   26   15 1
    27   27   15 1
    28   28   15 1
    29   29   30 1
    30   30   31 1
    31   31   32 1
    32   32   33 1
    33   33   34 1
    34   34   29 2
    35   35   34 1
    36   36   35 ar
    37   37   36 ar
    38   38   37 ar
    39   39   38 ar
    40   40   35 ar
    41   41   33 2
    42   42   41 1
    43   43   42 1
    44   44   30 1
    45   45   30 1
    46   46   31 1
    47   47   31 1
    48   48   32 1
    49   49   36 1
    50   50   37 1
    51   51   38 1
    52   52   39 1
    53   53   40 1
    54   54   43 1
    55   55   43 1
    56   56   43 1
    57   11   12 ar
    58   39   40 ar
@<TRIPOS>SUBSTRUCTURE
     1 RES1 1
     2 RES2 29

@<TRIPOS>CRYSIN
  10.2640   18.2620   23.5300  90.0000  90.0000  90.0000  61 1

