# MOL2 file generated by ConQuest
# Please check atom types

@<TRIPOS>MOLECULE
FOMNEB01
    40    41     1
SMALL
NO_CHARGES
****
Generated from CSD

@<TRIPOS>ATOM
      1 C1         2.9538    8.4686    6.6822 C.2       1 RES1    0.0000
      2 O1         1.9195    7.8927    6.9787 O.2       1 RES1    0.0000
      3 O2         3.9800    8.6139    7.4961 O.3       1 RES1    0.0000
      4 C2         0.3726    6.5411    2.7358 C.ar      1 RES1    0.0000
      5 C3        -0.8402    5.9307    3.0526 C.ar      1 RES1    0.0000
      6 C4        -1.1140    4.6322    2.6335 C.ar      1 RES1    0.0000
      7 C5        -0.1884    3.9526    1.8675 C.ar      1 RES1    0.0000
      8 C6         1.0004    4.5650    1.5162 C.ar      1 RES1    0.0000
      9 C7         1.2953    5.8522    1.9507 C.ar      1 RES1    0.0000
     10 C8         3.2171    9.0876    5.3396 C.3       1 RES1    0.0000
     11 O3         2.0703    9.1786    4.5252 O.3       1 RES1    0.0000
     12 N1         1.8242    7.9002    3.9567 N.2       1 RES1    0.0000
     13 C9         0.7017    7.8794    3.3080 C.2       1 RES1    0.0000
     14 C10       -0.2077    9.0103    3.1945 C.2       1 RES1    0.0000
     15 C11       -1.2579    9.0763    2.3580 C.2       1 RES1    0.0000
     16 C12       -2.2002   10.1890    2.2585 C.ar      1 RES1    0.0000
     17 C13       -3.2967   10.1011    1.4067 C.ar      1 RES1    0.0000
     18 C14       -4.2328   11.1291    1.3099 C.ar      1 RES1    0.0000
     19 C15       -4.0725   12.2687    2.0809 C.ar      1 RES1    0.0000
     20 O4        -4.9141   13.3438    2.0905 O.3       1 RES1    0.0000
     21 C16       -6.0649   13.3056    1.2547 C.3       1 RES1    0.0000
     22 C17       -2.9808   12.3735    2.9385 C.ar      1 RES1    0.0000
     23 C18       -2.0647   11.3571    3.0220 C.ar      1 RES1    0.0000
     24 H1         3.8432    8.1762    8.2005 H         1 RES1    0.0000
     25 H2        -1.4869    6.4069    3.5613 H         1 RES1    0.0000
     26 H3        -1.9332    4.2154    2.8727 H         1 RES1    0.0000
     27 H4        -0.3685    3.0642    1.5819 H         1 RES1    0.0000
     28 H5         1.6237    4.1001    0.9714 H         1 RES1    0.0000
     29 H6         2.1202    6.2602    1.7133 H         1 RES1    0.0000
     30 H7         3.5868    9.9965    5.4742 H         1 RES1    0.0000
     31 H8         3.9018    8.5505    4.8687 H         1 RES1    0.0000
     32 H9        -0.0463    9.7600    3.7559 H         1 RES1    0.0000
     33 H10       -1.4004    8.3349    1.7815 H         1 RES1    0.0000
     34 H11       -3.4108    9.3199    0.8783 H         1 RES1    0.0000
     35 H12       -4.9732   11.0488    0.7202 H         1 RES1    0.0000
     36 H13       -5.7876   13.3376    0.3160 H         1 RES1    0.0000
     37 H14       -6.6375   14.0756    1.4521 H         1 RES1    0.0000
     38 H15       -6.5624   12.4784    1.4205 H         1 RES1    0.0000
     39 H16       -2.8694   13.1535    3.4682 H         1 RES1    0.0000
     40 H17       -1.3229   11.4455    3.6096 H         1 RES1    0.0000
@<TRIPOS>BOND
     1    1    2 2
     2    3    1 1
     3    4    5 ar
     4    5    6 ar
     5    6    7 ar
     6    7    8 ar
     7    8    9 ar
     8    9    4 ar
     9   10    1 1
    10   11   10 1
    11   12   11 1
    12   13    4 1
    13   14   13 1
    14   15   14 2
    15   16   15 1
    16   17   16 ar
    17   18   17 ar
    18   19   18 ar
    19   20   19 1
    20   21   20 1
    21   22   19 ar
    22   23   16 ar
    23   24    3 1
    24   25    5 1
    25   26    6 1
    26   27    7 1
    27   28    8 1
    28   29    9 1
    29   30   10 1
    30   31   10 1
    31   32   14 1
    32   33   15 1
    33   34   17 1
    34   35   18 1
    35   36   21 1
    36   37   21 1
    37   38   21 1
    38   39   22 1
    39   40   23 1
    40   12   13 2
    41   22   23 ar
@<TRIPOS>SUBSTRUCTURE
     1 RES1 1

@<TRIPOS>CRYSIN
   6.4499   14.9693   16.6559  90.0000  92.9470  90.0000  14 1

