# MOL2 file generated by ConQuest
# Please check atom types

@<TRIPOS>MOLECULE
FOMNEB03
    80    82     2
SMALL
NO_CHARGES
****
Generated from CSD

@<TRIPOS>ATOM
      1 O1         6.7002    8.9449    4.7472 O.3       1 RES1    0.0000
      2 O2         4.5801    8.2803    4.8937 O.2       1 RES1    0.0000
      3 O3         4.3171    9.2773    7.3332 O.3       1 RES1    0.0000
      4 O4        -2.7224    4.6872    9.8211 O.3       1 RES1    0.0000
      5 N1         4.1332   10.2984    8.3047 N.2       1 RES1    0.0000
      6 C1         5.5377    8.8513    5.3509 C.2       1 RES1    0.0000
      7 C2         5.5409    9.5464    6.6727 C.3       1 RES1    0.0000
      8 C3         3.0552   10.0999    8.9830 C.2       1 RES1    0.0000
      9 C4         2.1239    8.9949    8.8449 C.2       1 RES1    0.0000
     10 C5         1.1004    8.8080    9.6963 C.2       1 RES1    0.0000
     11 C6         2.8010   11.1601   10.0148 C.ar      1 RES1    0.0000
     12 C7         1.7907   12.0916    9.8320 C.ar      1 RES1    0.0000
     13 C8         1.5488   13.0613   10.7903 C.ar      1 RES1    0.0000
     14 C9         2.3069   13.0951   11.9397 C.ar      1 RES1    0.0000
     15 C10        3.2968   12.1669   12.1324 C.ar      1 RES1    0.0000
     16 C11        3.5558   11.2074   11.1700 C.ar      1 RES1    0.0000
     17 C12        0.1139    7.7380    9.6958 C.ar      1 RES1    0.0000
     18 C13        0.1842    6.6095    8.8686 C.ar      1 RES1    0.0000
     19 C14       -0.7704    5.6306    8.9296 C.ar      1 RES1    0.0000
     20 C15       -1.8410    5.7418    9.8138 C.ar      1 RES1    0.0000
     21 C16       -3.8220    4.7299   10.7371 C.3       1 RES1    0.0000
     22 C17       -1.9465    6.8508   10.6321 C.ar      1 RES1    0.0000
     23 C18       -0.9688    7.8242   10.5706 C.ar      1 RES1    0.0000
     24 O5         4.5419    6.9381    2.6195 O.3       2 RES2    0.0000
     25 O6         6.6580    7.6628    2.4236 O.2       2 RES2    0.0000
     26 O7         6.8771    6.5538   -0.0069 O.3       2 RES2    0.0000
     27 O8        13.9535   11.0432   -1.4969 O.3       2 RES2    0.0000
     28 N2         7.1723    5.3688   -0.7399 N.2       2 RES2    0.0000
     29 C19        5.6941    7.0599    1.9903 C.2       2 RES2    0.0000
     30 C20        5.6532    6.3425    0.6814 C.3       2 RES2    0.0000
     31 C21        8.3597    5.4280   -1.2613 C.2       2 RES2    0.0000
     32 C22        9.2696    6.5470   -1.1286 C.2       2 RES2    0.0000
     33 C23       10.4178    6.6839   -1.8037 C.2       2 RES2    0.0000
     34 C24        8.7189    4.1839   -1.9996 C.ar      2 RES2    0.0000
     35 C25        9.8081    3.4210   -1.6103 C.ar      2 RES2    0.0000
     36 C26       10.0776    2.2088   -2.2233 C.ar      2 RES2    0.0000
     37 C27        9.2710    1.7681   -3.2543 C.ar      2 RES2    0.0000
     38 C28        8.1967    2.5250   -3.6618 C.ar      2 RES2    0.0000
     39 C29        7.9034    3.7300   -3.0318 C.ar      2 RES2    0.0000
     40 C30       11.3313    7.8183   -1.7181 C.ar      2 RES2    0.0000
     41 C31       11.0049    9.0249   -1.0744 C.ar      2 RES2    0.0000
     42 C32       11.8941   10.0622   -1.0100 C.ar      2 RES2    0.0000
     43 C33       13.1538    9.9405   -1.5946 C.ar      2 RES2    0.0000
     44 C34       15.2020   11.0217   -2.1909 C.3       2 RES2    0.0000
     45 C35       13.5179    8.7577   -2.2244 C.ar      2 RES2    0.0000
     46 C36       12.6019    7.7231   -2.2841 C.ar      2 RES2    0.0000
     47 H1         6.6629    8.5516    4.0055 H         1 RES1    0.0000
     48 H2         6.2984    9.2243    7.2224 H         1 RES1    0.0000
     49 H3         5.6457   10.5221    6.5413 H         1 RES1    0.0000
     50 H4         1.2609   12.0643    9.0441 H         1 RES1    0.0000
     51 H5         0.8612   13.7016   10.6559 H         1 RES1    0.0000
     52 H6         2.1445   13.7603   12.5983 H         1 RES1    0.0000
     53 H7         3.8088   12.1833   12.9322 H         1 RES1    0.0000
     54 H8         4.2556   10.5792   11.3039 H         1 RES1    0.0000
     55 H9         2.2421    8.3818    8.1283 H         1 RES1    0.0000
     56 H10        1.0096    9.4560   10.3848 H         1 RES1    0.0000
     57 H11        0.9054    6.5224    8.2556 H         1 RES1    0.0000
     58 H12       -0.7023    4.8692    8.3647 H         1 RES1    0.0000
     59 H13       -4.3607    5.5292   10.5633 H         1 RES1    0.0000
     60 H14       -3.4809    4.7581   11.6560 H         1 RES1    0.0000
     61 H15       -4.3766    3.9299   10.6195 H         1 RES1    0.0000
     62 H16       -2.6812    6.9428   11.2279 H         1 RES1    0.0000
     63 H17       -1.0365    8.5786   11.1436 H         1 RES1    0.0000
     64 H18        4.5743    7.3569    3.3459 H         2 RES2    0.0000
     65 H19        5.5168    5.3737    0.8332 H         2 RES2    0.0000
     66 H20        4.8989    6.6810    0.1372 H         2 RES2    0.0000
     67 H21       10.3759    3.7332   -0.9158 H         2 RES2    0.0000
     68 H22       10.8139    1.6818   -1.9358 H         2 RES2    0.0000
     69 H23        9.4578    0.9408   -3.6831 H         2 RES2    0.0000
     70 H24        7.6511    2.2228   -4.3791 H         2 RES2    0.0000
     71 H25        7.1500    4.2409   -3.3045 H         2 RES2    0.0000
     72 H26        9.0343    7.2348   -0.5174 H         2 RES2    0.0000
     73 H27       10.6595    5.9782   -2.3920 H         2 RES2    0.0000
     74 H28       10.1478    9.1212   -0.6761 H         2 RES2    0.0000
     75 H29       11.6529   10.8664   -0.5670 H         2 RES2    0.0000
     76 H30       15.7473   10.2794   -1.8581 H         2 RES2    0.0000
     77 H31       15.6738   11.8675   -2.0399 H         2 RES2    0.0000
     78 H32       15.0406   10.9045   -3.1508 H         2 RES2    0.0000
     79 H33       14.3814    8.6611   -2.6069 H         2 RES2    0.0000
     80 H34       12.8471    6.9190   -2.7260 H         2 RES2    0.0000
@<TRIPOS>BOND
     1    1    6 1
     2    2    6 2
     3    3    5 1
     4    4   20 1
     5    5    8 2
     6    6    7 1
     7    7    3 1
     8    8    9 1
     9    9   10 2
    10   10   17 1
    11   11    8 1
    12   12   11 ar
    13   13   12 ar
    14   14   13 ar
    15   15   14 ar
    16   16   11 ar
    17   17   18 ar
    18   18   19 ar
    19   19   20 ar
    20   20   22 ar
    21   21    4 1
    22   22   23 ar
    23   23   17 ar
    24   24   29 1
    25   25   29 2
    26   26   28 1
    27   27   43 1
    28   28   31 2
    29   29   30 1
    30   30   26 1
    31   31   32 1
    32   32   33 2
    33   33   40 1
    34   34   31 1
    35   35   34 ar
    36   36   35 ar
    37   37   36 ar
    38   38   37 ar
    39   39   34 ar
    40   40   41 ar
    41   41   42 ar
    42   42   43 ar
    43   43   45 ar
    44   44   27 1
    45   45   46 ar
    46   46   40 ar
    47   47    1 1
    48   48    7 1
    49   49    7 1
    50   50   12 1
    51   51   13 1
    52   52   14 1
    53   53   15 1
    54   54   16 1
    55   55    9 1
    56   56   10 1
    57   57   18 1
    58   58   19 1
    59   59   21 1
    60   60   21 1
    61   61   21 1
    62   62   22 1
    63   63   23 1
    64   64   24 1
    65   65   30 1
    66   66   30 1
    67   67   35 1
    68   68   36 1
    69   69   37 1
    70   70   38 1
    71   71   39 1
    72   72   32 1
    73   73   33 1
    74   74   41 1
    75   75   42 1
    76   76   44 1
    77   77   44 1
    78   78   44 1
    79   79   45 1
    80   80   46 1
    81   15   16 ar
    82   38   39 ar
@<TRIPOS>SUBSTRUCTURE
     1 RES1 1
     2 RES2 24

@<TRIPOS>CRYSIN
  12.1552   15.8657   16.6708  90.0000  97.4250  90.0000 231 1

