# MOL2 file generated by ConQuest
# Please check atom types

@<TRIPOS>MOLECULE
FOMQEE
    36    36     1
SMALL
NO_CHARGES
****
Generated from CSD

@<TRIPOS>ATOM
      1 C1         6.6541   10.0945    3.2272 C.ar      1 RES1    0.0000
      2 C2         6.6905    8.7749    3.7082 C.ar      1 RES1    0.0000
      3 C3         6.8199    8.4832    5.0586 C.ar      1 RES1    0.0000
      4 C4         6.8875    9.5465    5.9496 C.ar      1 RES1    0.0000
      5 C5         6.8055   10.8620    5.5407 C.ar      1 RES1    0.0000
      6 C6         6.6758   11.0970    4.1707 C.ar      1 RES1    0.0000
      7 H1         6.5999   11.9775    3.8802 H         1 RES1    0.0000
      8 C7         6.4991   10.4099    1.7985 C.2       1 RES1    0.0000
      9 H2         5.9301    9.8685    1.3020 H         1 RES1    0.0000
     10 C8         7.1000   11.3962    1.1650 C.2       1 RES1    0.0000
     11 C9         8.1263   12.3538    1.6502 C.3       1 RES1    0.0000
     12 H3         7.7286   13.2205    1.7583 H         1 RES1    0.0000
     13 H4         8.8409   12.4068    1.0115 H         1 RES1    0.0000
     14 H5         8.4718   12.0517    2.4928 H         1 RES1    0.0000
     15 C10        6.8863   12.0107    6.5038 C.3       1 RES1    0.0000
     16 H6         6.0109   12.1993    6.8509 H         1 RES1    0.0000
     17 H7         7.2241   12.7858    6.0496 H         1 RES1    0.0000
     18 H8         7.4743   11.7811    7.2269 H         1 RES1    0.0000
     19 C11        6.2121    9.4758    8.2271 C.2       1 RES1    0.0000
     20 C12        6.7498    9.2624    9.5961 C.3       1 RES1    0.0000
     21 H9         6.1018    9.5516   10.2429 H         1 RES1    0.0000
     22 H10        7.5589    9.7684    9.7042 H         1 RES1    0.0000
     23 H11        6.9357    8.3295    9.7238 H         1 RES1    0.0000
     24 C13        5.8839    6.5963    6.1258 C.3       1 RES1    0.0000
     25 H12        5.5806    7.1681    6.8345 H         1 RES1    0.0000
     26 H13        6.1417    5.7461    6.4884 H         1 RES1    0.0000
     27 H14        5.1753    6.4717    5.4902 H         1 RES1    0.0000
     28 N1         6.7253   11.5645   -0.2544 N.pl3     1 RES1    0.0000
     29 N2         6.6288    7.6648    2.7544 N.pl3     1 RES1    0.0000
     30 O1         5.7576   10.9671   -0.6963 O.2       1 RES1    0.0000
     31 O2         7.3919   12.3222   -0.9312 O.2       1 RES1    0.0000
     32 O3         5.8702    6.7516    2.9810 O.2       1 RES1    0.0000
     33 O4         7.3563    7.7273    1.7758 O.2       1 RES1    0.0000
     34 O5         7.0094    7.1991    5.4742 O.3       1 RES1    0.0000
     35 O6         7.1795    9.2382    7.2922 O.3       1 RES1    0.0000
     36 O7         5.1124    9.8098    7.9325 O.2       1 RES1    0.0000
@<TRIPOS>BOND
     1    1    2 ar
     2    2    3 ar
     3    3    4 ar
     4    4    5 ar
     5    5    6 ar
     6    6    1 ar
     7    7    6 1
     8    8    1 1
     9    9    8 1
    10   10    8 2
    11   11   10 1
    12   12   11 1
    13   13   11 1
    14   14   11 1
    15   15    5 1
    16   16   15 1
    17   17   15 1
    18   18   15 1
    19   19   20 1
    20   20   21 1
    21   22   20 1
    22   23   20 1
    23   24   25 1
    24   26   24 1
    25   27   24 1
    26   28   10 1
    27   29    2 1
    28   30   28 2
    29   31   28 2
    30   32   29 2
    31   33   29 2
    32   34    3 1
    33   35    4 1
    34   36   19 2
    35   19   35 1
    36   24   34 1
@<TRIPOS>SUBSTRUCTURE
     1 RES1 1

@<TRIPOS>CRYSIN
   8.2740    9.1250   10.6230  76.3100  81.3400  66.5100   2 1

