# MOL2 file generated by ConQuest
# Please check atom types

@<TRIPOS>MOLECULE
FOMXIO
    17    18     1
SMALL
NO_CHARGES
****
Generated from CSD

@<TRIPOS>ATOM
      1 O1         4.7982    2.1513    3.9773 O.2       1 RES1    0.0000
      2 O2         4.4470    2.7689    6.0004 O.2       1 RES1    0.0000
      3 N1         8.6589    0.6449    7.7724 N.ar      1 RES1    0.0000
      4 N2         4.7530    1.9233    5.1711 N.pl3     1 RES1    0.0000
      5 N3         4.1857   -2.8279    4.5677 N.pl3     1 RES1    0.0000
      6 C1         7.5444    1.1084    9.8224 C.ar      1 RES1    0.0000
      7 C2         8.6236    0.6633   10.5495 C.ar      1 RES1    0.0000
      8 C3         9.7169    0.2070    9.8736 C.ar      1 RES1    0.0000
      9 C4         9.7007    0.2094    8.5013 C.ar      1 RES1    0.0000
     10 C5         7.5852    1.0768    8.4465 C.ar      1 RES1    0.0000
     11 C6         6.4105    1.5249    7.6125 C.3       1 RES1    0.0000
     12 C7         5.7779    0.3929    6.8260 C.ar      1 RES1    0.0000
     13 C8         5.0506    0.5670    5.6471 C.ar      1 RES1    0.0000
     14 C9         4.5485   -0.4615    4.8773 C.ar      1 RES1    0.0000
     15 C10        4.7229   -1.7810    5.2938 C.ar      1 RES1    0.0000
     16 C11        5.4086   -1.9898    6.4913 C.ar      1 RES1    0.0000
     17 C12        5.9271   -0.9375    7.2146 C.ar      1 RES1    0.0000
@<TRIPOS>BOND
     1    1    4 2
     2    2    4 2
     3    3    9 ar
     4    4   13 1
     5    5   15 1
     6    6    7 ar
     7    7    8 ar
     8    8    9 ar
     9   10    3 ar
    10   11   10 1
    11   12   11 1
    12   13   12 ar
    13   14   13 ar
    14   15   14 ar
    15   16   15 ar
    16   17   12 ar
    17    6   10 ar
    18   16   17 ar
@<TRIPOS>SUBSTRUCTURE
     1 RES1 1

@<TRIPOS>CRYSIN
   7.2080    8.3040    9.5700  98.7000  99.5100  96.1800   2 1

