# MOL2 file generated by ConQuest
# Please check atom types

@<TRIPOS>MOLECULE
FONYUD
    49    52     1
SMALL
NO_CHARGES
****
Generated from CSD

@<TRIPOS>ATOM
      1 O1         0.3069   -0.5473    3.3969 O.3       1 RES1    0.0000
      2 O2         2.2121    4.2265    3.0705 O.2       1 RES1    0.0000
      3 O3         4.1451    3.6367    3.7369 O.2       1 RES1    0.0000
      4 O4        -1.3955   -0.0952    4.7162 O.2       1 RES1    0.0000
      5 N1         0.3613    1.9703    2.7546 N.3       1 RES1    0.0000
      6 N2         2.9762    3.4092    3.5385 N.pl3     1 RES1    0.0000
      7 C1         1.7154   -2.2558    1.5492 C.3       1 RES1    0.0000
      8 H1         0.7586   -2.3268    1.5725 H         1 RES1    0.0000
      9 H2         2.0905   -2.7589    2.2758 H         1 RES1    0.0000
     10 H3         2.0428   -2.6030    0.7173 H         1 RES1    0.0000
     11 C2         2.1168   -0.8004    1.6824 C.3       1 RES1    0.0000
     12 C3         3.6366   -0.5493    1.7043 C.3       1 RES1    0.0000
     13 H4         4.0850   -1.0870    1.0328 H         1 RES1    0.0000
     14 H5         4.0083   -0.7585    2.5749 H         1 RES1    0.0000
     15 C4         3.7879    0.9604    1.3905 C.3       1 RES1    0.0000
     16 H6         4.2411    1.4260    2.1099 H         1 RES1    0.0000
     17 H7         4.2750    1.1006    0.5631 H         1 RES1    0.0000
     18 C5         2.3233    1.4189    1.2615 C.3       1 RES1    0.0000
     19 H8         2.2059    2.2630    0.7781 H         1 RES1    0.0000
     20 C6         1.6663    0.1874    0.5699 C.3       1 RES1    0.0000
     21 C7         0.1548    0.2501    0.3444 C.3       1 RES1    0.0000
     22 H9        -0.1340   -0.5440   -0.1122 H         1 RES1    0.0000
     23 H10       -0.0580    1.0201   -0.1893 H         1 RES1    0.0000
     24 H11       -0.2929    0.3128    1.1917 H         1 RES1    0.0000
     25 C8         2.2770   -0.1119   -0.8185 C.3       1 RES1    0.0000
     26 H12        3.2325   -0.1705   -0.7430 H         1 RES1    0.0000
     27 H13        2.0484    0.5943   -1.4277 H         1 RES1    0.0000
     28 H14        1.9309   -0.9437   -1.1473 H         1 RES1    0.0000
     29 C9         1.7126    1.4095    2.6696 C.3       1 RES1    0.0000
     30 C10        1.6318   -0.1242    2.9792 C.3       1 RES1    0.0000
     31 H15        2.2667   -0.3317    3.6965 H         1 RES1    0.0000
     32 C11        2.4546    2.0329    3.8785 C.3       1 RES1    0.0000
     33 H16        3.1883    1.4511    4.1662 H         1 RES1    0.0000
     34 C12        1.3554    2.0939    4.9646 C.3       1 RES1    0.0000
     35 H17        1.2822    3.0289    5.2480 H         1 RES1    0.0000
     36 C13        0.0594    1.7537    4.1673 C.3       1 RES1    0.0000
     37 H18       -0.6736    2.3404    4.4489 H         1 RES1    0.0000
     38 C14       -0.3979    0.3013    4.1767 C.2       1 RES1    0.0000
     39 C15        1.6532    1.2628    6.2186 C.3       1 RES1    0.0000
     40 H19        1.7734    0.3285    5.9490 H         1 RES1    0.0000
     41 C16        0.4864    1.3350    7.1977 C.3       1 RES1    0.0000
     42 H20        0.3883    2.2369    7.5122 H         1 RES1    0.0000
     43 H21        0.6570    0.7533    7.9421 H         1 RES1    0.0000
     44 H22       -0.3199    1.0609    6.7551 H         1 RES1    0.0000
     45 C17        2.9327    1.7347    6.9026 C.3       1 RES1    0.0000
     46 H23        2.8511    2.6637    7.1290 H         1 RES1    0.0000
     47 H24        3.6767    1.6133    6.3088 H         1 RES1    0.0000
     48 H25        3.0750    1.2220    7.7014 H         1 RES1    0.0000
     49 H26        0.4283    2.8405    2.5936 H         1 RES1    0.0000
@<TRIPOS>BOND
     1    1   30 1
     2    2    6 2
     3    3    6 2
     4    4   38 2
     5    5   29 1
     6    6   32 1
     7    7    8 1
     8    9    7 1
     9   10    7 1
    10   11    7 1
    11   12   11 1
    12   13   12 1
    13   14   12 1
    14   15   12 1
    15   16   15 1
    16   17   15 1
    17   18   15 1
    18   19   18 1
    19   20   11 1
    20   21   20 1
    21   22   21 1
    22   23   21 1
    23   24   21 1
    24   25   20 1
    25   26   25 1
    26   27   25 1
    27   28   25 1
    28   29   18 1
    29   30   11 1
    30   31   30 1
    31   32   29 1
    32   33   32 1
    33   34   32 1
    34   35   34 1
    35   36    5 1
    36   37   36 1
    37   38    1 1
    38   39   34 1
    39   40   39 1
    40   41   39 1
    41   42   41 1
    42   43   41 1
    43   44   41 1
    44   45   39 1
    45   46   45 1
    46   47   45 1
    47   48   45 1
    48   49    5 1
    49   18   20 1
    50   29   30 1
    51   34   36 1
    52   36   38 1
@<TRIPOS>SUBSTRUCTURE
     1 RES1 1

@<TRIPOS>CRYSIN
   6.9085   10.4624   23.3660  90.0000  90.0000  90.0000  19 1

