# MOL2 file generated by ConQuest
# Please check atom types

@<TRIPOS>MOLECULE
FONYIR
    50    53     1
SMALL
NO_CHARGES
****
Generated from CSD

@<TRIPOS>ATOM
      1 N1         2.7752    5.6088    1.1508 N.2       1 RES1    0.0000
      2 N2         3.4126    3.5262   -3.2266 N.pl3     1 RES1    0.0000
      3 O1         6.1565    5.2326   -0.0508 O.2       1 RES1    0.0000
      4 O2         5.1853    7.0636    0.6841 O.3       1 RES1    0.0000
      5 O3         3.9243    3.8692   -4.2712 O.2       1 RES1    0.0000
      6 O4         2.3567    2.9357   -3.1579 O.2       1 RES1    0.0000
      7 C1         2.0939    7.6587    2.3728 C.3       1 RES1    0.0000
      8 C2         2.8488    6.8563    1.3417 C.2       1 RES1    0.0000
      9 C3         3.9180    7.7588    0.7805 C.3       1 RES1    0.0000
     10 H1         3.6483    8.0665   -0.1097 H         1 RES1    0.0000
     11 C4         3.8715    8.9379    1.7606 C.3       1 RES1    0.0000
     12 H2         4.7105    9.4362    1.8474 H         1 RES1    0.0000
     13 C5         2.6730    9.7654    1.2713 C.3       1 RES1    0.0000
     14 H3         2.7188    9.9196    0.3156 H         1 RES1    0.0000
     15 H4         2.6229   10.6183    1.7300 H         1 RES1    0.0000
     16 C6         1.4814    8.8650    1.6350 C.3       1 RES1    0.0000
     17 H5         1.0136    8.5763    0.8352 H         1 RES1    0.0000
     18 H6         0.8579    9.3375    2.2092 H         1 RES1    0.0000
     19 C7         1.1318    6.8622    3.2243 C.3       1 RES1    0.0000
     20 H7         0.4255    6.5177    2.6730 H         1 RES1    0.0000
     21 H8         0.7605    7.4289    3.9046 H         1 RES1    0.0000
     22 H9         1.5996    6.1315    3.6371 H         1 RES1    0.0000
     23 C8         3.3396    8.3192    3.0767 C.3       1 RES1    0.0000
     24 C9         4.2740    7.3108    3.7347 C.3       1 RES1    0.0000
     25 H10        5.0449    7.7678    4.0797 H         1 RES1    0.0000
     26 H11        4.5513    6.6607    3.0848 H         1 RES1    0.0000
     27 H12        3.8145    6.8705    4.4531 H         1 RES1    0.0000
     28 C10        2.9545    9.3528    4.1473 C.3       1 RES1    0.0000
     29 H13        2.6452    8.8986    4.9342 H         1 RES1    0.0000
     30 H14        2.2566    9.9182    3.8084 H         1 RES1    0.0000
     31 H15        3.7213    9.8862    4.3665 H         1 RES1    0.0000
     32 C11        5.1367    5.7857    0.2646 C.2       1 RES1    0.0000
     33 C12        3.8026    5.0595    0.2686 C.3       1 RES1    0.0000
     34 H16        3.9917    4.1604    0.6100 H         1 RES1    0.0000
     35 C13        3.2333    4.8524   -1.1658 C.3       1 RES1    0.0000
     36 H17        2.3629    4.4146   -1.0565 H         1 RES1    0.0000
     37 C14        4.1085    3.8793   -1.9531 C.3       1 RES1    0.0000
     38 H18        4.9657    4.2895   -2.1476 H         1 RES1    0.0000
     39 H19        4.2656    3.0782   -1.4298 H         1 RES1    0.0000
     40 C15        2.9691    6.1533   -1.8832 C.ar      1 RES1    0.0000
     41 C16        3.9695    6.8438   -2.5604 C.ar      1 RES1    0.0000
     42 H20        4.8197    6.4760   -2.6345 H         1 RES1    0.0000
     43 C17        3.6977    8.0805   -3.1231 C.ar      1 RES1    0.0000
     44 H21        4.3692    8.5332   -3.5794 H         1 RES1    0.0000
     45 C18        2.4595    8.6430   -3.0159 C.ar      1 RES1    0.0000
     46 H22        2.2941    9.4820   -3.3812 H         1 RES1    0.0000
     47 C19        1.4599    7.9637   -2.3676 C.ar      1 RES1    0.0000
     48 H23        0.6111    8.3388   -2.3035 H         1 RES1    0.0000
     49 C20        1.7094    6.7210   -1.8091 C.ar      1 RES1    0.0000
     50 H24        1.0233    6.2635   -1.3798 H         1 RES1    0.0000
@<TRIPOS>BOND
     1    1    8 2
     2    2    5 2
     3    3   32 2
     4    4    9 1
     5    6    2 2
     6    7    8 1
     7    8    9 1
     8    9   10 1
     9   11    9 1
    10   12   11 1
    11   13   11 1
    12   14   13 1
    13   15   13 1
    14   16    7 1
    15   17   16 1
    16   18   16 1
    17   19    7 1
    18   20   19 1
    19   21   19 1
    20   22   19 1
    21   23    7 1
    22   24   23 1
    23   25   24 1
    24   26   24 1
    25   27   24 1
    26   28   23 1
    27   29   28 1
    28   30   28 1
    29   31   28 1
    30   32    4 1
    31   33    1 1
    32   34   33 1
    33   35   33 1
    34   36   35 1
    35   37    2 1
    36   38   37 1
    37   39   37 1
    38   40   35 1
    39   41   40 ar
    40   42   41 1
    41   43   41 ar
    42   44   43 1
    43   45   43 ar
    44   46   45 1
    45   47   45 ar
    46   48   47 1
    47   49   40 ar
    48   50   49 1
    49   11   23 1
    50   13   16 1
    51   32   33 1
    52   35   37 1
    53   47   49 ar
@<TRIPOS>SUBSTRUCTURE
     1 RES1 1

@<TRIPOS>CRYSIN
   6.9518   13.8910   19.2440  90.0000  90.0000  90.0000  19 1

