# MOL2 file generated by ConQuest
# Please check atom types

@<TRIPOS>MOLECULE
FONYOX
    53    56     1
SMALL
NO_CHARGES
****
Generated from CSD

@<TRIPOS>ATOM
      1 O1        -0.3105    1.7488   19.3527 O.3       1 RES1    0.0000
      2 O2        -1.5490    2.4596   21.0264 O.2       1 RES1    0.0000
      3 O3        -1.2224   -0.1705   25.2879 O.2       1 RES1    0.0000
      4 O4         0.8944   -0.1313   25.0924 O.2       1 RES1    0.0000
      5 N1         2.0424    2.2360   20.8808 N.2       1 RES1    0.0000
      6 N2        -0.2077    0.1779   24.7310 N.pl3     1 RES1    0.0000
      7 C1         2.0811    1.7248   19.7166 C.2       1 RES1    0.0000
      8 C2         3.1825    1.8659   18.7049 C.3       1 RES1    0.0000
      9 H1         3.9369    2.4289   18.9761 H         1 RES1    0.0000
     10 C3         3.5484    0.4527   18.2258 C.3       1 RES1    0.0000
     11 H2         4.3589    0.4662   17.6927 H         1 RES1    0.0000
     12 H3         3.6752   -0.1460   18.9784 H         1 RES1    0.0000
     13 C4         2.3442    0.0245   17.3813 C.3       1 RES1    0.0000
     14 H4         1.9601   -0.7986   17.7200 H         1 RES1    0.0000
     15 H5         2.6001   -0.1055   16.4547 H         1 RES1    0.0000
     16 C5         1.3500    1.1899   17.5174 C.3       1 RES1    0.0000
     17 C6         0.9308    1.0808   19.0045 C.3       1 RES1    0.0000
     18 H6         0.8762    0.1362   19.2600 H         1 RES1    0.0000
     19 C7         2.3318    2.4093   17.5185 C.3       1 RES1    0.0000
     20 C8         3.1409    2.5639   16.2292 C.3       1 RES1    0.0000
     21 H7         2.5534    2.8043   15.5098 H         1 RES1    0.0000
     22 H8         3.5768    1.7334   16.0232 H         1 RES1    0.0000
     23 H9         3.8013    3.2509   16.3457 H         1 RES1    0.0000
     24 C9         1.6488    3.7563   17.8047 C.3       1 RES1    0.0000
     25 H10        1.1065    3.6790   18.5922 H         1 RES1    0.0000
     26 H11        1.0963    4.0004   17.0590 H         1 RES1    0.0000
     27 H12        2.3180    4.4322   17.9403 H         1 RES1    0.0000
     28 C10        0.2121    1.1887   16.5247 C.3       1 RES1    0.0000
     29 H13        0.5664    1.1887   15.6325 H         1 RES1    0.0000
     30 H14       -0.3273    1.9726   16.6546 H         1 RES1    0.0000
     31 H15       -0.3251    0.4048   16.6546 H         1 RES1    0.0000
     32 C11       -0.4665    2.0990   20.6463 C.2       1 RES1    0.0000
     33 C12        0.7515    2.1259   21.5568 C.3       1 RES1    0.0000
     34 H16        0.6640    2.9479   22.0835 H         1 RES1    0.0000
     35 C13        0.7982    0.9729   22.5973 C.3       1 RES1    0.0000
     36 H17        1.6146    1.1053   23.1239 H         1 RES1    0.0000
     37 C14       -0.3645    1.0979   23.5650 C.3       1 RES1    0.0000
     38 H18       -0.4206    2.0119   23.8826 H         1 RES1    0.0000
     39 H19       -1.1911    0.8906   23.1012 H         1 RES1    0.0000
     40 C15        0.9090   -0.4119   21.9638 C.ar      1 RES1    0.0000
     41 C16       -0.2150   -0.9998   21.4150 C.ar      1 RES1    0.0000
     42 H20       -1.0351   -0.5655   21.4793 H         1 RES1    0.0000
     43 C17       -0.1436   -2.2265   20.7697 C.ar      1 RES1    0.0000
     44 H21       -0.9068   -2.6142   20.4072 H         1 RES1    0.0000
     45 C18        1.0577   -2.8546   20.6766 C.ar      1 RES1    0.0000
     46 H22        1.1204   -3.6667   20.2277 H         1 RES1    0.0000
     47 C19        2.1642   -2.3050   21.2308 C.ar      1 RES1    0.0000
     48 H23        2.9718   -2.7626   21.1704 H         1 RES1    0.0000
     49 C20        2.1321   -1.0709   21.8914 C.ar      1 RES1    0.0000
     50 C21        3.3895   -0.5238   22.5115 C.3       1 RES1    0.0000
     51 H24        3.6235    0.3030   22.0835 H         1 RES1    0.0000
     52 H25        4.1038   -1.1556   22.3970 H         1 RES1    0.0000
     53 H26        3.2444   -0.3717   23.4487 H         1 RES1    0.0000
@<TRIPOS>BOND
     1    1   17 1
     2    2   32 2
     3    3    6 2
     4    4    6 2
     5    5    7 2
     6    6   37 1
     7    7    8 1
     8    8    9 1
     9   10    8 1
    10   11   10 1
    11   12   10 1
    12   13   10 1
    13   14   13 1
    14   15   13 1
    15   16   13 1
    16   17    7 1
    17   18   17 1
    18   19    8 1
    19   20   19 1
    20   21   20 1
    21   22   20 1
    22   23   20 1
    23   24   19 1
    24   25   24 1
    25   26   24 1
    26   27   24 1
    27   28   16 1
    28   29   28 1
    29   30   28 1
    30   31   28 1
    31   32    1 1
    32   33    5 1
    33   34   33 1
    34   35   33 1
    35   36   35 1
    36   37   35 1
    37   38   37 1
    38   39   37 1
    39   40   35 1
    40   41   40 ar
    41   42   41 1
    42   43   41 ar
    43   44   43 1
    44   45   43 ar
    45   46   45 1
    46   47   45 ar
    47   48   47 1
    48   49   40 ar
    49   50   49 1
    50   51   50 1
    51   52   50 1
    52   53   50 1
    53   16   17 1
    54   16   19 1
    55   32   33 1
    56   47   49 ar
@<TRIPOS>SUBSTRUCTURE
     1 RES1 1

@<TRIPOS>CRYSIN
   7.2892   12.2674   22.7150  90.0000  90.0000  90.0000  19 1

