# MOL2 file generated by ConQuest
# Please check atom types

@<TRIPOS>MOLECULE
FONZEO
    53    56     1
SMALL
NO_CHARGES
****
Generated from CSD

@<TRIPOS>ATOM
      1 C1         5.8277   10.0844    3.6815 C.ar      1 RES1    0.0000
      2 C2         5.8708    8.6431    6.1070 C.ar      1 RES1    0.0000
      3 C3         4.6705    9.5086    4.1931 C.ar      1 RES1    0.0000
      4 H1         3.8687    9.5985    3.7312 H         1 RES1    0.0000
      5 C4         7.0155    9.2210    5.6000 C.ar      1 RES1    0.0000
      6 H2         7.8159    9.1237    6.0622 H         1 RES1    0.0000
      7 C5         7.0030    9.9440    4.4173 C.ar      1 RES1    0.0000
      8 H3         7.7874   10.3395    4.1118 H         1 RES1    0.0000
      9 C6         4.6990    8.8025    5.3840 C.ar      1 RES1    0.0000
     10 H4         3.9125    8.4258    5.7073 H         1 RES1    0.0000
     11 C7         5.8875    7.8602    7.3968 C.3       1 RES1    0.0000
     12 H5         6.3534    7.0316    7.2632 H         1 RES1    0.0000
     13 H6         4.9855    7.6791    7.6715 H         1 RES1    0.0000
     14 H7         6.3326    8.3726    8.0757 H         1 RES1    0.0000
     15 C8         6.4355    7.2961    2.1979 C.3       1 RES1    0.0000
     16 H8         6.1559    7.5424    3.1041 H         1 RES1    0.0000
     17 C9         6.9842    5.8585    2.1965 C.3       1 RES1    0.0000
     18 C10        7.6337    8.1083    1.7995 C.2       1 RES1    0.0000
     19 C11        7.7387    5.7954    3.5439 C.3       1 RES1    0.0000
     20 H9         7.1782    6.1093    4.2716 H         1 RES1    0.0000
     21 H10        8.0287    4.8906    3.7371 H         1 RES1    0.0000
     22 C12        8.8055    7.1843    1.8735 C.3       1 RES1    0.0000
     23 H11        9.6289    7.5151    1.4554 H         1 RES1    0.0000
     24 C13        8.9453    6.7280    3.3380 C.3       1 RES1    0.0000
     25 H12        9.7798    6.2532    3.4768 H         1 RES1    0.0000
     26 H13        8.9078    7.4848    3.9442 H         1 RES1    0.0000
     27 C14        7.7603    6.1725   -0.2654 C.3       1 RES1    0.0000
     28 H14        7.1073    6.8748   -0.3017 H         1 RES1    0.0000
     29 H15        7.3855    5.3683   -0.6330 H         1 RES1    0.0000
     30 H16        8.5329    6.4273   -0.7750 H         1 RES1    0.0000
     31 C15        8.1685    5.9273    1.1973 C.3       1 RES1    0.0000
     32 C16        9.0907    4.7056    1.2122 C.3       1 RES1    0.0000
     33 H17        8.5900    3.9237    0.9683 H         1 RES1    0.0000
     34 H18        9.4544    4.5899    2.0924 H         1 RES1    0.0000
     35 H19        9.8056    4.8374    0.5857 H         1 RES1    0.0000
     36 C17        5.9362    4.7837    1.9960 C.3       1 RES1    0.0000
     37 H20        5.3054    4.8129    2.7195 H         1 RES1    0.0000
     38 H21        6.3604    3.9223    1.9760 H         1 RES1    0.0000
     39 H22        5.4786    4.9338    1.1655 H         1 RES1    0.0000
     40 O1         4.2053    9.0486    0.1670 O.2       1 RES1    0.0000
     41 O2         5.3430    7.5274    1.2669 O.3       1 RES1    0.0000
     42 C18        6.2366    9.8260    1.1568 C.3       1 RES1    0.0000
     43 H23        6.2756   10.4014    0.3648 H         1 RES1    0.0000
     44 C19        5.1740    8.7962    0.8437 C.2       1 RES1    0.0000
     45 N1         7.5934    9.2775    1.2992 N.2       1 RES1    0.0000
     46 N2         4.2526   12.5615    3.0011 N.pl3     1 RES1    0.0000
     47 O3         5.0516   13.4307    3.2269 O.2       1 RES1    0.0000
     48 O4         3.1816   12.4457    3.5914 O.2       1 RES1    0.0000
     49 C20        5.8757   10.7831    2.3401 C.3       1 RES1    0.0000
     50 H24        6.5892   11.4532    2.3922 H         1 RES1    0.0000
     51 C21        4.5975   11.5248    1.9715 C.3       1 RES1    0.0000
     52 H25        4.7115   11.9539    1.1083 H         1 RES1    0.0000
     53 H26        3.8680   10.8906    1.8972 H         1 RES1    0.0000
@<TRIPOS>BOND
     1    1    3 ar
     2    2    5 ar
     3    3    4 1
     4    5    6 1
     5    7    1 ar
     6    8    7 1
     7    9    2 ar
     8   10    9 1
     9   11    2 1
    10   12   11 1
    11   13   11 1
    12   14   11 1
    13   15   16 1
    14   17   15 1
    15   18   15 1
    16   19   17 1
    17   20   19 1
    18   21   19 1
    19   22   18 1
    20   23   22 1
    21   24   19 1
    22   25   24 1
    23   26   24 1
    24   27   28 1
    25   29   27 1
    26   30   27 1
    27   31   17 1
    28   32   31 1
    29   33   32 1
    30   34   32 1
    31   35   32 1
    32   36   17 1
    33   37   36 1
    34   38   36 1
    35   39   36 1
    36   40   44 2
    37   41   15 1
    38   42   43 1
    39   44   41 1
    40   45   18 2
    41   46   47 2
    42   48   46 2
    43   49    1 1
    44   50   49 1
    45   51   46 1
    46   52   51 1
    47   53   51 1
    48    3    9 ar
    49    5    7 ar
    50   22   24 1
    51   22   31 1
    52   27   31 1
    53   42   44 1
    54   42   45 1
    55   42   49 1
    56   49   51 1
@<TRIPOS>SUBSTRUCTURE
     1 RES1 1

@<TRIPOS>CRYSIN
   6.9543   14.3884   19.7210  90.0000  90.0000  90.0000  19 1

