# MOL2 file generated by ConQuest
# Please check atom types

@<TRIPOS>MOLECULE
FONZAK
    50    53     1
SMALL
NO_CHARGES
****
Generated from CSD

@<TRIPOS>ATOM
      1 C1         1.2194    8.3819   15.9569 C.ar      1 RES1    0.0000
      2 C2         2.4312    7.7128   15.9886 C.ar      1 RES1    0.0000
      3 H1         3.1662    8.1136   16.3929 H         1 RES1    0.0000
      4 C3         0.1619    7.7661   15.3585 C.ar      1 RES1    0.0000
      5 H2        -0.6582    8.2038   15.3232 H         1 RES1    0.0000
      6 C4         1.4742    5.8523   14.8500 C.ar      1 RES1    0.0000
      7 H3         1.5412    4.9974   14.4899 H         1 RES1    0.0000
      8 C5         2.5652    6.4380   15.4194 C.ar      1 RES1    0.0000
      9 H4         3.3853    6.0002   15.4303 H         1 RES1    0.0000
     10 C6         0.2799    6.5193   14.8068 C.ar      1 RES1    0.0000
     11 H5        -0.4558    6.1229   14.3994 H         1 RES1    0.0000
     12 C7         0.6073    6.9500   18.8465 C.3       1 RES1    0.0000
     13 H6         0.8893    6.5873   17.9817 H         1 RES1    0.0000
     14 C8        -0.6087    7.8073   18.6585 C.2       1 RES1    0.0000
     15 C9         0.0838    5.8058   19.7392 C.3       1 RES1    0.0000
     16 C10       -1.1238    6.4624   20.4583 C.3       1 RES1    0.0000
     17 C11       -0.6205    4.8998   18.7227 C.3       1 RES1    0.0000
     18 H7        -0.8983    4.0657   19.1346 H         1 RES1    0.0000
     19 H8        -0.0391    4.7031   17.9706 H         1 RES1    0.0000
     20 C12       -1.8393    5.7281   18.2751 C.3       1 RES1    0.0000
     21 H9        -1.7834    5.9469   17.3314 H         1 RES1    0.0000
     22 H10       -2.6657    5.2474   18.4399 H         1 RES1    0.0000
     23 C13        1.1266    5.1243   20.5896 C.3       1 RES1    0.0000
     24 H11        0.7273    4.3866   21.0560 H         1 RES1    0.0000
     25 H12        1.4812    5.7517   21.2241 H         1 RES1    0.0000
     26 H13        1.8358    4.8022   20.0287 H         1 RES1    0.0000
     27 C14       -1.7569    6.9895   19.1394 C.3       1 RES1    0.0000
     28 H14       -2.6001    7.4777   19.2473 H         1 RES1    0.0000
     29 C15       -0.7559    7.5657   21.4439 C.3       1 RES1    0.0000
     30 H15       -0.3846    7.1745   22.2384 H         1 RES1    0.0000
     31 H16       -1.5426    8.0663   21.6712 H         1 RES1    0.0000
     32 H17       -0.1082    8.1506   21.0430 H         1 RES1    0.0000
     33 C16       -2.0417    5.4751   21.2019 C.3       1 RES1    0.0000
     34 H18       -1.5510    5.0536   21.9114 H         1 RES1    0.0000
     35 H19       -2.3551    4.8067   20.5885 H         1 RES1    0.0000
     36 H20       -2.7913    5.9499   21.5696 H         1 RES1    0.0000
     37 O1         1.6871    7.7221   19.4217 O.3       1 RES1    0.0000
     38 O2         2.8130    9.5961   19.2912 O.2       1 RES1    0.0000
     39 C17        1.8288    8.9861   18.9657 C.2       1 RES1    0.0000
     40 C18        0.7210    9.6092   18.1480 C.3       1 RES1    0.0000
     41 H21        0.6561   10.5332   18.4676 H         1 RES1    0.0000
     42 N1        -0.6087    9.0340   18.3680 N.2       1 RES1    0.0000
     43 C19        1.0184    9.7241   16.6332 C.3       1 RES1    0.0000
     44 H22        0.2185   10.1176   16.2266 H         1 RES1    0.0000
     45 C20        2.1199   10.6974   16.4069 C.3       1 RES1    0.0000
     46 H23        2.9386   10.3395   16.7827 H         1 RES1    0.0000
     47 H24        1.9139   11.5212   16.8769 H         1 RES1    0.0000
     48 N2         2.3453   11.0065   14.9666 N.pl3     1 RES1    0.0000
     49 O3         3.4663   11.0435   14.6082 O.2       1 RES1    0.0000
     50 O4         1.3932   11.2209   14.2762 O.2       1 RES1    0.0000
@<TRIPOS>BOND
     1    1    2 ar
     2    2    3 1
     3    4    1 ar
     4    5    4 1
     5    6    7 1
     6    8    2 ar
     7    9    8 1
     8   10    4 ar
     9   11   10 1
    10   12   13 1
    11   14   12 1
    12   15   12 1
    13   16   15 1
    14   17   15 1
    15   18   17 1
    16   19   17 1
    17   20   17 1
    18   21   20 1
    19   22   20 1
    20   23   15 1
    21   24   23 1
    22   25   23 1
    23   26   23 1
    24   27   14 1
    25   28   27 1
    26   29   16 1
    27   30   29 1
    28   31   29 1
    29   32   29 1
    30   33   16 1
    31   34   33 1
    32   35   33 1
    33   36   33 1
    34   37   12 1
    35   38   39 2
    36   39   37 1
    37   40   39 1
    38   41   40 1
    39   42   14 2
    40   43    1 1
    41   44   43 1
    42   45   43 1
    43   46   45 1
    44   47   45 1
    45   48   45 1
    46   49   48 2
    47   50   48 2
    48    6    8 ar
    49    6   10 ar
    50   16   27 1
    51   20   27 1
    52   40   42 1
    53   40   43 1
@<TRIPOS>SUBSTRUCTURE
     1 RES1 1

@<TRIPOS>CRYSIN
   6.9801   14.7897   18.4750  90.0000  90.0000  90.0000  19 1

