# MOL2 file generated by ConQuest
# Please check atom types

@<TRIPOS>MOLECULE
FOPZIV
    94    98     2
SMALL
NO_CHARGES
****
Generated from CSD

@<TRIPOS>ATOM
      1 O1         2.9859    0.8616    1.6115 O.2       1 RES1    0.0000
      2 O2         1.7280    2.3634    2.5530 O.2       1 RES1    0.0000
      3 O3         3.4093    3.7342    0.1732 O.3       1 RES1    0.0000
      4 H1         3.5070    4.3911   -0.3410 H         1 RES1    0.0000
      5 O4         4.5263    6.3635    1.1584 O.3       1 RES1    0.0000
      6 O5         4.4336    6.2048    3.4560 O.3       1 RES1    0.0000
      7 O6         6.5814    3.2681    3.3699 O.3       1 RES1    0.0000
      8 H2         7.1487    3.1626    3.9808 H         1 RES1    0.0000
      9 O7         4.6543    1.9073   10.0838 O.3       1 RES1    0.0000
     10 N1         2.8055    1.9503    2.1432 N.pl3     1 RES1    0.0000
     11 N2         4.3885    1.8960    4.4893 N.pl3     1 RES1    0.0000
     12 H3         5.1366    1.4537    4.1739 H         1 RES1    0.0000
     13 C1         3.7254    4.1218    1.4998 C.3       1 RES1    0.0000
     14 H4         2.9365    4.5915    1.8961 H         1 RES1    0.0000
     15 C2         4.9370    5.0522    1.5603 C.3       1 RES1    0.0000
     16 H5         5.6774    4.7144    0.9786 H         1 RES1    0.0000
     17 C3         5.4249    5.2853    2.9842 C.3       1 RES1    0.0000
     18 H6         6.3188    5.7350    2.9641 H         1 RES1    0.0000
     19 C4         5.4947    4.0454    3.8605 C.3       1 RES1    0.0000
     20 H7         5.6625    4.3069    4.8106 H         1 RES1    0.0000
     21 C5         4.2335    3.1659    3.7709 C.3       1 RES1    0.0000
     22 H8         3.4499    3.6656    4.1385 H         1 RES1    0.0000
     23 C6         3.9965    2.8568    2.2971 C.3       1 RES1    0.0000
     24 H9         4.8048    2.4015    1.9236 H         1 RES1    0.0000
     25 C7         4.2153    7.1131    2.3653 C.3       1 RES1    0.0000
     26 C8         2.7613    7.5280    2.3509 C.3       1 RES1    0.0000
     27 H10        2.5654    8.0588    3.1510 H         1 RES1    0.0000
     28 H11        2.1935    6.7295    2.3416 H         1 RES1    0.0000
     29 H12        2.5825    8.0653    1.5507 H         1 RES1    0.0000
     30 C9         5.1623    8.2912    2.4362 C.3       1 RES1    0.0000
     31 H13        6.0874    7.9669    2.4381 H         1 RES1    0.0000
     32 H14        4.9920    8.7987    3.2573 H         1 RES1    0.0000
     33 H15        5.0212    8.8712    1.6588 H         1 RES1    0.0000
     34 C10        4.4790    1.9365    5.9189 C.ar      1 RES1    0.0000
     35 C11        3.9379    2.9697    6.6882 C.ar      1 RES1    0.0000
     36 H16        3.5299    3.7136    6.2613 H         1 RES1    0.0000
     37 C12        3.9952    2.9131    8.0787 C.ar      1 RES1    0.0000
     38 H17        3.6164    3.6147    8.5958 H         1 RES1    0.0000
     39 C13        4.6041    1.8351    8.7167 C.ar      1 RES1    0.0000
     40 C14        5.1097    0.7805    7.9591 C.ar      1 RES1    0.0000
     41 H18        5.4985    0.0273    8.3885 H         1 RES1    0.0000
     42 C15        5.0411    0.8369    6.5679 C.ar      1 RES1    0.0000
     43 H19        5.3824    0.1156    6.0532 H         1 RES1    0.0000
     44 C16        5.4962    0.9624   10.7421 C.3       1 RES1    0.0000
     45 H20        5.5467    1.1789   11.6963 H         1 RES1    0.0000
     46 H21        6.3948    0.9976   10.3519 H         1 RES1    0.0000
     47 H22        5.1263    0.0616   10.6300 H         1 RES1    0.0000
     48 O8         2.2988    0.3600   -4.5536 O.2       2 RES2    0.0000
     49 O9         1.7061    1.1755   -2.6362 O.2       2 RES2    0.0000
     50 O10        1.3497    3.6015   -4.8465 O.3       2 RES2    0.0000
     51 H23        1.6789    3.5871   -5.6192 H         2 RES2    0.0000
     52 O11        2.5662    6.0866   -3.6996 O.3       2 RES2    0.0000
     53 O12        3.9430    5.4419   -1.9899 O.3       2 RES2    0.0000
     54 O13        5.9401    3.3480   -4.2337 O.3       2 RES2    0.0000
     55 H24        6.5687    3.8982   -4.3253 H         2 RES2    0.0000
     56 O14        8.6968    0.1556    1.3057 O.3       2 RES2    0.0000
     57 N3         2.3370    1.2157   -3.6751 N.pl3     2 RES2    0.0000
     58 N4         5.0403    1.1540   -2.8201 N.pl3     2 RES2    0.0000
     59 H25        5.4403    1.0338   -3.6505 H         2 RES2    0.0000
     60 C17        2.3955    3.6669   -3.8866 C.3       2 RES2    0.0000
     61 H26        1.9777    3.7463   -2.9819 H         2 RES2    0.0000
     62 C18        3.2745    4.9035   -4.1094 C.3       2 RES2    0.0000
     63 H27        3.5433    4.9725   -5.0701 H         2 RES2    0.0000
     64 C19        4.5029    4.9454   -3.2102 C.3       2 RES2    0.0000
     65 H28        5.1434    5.6240   -3.5708 H         2 RES2    0.0000
     66 C20        5.2395    3.6241   -3.0242 C.3       2 RES2    0.0000
     67 H29        5.8863    3.6995   -2.2654 H         2 RES2    0.0000
     68 C21        4.3094    2.4226   -2.8006 C.3       2 RES2    0.0000
     69 H30        3.8562    2.5226   -1.9147 H         2 RES2    0.0000
     70 C22        3.2492    2.3997   -3.9007 C.3       2 RES2    0.0000
     71 H31        3.6958    2.3096   -4.7912 H         2 RES2    0.0000
     72 C23        3.0437    6.4893   -2.3796 C.3       2 RES2    0.0000
     73 C24        3.7677    7.8172   -2.5070 C.3       2 RES2    0.0000
     74 H32        4.1147    8.0857   -1.6304 H         2 RES2    0.0000
     75 H33        3.1447    8.4989   -2.8348 H         2 RES2    0.0000
     76 H34        4.5119    7.7243   -3.1386 H         2 RES2    0.0000
     77 C25        1.8921    6.5349   -1.4081 C.3       2 RES2    0.0000
     78 H35        2.2267    6.7610   -0.5154 H         2 RES2    0.0000
     79 H36        1.4529    5.6588   -1.3798 H         2 RES2    0.0000
     80 H37        1.2474    7.2141   -1.6968 H         2 RES2    0.0000
     81 C26        6.0064    0.9427   -1.8027 C.ar      2 RES2    0.0000
     82 C27        7.2090    0.3132   -2.0917 C.ar      2 RES2    0.0000
     83 H38        7.4055    0.0745   -2.9898 H         2 RES2    0.0000
     84 C28        8.1377    0.0237   -1.0867 C.ar      2 RES2    0.0000
     85 H39        8.9478   -0.4243   -1.3001 H         2 RES2    0.0000
     86 C29        7.8706    0.3927    0.2196 C.ar      2 RES2    0.0000
     87 C30        6.6988    1.0612    0.5101 C.ar      2 RES2    0.0000
     88 H40        6.5294    1.3477    1.4002 H         2 RES2    0.0000
     89 C31        5.7638    1.3194   -0.4851 C.ar      2 RES2    0.0000
     90 H41        4.9510    1.7580   -0.2639 H         2 RES2    0.0000
     91 C32        9.8990   -0.5622    1.0440 C.3       2 RES2    0.0000
     92 H42       10.4403   -0.6008    1.8598 H         2 RES2    0.0000
     93 H43       10.4041   -0.1069    0.3383 H         2 RES2    0.0000
     94 H44        9.6796   -1.4719    0.7537 H         2 RES2    0.0000
@<TRIPOS>BOND
     1    1   10 2
     2    2   10 2
     3    3    4 1
     4    5   15 1
     5    6   17 1
     6    7    8 1
     7    9   39 1
     8   10   23 1
     9   11   12 1
    10   13    3 1
    11   14   13 1
    12   15   13 1
    13   16   15 1
    14   17   15 1
    15   18   17 1
    16   19    7 1
    17   20   19 1
    18   21   11 1
    19   22   21 1
    20   23   13 1
    21   24   23 1
    22   25    5 1
    23   26   25 1
    24   27   26 1
    25   28   26 1
    26   29   26 1
    27   30   25 1
    28   31   30 1
    29   32   30 1
    30   33   30 1
    31   34   11 1
    32   35   34 ar
    33   36   35 1
    34   37   35 ar
    35   38   37 1
    36   39   37 ar
    37   40   39 ar
    38   41   40 1
    39   42   34 ar
    40   43   42 1
    41   44    9 1
    42   45   44 1
    43   46   44 1
    44   47   44 1
    45   48   57 2
    46   49   57 2
    47   50   51 1
    48   52   62 1
    49   53   64 1
    50   54   55 1
    51   56   86 1
    52   57   70 1
    53   58   59 1
    54   60   50 1
    55   61   60 1
    56   62   60 1
    57   63   62 1
    58   64   62 1
    59   65   64 1
    60   66   54 1
    61   67   66 1
    62   68   58 1
    63   69   68 1
    64   70   60 1
    65   71   70 1
    66   72   52 1
    67   73   72 1
    68   74   73 1
    69   75   73 1
    70   76   73 1
    71   77   72 1
    72   78   77 1
    73   79   77 1
    74   80   77 1
    75   81   58 1
    76   82   81 ar
    77   83   82 1
    78   84   82 ar
    79   85   84 1
    80   86   84 ar
    81   87   86 ar
    82   88   87 1
    83   89   81 ar
    84   90   89 1
    85   91   56 1
    86   92   91 1
    87   93   91 1
    88   94   91 1
    89    6   25 1
    90   17   19 1
    91   19   21 1
    92   21   23 1
    93   40   42 ar
    94   53   72 1
    95   64   66 1
    96   66   68 1
    97   68   70 1
    98   87   89 ar
@<TRIPOS>SUBSTRUCTURE
     1 RES1 1
     2 RES2 48

@<TRIPOS>CRYSIN
   9.7564    9.9572   10.1902 109.1940 111.4370  90.7140   1 1

