# MOL2 file generated by ConQuest
# Please check atom types

@<TRIPOS>MOLECULE
FOPZUG
    60    63     1
SMALL
NO_CHARGES
****
Generated from CSD

@<TRIPOS>ATOM
      1 C1         6.7098    0.7769    0.4599 C.3       1 RES1    0.0000
      2 H1         5.8605    1.1786    0.1797 H         1 RES1    0.0000
      3 O1         6.4397   -0.2368    1.4313 O.3       1 RES1    0.0000
      4 H2         5.8182    0.0028    1.9108 H         1 RES1    0.0000
      5 C2         7.3279    0.1001   -0.7150 C.3       1 RES1    0.0000
      6 H3         8.1385   -0.3674   -0.4246 H         1 RES1    0.0000
      7 C3         7.6645    0.9802   -1.9063 C.3       1 RES1    0.0000
      8 H4         7.5994    1.9218   -1.6838 H         1 RES1    0.0000
      9 H5         8.5520    0.7917   -2.2506 H         1 RES1    0.0000
     10 C4         6.6006    0.5703   -2.8751 C.2       1 RES1    0.0000
     11 N1         5.9244   -0.4368   -2.4983 N.2       1 RES1    0.0000
     12 O2         6.3821   -0.8701   -1.2386 O.3       1 RES1    0.0000
     13 C5         6.3108    1.1749   -4.1988 C.ar      1 RES1    0.0000
     14 C6         5.4579    2.2750   -4.2885 C.ar      1 RES1    0.0000
     15 C7         5.1070    2.7456   -5.5335 C.ar      1 RES1    0.0000
     16 H6         4.5250    3.4693   -5.5921 H         1 RES1    0.0000
     17 C8         5.5809    2.1881   -6.6872 C.ar      1 RES1    0.0000
     18 C9         6.4679    1.1236   -6.5661 C.ar      1 RES1    0.0000
     19 H7         6.8125    0.7418   -7.3412 H         1 RES1    0.0000
     20 C10        6.8574    0.6090   -5.3474 C.ar      1 RES1    0.0000
     21 C11        4.9354    2.9529   -3.0482 C.3       1 RES1    0.0000
     22 H8         4.3534    3.6745   -3.2991 H         1 RES1    0.0000
     23 H9         5.6715    3.2973   -2.5380 H         1 RES1    0.0000
     24 H10        4.4476    2.3184   -2.5184 H         1 RES1    0.0000
     25 C12        5.1774    2.7094   -8.0275 C.3       1 RES1    0.0000
     26 H11        4.3117    2.3642   -8.2575 H         1 RES1    0.0000
     27 H12        5.8178    2.4307   -8.6854 H         1 RES1    0.0000
     28 H13        5.1426    3.6689   -8.0011 H         1 RES1    0.0000
     29 C13        7.8350   -0.5322   -5.2769 C.3       1 RES1    0.0000
     30 H14        7.3662   -1.3422   -5.0629 H         1 RES1    0.0000
     31 H15        8.4890   -0.3522   -4.5975 H         1 RES1    0.0000
     32 H16        8.2729   -0.6309   -6.1261 H         1 RES1    0.0000
     33 C14        7.5779    1.8569    1.0714 C.3       1 RES1    0.0000
     34 H17        7.6774    2.5874    0.4246 H         1 RES1    0.0000
     35 C15        7.0956    2.4346    2.3972 C.3       1 RES1    0.0000
     36 H18        7.0396    3.4027    2.3649 H         1 RES1    0.0000
     37 H19        6.2338    2.0702    2.6523 H         1 RES1    0.0000
     38 C16        8.1767    1.9796    3.3170 C.2       1 RES1    0.0000
     39 N2         9.1326    1.3697    2.7299 N.2       1 RES1    0.0000
     40 O3         8.8776    1.3006    1.3474 O.3       1 RES1    0.0000
     41 C17        8.2498    2.1771    4.7822 C.ar      1 RES1    0.0000
     42 C18        7.5288    1.3299    5.6215 C.ar      1 RES1    0.0000
     43 C19        7.7484    1.4385    6.9859 C.ar      1 RES1    0.0000
     44 H20        7.2917    0.8625    7.5552 H         1 RES1    0.0000
     45 C20        8.6043    2.3504    7.5353 C.ar      1 RES1    0.0000
     46 C21        9.2394    3.2399    6.6811 C.ar      1 RES1    0.0000
     47 H21        9.7918    3.8977    7.0375 H         1 RES1    0.0000
     48 C22        9.0689    3.1705    5.3082 C.ar      1 RES1    0.0000
     49 C23        6.5885    0.2949    5.0853 C.3       1 RES1    0.0000
     50 H22        6.3328   -0.3023    5.7913 H         1 RES1    0.0000
     51 H23        7.0224   -0.2011    4.3884 H         1 RES1    0.0000
     52 H24        5.8063    0.7252    4.7330 H         1 RES1    0.0000
     53 C24        8.8818    2.3711    9.0078 C.3       1 RES1    0.0000
     54 H25        8.1082    2.0619    9.4840 H         1 RES1    0.0000
     55 H26        9.0892    3.2682    9.2815 H         1 RES1    0.0000
     56 H27        9.6264    1.7970    9.2015 H         1 RES1    0.0000
     57 C25        9.7744    4.1622    4.4366 C.3       1 RES1    0.0000
     58 H28       10.1959    4.8281    4.9845 H         1 RES1    0.0000
     59 H29        9.1392    4.5841    3.8527 H         1 RES1    0.0000
     60 H30       10.4399    3.7105    3.9115 H         1 RES1    0.0000
@<TRIPOS>BOND
     1    1    2 1
     2    3    1 1
     3    4    3 1
     4    5    1 1
     5    6    5 1
     6    7    5 1
     7    8    7 1
     8    9    7 1
     9   10    7 1
    10   11   10 2
    11   12    5 1
    12   13   10 1
    13   14   13 ar
    14   15   14 ar
    15   16   15 1
    16   17   15 ar
    17   18   17 ar
    18   19   18 1
    19   20   13 ar
    20   21   14 1
    21   22   21 1
    22   23   21 1
    23   24   21 1
    24   25   17 1
    25   26   25 1
    26   27   25 1
    27   28   25 1
    28   29   20 1
    29   30   29 1
    30   31   29 1
    31   32   29 1
    32   33    1 1
    33   34   33 1
    34   35   33 1
    35   36   35 1
    36   37   35 1
    37   38   35 1
    38   39   38 2
    39   40   33 1
    40   41   38 1
    41   42   41 ar
    42   43   42 ar
    43   44   43 1
    44   45   43 ar
    45   46   45 ar
    46   47   46 1
    47   48   41 ar
    48   49   42 1
    49   50   49 1
    50   51   49 1
    51   52   49 1
    52   53   45 1
    53   54   53 1
    54   55   53 1
    55   56   53 1
    56   57   48 1
    57   58   57 1
    58   59   57 1
    59   60   57 1
    60   11   12 1
    61   18   20 ar
    62   39   40 1
    63   46   48 ar
@<TRIPOS>SUBSTRUCTURE
     1 RES1 1

@<TRIPOS>CRYSIN
   9.6350   13.8660   16.4400  90.0000  96.5700  90.0000  14 1

