# MOL2 file generated by ConQuest
# Please check atom types

@<TRIPOS>MOLECULE
FOQGIC
    56    60     2
SMALL
NO_CHARGES
****
Generated from CSD

@<TRIPOS>ATOM
      1 O1        -1.2730    3.8513   -1.3252 O.3       1 RES1    0.0000
      2 N1        -0.3049    4.8216   -0.8869 N.2       1 RES1    0.0000
      3 C1         0.2766    4.3895    0.1677 C.2       1 RES1    0.0000
      4 C2        -0.1882    2.9958    0.5954 C.3       1 RES1    0.0000
      5 N2         0.8411    1.9819    0.4101 N.am      1 RES1    0.0000
      6 C3         0.6734    1.2470   -0.7050 C.2       1 RES1    0.0000
      7 O2        -0.4205    1.6973   -1.3827 O.3       1 RES1    0.0000
      8 C4        -1.1080    2.6709   -0.5900 C.3       1 RES1    0.0000
      9 H1        -2.0271    2.3053   -0.3918 H         1 RES1    0.0000
     10 C5         1.2589    5.2413    0.8614 C.ar      1 RES1    0.0000
     11 C6         1.4477    6.5668    0.4545 C.ar      1 RES1    0.0000
     12 H2         0.9969    6.8607   -0.2449 H         1 RES1    0.0000
     13 C7         2.3447    7.3769    1.1031 C.ar      1 RES1    0.0000
     14 H3         2.4265    8.3021    0.7986 H         1 RES1    0.0000
     15 C8         3.0742    6.8958    2.1679 C.ar      1 RES1    0.0000
     16 H4         3.6906    7.4324    2.6406 H         1 RES1    0.0000
     17 C9         2.8927    5.5984    2.5916 C.ar      1 RES1    0.0000
     18 H5         3.3786    5.2733    3.3647 H         1 RES1    0.0000
     19 C10        1.9958    4.7703    1.9351 C.ar      1 RES1    0.0000
     20 H6         1.8820    3.8907    2.2211 H         1 RES1    0.0000
     21 C11       -0.8773    2.9461    1.9438 C.3       1 RES1    0.0000
     22 H7        -1.2376    2.0601    2.0795 H         1 RES1    0.0000
     23 H8        -0.2557    3.1267    2.6406 H         1 RES1    0.0000
     24 H9        -1.5751    3.5615    1.9656 H         1 RES1    0.0000
     25 N3         1.6916    1.5915    1.4491 N.3       1 RES1    0.0000
     26 H10        2.5391    1.7920    1.2245 H         1 RES1    0.0000
     27 H11        1.5492    0.7055    1.5759 H         1 RES1    0.0000
     28 O3         1.3288    0.3165   -1.0865 O.2       1 RES1    0.0000
     29 O4         4.6836    1.1491    2.0370 O.3       2 RES2    0.0000
     30 N4         4.1637   -0.1074    2.5149 N.2       2 RES2    0.0000
     31 C12        4.6905   -0.3694    3.6520 C.2       2 RES2    0.0000
     32 C13        5.6427    0.7205    4.1465 C.3       2 RES2    0.0000
     33 N5         5.1372    1.4215    5.3181 N.am      2 RES2    0.0000
     34 C14        4.5559    2.5985    5.0287 C.2       2 RES2    0.0000
     35 O5         4.5731    2.7896    3.6794 O.3       2 RES2    0.0000
     36 C15        5.3857    1.7760    3.0677 C.3       2 RES2    0.0000
     37 H12        6.1696    2.2133    2.6789 H         2 RES2    0.0000
     38 C16        4.3897   -1.6443    4.3184 C.ar      2 RES2    0.0000
     39 C17        3.6221   -2.6091    3.6658 C.ar      2 RES2    0.0000
     40 H13        3.2919   -2.3948    2.8110 H         2 RES2    0.0000
     41 C18        3.3828   -3.8227    4.2559 C.ar      2 RES2    0.0000
     42 H14        2.8850   -4.4661    3.7906 H         2 RES2    0.0000
     43 C19        3.8853   -4.1059    5.5112 C.ar      2 RES2    0.0000
     44 H15        3.7390   -4.9283    5.9307 H         2 RES2    0.0000
     45 C20        4.6435   -3.1607    6.1695 C.ar      2 RES2    0.0000
     46 H16        5.0089   -3.3441    7.0381 H         2 RES2    0.0000
     47 C21        4.8897   -1.9410    5.5792 C.ar      2 RES2    0.0000
     48 H17        5.3883   -1.2899    6.0830 H         2 RES2    0.0000
     49 C22        7.0962    0.2913    4.2506 C.3       2 RES2    0.0000
     50 H18        7.6483    1.0513    4.4773 H         2 RES2    0.0000
     51 H19        7.2093   -0.4096    4.9064 H         2 RES2    0.0000
     52 H20        7.4112   -0.0545    3.3860 H         2 RES2    0.0000
     53 N6         5.5140    1.0693    6.6182 N.3       2 RES2    0.0000
     54 H21        4.7785    0.8317    7.0700 H         2 RES2    0.0000
     55 H22        5.8926    1.7996    7.0275 H         2 RES2    0.0000
     56 O6         4.0951    3.4064    5.7937 O.2       2 RES2    0.0000
@<TRIPOS>BOND
     1    1    2 1
     2    2    3 2
     3    3    4 1
     4    4    5 1
     5    5    6 1
     6    6    7 1
     7    7    8 1
     8    8    1 1
     9    9    8 1
    10   10    3 1
    11   11   10 ar
    12   12   11 1
    13   13   11 ar
    14   14   13 1
    15   15   13 ar
    16   16   15 1
    17   17   15 ar
    18   18   17 1
    19   19   10 ar
    20   20   19 1
    21   21    4 1
    22   22   21 1
    23   23   21 1
    24   24   21 1
    25   25    5 1
    26   26   25 1
    27   27   25 1
    28   28    6 2
    29   29   30 1
    30   30   31 2
    31   31   32 1
    32   32   33 1
    33   33   34 1
    34   34   35 1
    35   35   36 1
    36   36   29 1
    37   37   36 1
    38   38   31 1
    39   39   38 ar
    40   40   39 1
    41   41   39 ar
    42   42   41 1
    43   43   41 ar
    44   44   43 1
    45   45   43 ar
    46   46   45 1
    47   47   38 ar
    48   48   47 1
    49   49   32 1
    50   50   49 1
    51   51   49 1
    52   52   49 1
    53   53   33 1
    54   54   53 1
    55   55   53 1
    56   56   34 2
    57    4    8 1
    58   17   19 ar
    59   32   36 1
    60   45   47 ar
@<TRIPOS>SUBSTRUCTURE
     1 RES1 1
     2 RES2 29

@<TRIPOS>CRYSIN
  10.0900   10.7430   12.0740  95.5600 113.4600 110.5400   2 1

