# MOL2 file generated by ConQuest
# Please check atom types

@<TRIPOS>MOLECULE
FOQLEE
    49    52     1
SMALL
NO_CHARGES
****
Generated from CSD

@<TRIPOS>ATOM
      1 O1        -2.5997   15.3672    9.9343 O.2       1 RES1    0.0000
      2 O2        -4.0000   13.9445    9.1014 O.2       1 RES1    0.0000
      3 O3        -3.5212    9.3369    9.8737 O.2       1 RES1    0.0000
      4 O4        -1.7824    8.4906   10.8386 O.2       1 RES1    0.0000
      5 N1         4.6006    9.3542   15.4746 N.pl3     1 RES1    0.0000
      6 N2         4.4272   10.7111   15.3851 N.2       1 RES1    0.0000
      7 N3         3.6806    7.3010   14.5628 N.pl3     1 RES1    0.0000
      8 N4         1.1020   10.3651   12.7363 N.2       1 RES1    0.0000
      9 N5         0.0392   10.0238   11.9340 N.pl3     1 RES1    0.0000
     10 H1        -0.1388    9.1525   11.7057 H         1 RES1    0.0000
     11 N6        -2.9914   14.2184    9.7414 N.pl3     1 RES1    0.0000
     12 N7        -2.4426    9.4660   10.4461 N.pl3     1 RES1    0.0000
     13 C1         5.5605    8.8556   16.4106 C.ar      1 RES1    0.0000
     14 C2         6.6610    9.6548   16.7081 C.ar      1 RES1    0.0000
     15 H2         6.7738   10.4948   16.2786 H         1 RES1    0.0000
     16 C3         7.5914    9.2122   17.6396 C.ar      1 RES1    0.0000
     17 H3         8.3411    9.7549   17.8518 H         1 RES1    0.0000
     18 C4         7.4329    7.9830   18.2592 C.ar      1 RES1    0.0000
     19 H4         8.0770    7.6788   18.8867 H         1 RES1    0.0000
     20 C5         6.3316    7.1998   17.9581 C.ar      1 RES1    0.0000
     21 H5         6.2255    6.3565   18.3835 H         1 RES1    0.0000
     22 C6         5.3787    7.6306   17.0429 C.ar      1 RES1    0.0000
     23 H6         4.6160    7.0964   16.8519 H         1 RES1    0.0000
     24 C7         3.7164    8.6975   14.6707 C.2       1 RES1    0.0000
     25 C8         2.9249    9.6497   14.0561 C.2       1 RES1    0.0000
     26 C9         3.4166   10.8900   14.5462 C.2       1 RES1    0.0000
     27 C10        2.9227   12.2699   14.2628 C.3       1 RES1    0.0000
     28 H7         3.4917   12.9216   14.7230 H         1 RES1    0.0000
     29 H8         2.0002   12.3578   14.5808 H         1 RES1    0.0000
     30 H9         2.9520   12.4350   13.2964 H         1 RES1    0.0000
     31 C11        4.7087    6.5006   14.1178 C.2       1 RES1    0.0000
     32 H10        5.5243    6.8029   13.7340 H         1 RES1    0.0000
     33 C12        4.3555    5.2045   14.3208 C.2       1 RES1    0.0000
     34 H11        4.8756    4.4395   14.1016 H         1 RES1    0.0000
     35 C13        3.0705    5.1991   14.9199 C.2       1 RES1    0.0000
     36 H12        2.5735    4.4303   15.1759 H         1 RES1    0.0000
     37 C14        2.6774    6.4943   15.0617 C.2       1 RES1    0.0000
     38 H13        1.8570    6.7906   15.4385 H         1 RES1    0.0000
     39 C15        1.8156    9.3883   13.1651 C.2       1 RES1    0.0000
     40 H14        1.6162    8.4990   12.8982 H         1 RES1    0.0000
     41 C16       -0.7154   11.0126   11.4025 C.ar      1 RES1    0.0000
     42 C17       -0.3265   12.3686   11.5666 C.ar      1 RES1    0.0000
     43 H15        0.4599   12.5678   12.0602 H         1 RES1    0.0000
     44 C18       -1.0540   13.3958   11.0321 C.ar      1 RES1    0.0000
     45 H16       -0.7687   14.2948   11.1500 H         1 RES1    0.0000
     46 C19       -2.2193   13.1209   10.3109 C.ar      1 RES1    0.0000
     47 C20       -2.6569   11.8372   10.1297 C.ar      1 RES1    0.0000
     48 H17       -3.4549   11.6642    9.6447 H         1 RES1    0.0000
     49 C21       -1.9152   10.7886   10.6678 C.ar      1 RES1    0.0000
@<TRIPOS>BOND
     1    1   11 2
     2    2   11 2
     3    3   12 2
     4    4   12 2
     5    5    6 1
     6    6   26 2
     7    7   24 1
     8    8    9 1
     9    9   10 1
    10   11   46 1
    11   12   49 1
    12   13    5 1
    13   14   13 ar
    14   15   14 1
    15   16   14 ar
    16   17   16 1
    17   18   16 ar
    18   19   18 1
    19   20   18 ar
    20   21   20 1
    21   22   13 ar
    22   23   22 1
    23   24    5 1
    24   25   24 2
    25   26   25 1
    26   27   26 1
    27   28   27 1
    28   29   27 1
    29   30   27 1
    30   31    7 1
    31   32   31 1
    32   33   31 2
    33   34   33 1
    34   35   33 1
    35   36   35 1
    36   37    7 1
    37   38   37 1
    38   39    8 2
    39   40   39 1
    40   41    9 1
    41   42   41 ar
    42   43   42 1
    43   44   42 ar
    44   45   44 1
    45   46   44 ar
    46   47   46 ar
    47   48   47 1
    48   49   41 ar
    49   20   22 ar
    50   25   39 1
    51   35   37 2
    52   47   49 ar
@<TRIPOS>SUBSTRUCTURE
     1 RES1 1

@<TRIPOS>CRYSIN
   5.7955   15.4472   21.9289  90.0000  93.8310  90.0000 231 1

