# MOL2 file generated by ConQuest
# Please check atom types

@<TRIPOS>MOLECULE
FOQPIL
    41    43     1
SMALL
NO_CHARGES
****
Generated from CSD

@<TRIPOS>ATOM
      1 C1         3.4294    6.0208    6.8856 C.ar      1 RES1    0.0000
      2 C2         3.9154    7.3168    6.6534 C.ar      1 RES1    0.0000
      3 C3         3.4414    8.3369    7.4679 C.ar      1 RES1    0.0000
      4 H1         3.7696    9.1991    7.3471 H         1 RES1    0.0000
      5 C4         2.5028    8.1143    8.4473 C.ar      1 RES1    0.0000
      6 H2         2.2054    8.8191    8.9770 H         1 RES1    0.0000
      7 C5         2.0111    6.8610    8.6391 C.ar      1 RES1    0.0000
      8 H3         1.3618    6.7062    9.2866 H         1 RES1    0.0000
      9 C6         2.4796    5.8242    7.8695 C.ar      1 RES1    0.0000
     10 H4         2.1489    4.9676    8.0146 H         1 RES1    0.0000
     11 C7         4.9253    7.6028    5.5720 C.3       1 RES1    0.0000
     12 H5         5.0887    8.5484    5.5289 H         1 RES1    0.0000
     13 H6         4.5849    7.2977    4.7275 H         1 RES1    0.0000
     14 H7         5.7453    7.1455    5.7704 H         1 RES1    0.0000
     15 C8         3.9288    4.8462    6.0997 C.3       1 RES1    0.0000
     16 H8         4.8964    4.8744    6.0342 H         1 RES1    0.0000
     17 H9         3.6755    4.0189    6.5383 H         1 RES1    0.0000
     18 C9         3.5639    4.0005    2.7595 C.2       1 RES1    0.0000
     19 C10        2.4705    4.9506    2.3271 C.3       1 RES1    0.0000
     20 H10        2.0623    4.6255    1.5098 H         1 RES1    0.0000
     21 H11        1.7849    4.9896    3.0121 H         1 RES1    0.0000
     22 C11        2.6481    7.4505    2.5972 C.2       1 RES1    0.0000
     23 H12        1.9512    7.5694    3.2016 H         1 RES1    0.0000
     24 C12        4.2198    7.7669    1.3132 C.2       1 RES1    0.0000
     25 H13        4.8767    8.2013    0.8174 H         1 RES1    0.0000
     26 C13        4.2367    3.0989    1.7973 C.ar      1 RES1    0.0000
     27 C14        5.1476    2.1453    2.2351 C.ar      1 RES1    0.0000
     28 H14        5.2999    2.0438    3.1471 H         1 RES1    0.0000
     29 C15        5.8253    1.3524    1.3484 C.ar      1 RES1    0.0000
     30 H15        6.4343    0.7237    1.6621 H         1 RES1    0.0000
     31 C16        5.6091    1.4822   -0.0037 C.ar      1 RES1    0.0000
     32 H16        6.0733    0.9460   -0.6056 H         1 RES1    0.0000
     33 C17        4.7125    2.3984   -0.4537 C.ar      1 RES1    0.0000
     34 H17        4.5625    2.4853   -1.3674 H         1 RES1    0.0000
     35 C18        4.0212    3.2022    0.4299 C.ar      1 RES1    0.0000
     36 H18        3.4051    3.8188    0.1065 H         1 RES1    0.0000
     37 N1         4.0072    3.9765    3.9664 N.2       1 RES1    0.0000
     38 N2         3.0109    6.2807    2.1042 N.pl3     1 RES1    0.0000
     39 N3         4.0474    6.4661    1.2538 N.2       1 RES1    0.0000
     40 N4         3.3950    8.4272    2.1283 N.2       1 RES1    0.0000
     41 O1         3.3415    4.9109    4.7859 O.3       1 RES1    0.0000
@<TRIPOS>BOND
     1    1    2 ar
     2    2    3 ar
     3    3    4 1
     4    5    3 ar
     5    6    5 1
     6    7    5 ar
     7    8    7 1
     8    9    1 ar
     9   10    9 1
    10   11    2 1
    11   12   11 1
    12   13   11 1
    13   14   11 1
    14   15    1 1
    15   16   15 1
    16   17   15 1
    17   18   19 1
    18   19   20 1
    19   21   19 1
    20   22   23 1
    21   24   25 1
    22   26   18 1
    23   27   26 ar
    24   28   27 1
    25   29   27 ar
    26   30   29 1
    27   31   29 ar
    28   32   31 1
    29   33   31 ar
    30   34   33 1
    31   35   26 ar
    32   36   35 1
    33   37   18 2
    34   38   19 1
    35   39   24 2
    36   40   22 2
    37   41   15 1
    38    7    9 ar
    39   22   38 1
    40   24   40 1
    41   33   35 ar
    42   37   41 1
    43   38   39 1
@<TRIPOS>SUBSTRUCTURE
     1 RES1 1

@<TRIPOS>CRYSIN
   4.7827   13.5771   13.8298  63.5810  88.3260  86.1610   2 1

