# MOL2 file generated by ConQuest
# Please check atom types

@<TRIPOS>MOLECULE
FORMEG
    18    19     1
SMALL
USER_CHARGES
****
Generated from CSD

@<TRIPOS>ATOM
      1 O1         2.8950    0.9133    3.3726 O.3       1 RES1    0.0000
      2 O2         1.8840    0.2439    1.4522 O.2       1 RES1   -1.0000
      3 N1         1.7321    0.6663    2.6151 N.pl3     1 RES1    1.0000
      4 N2         2.4927    1.3614    4.6473 N.2       1 RES1    0.0000
      5 N3         0.4352    1.8764    5.6476 N.3       1 RES1    0.0000
      6 C1         0.6704    0.9583    3.3519 C.2       1 RES1    0.0000
      7 C2         1.1676    1.3952    4.6295 C.2       1 RES1    0.0000
      8 H1        -0.3982    1.5664    5.7304 H         1 RES1    0.0000
      9 H2         0.9202    2.1216    6.3357 H         1 RES1    0.0000
     10 O1C       -2.8950    0.9133    2.7786 O.3       1 RES1    0.0000
     11 O2C       -1.8840    0.2439    4.6990 O.2       1 RES1   -1.0000
     12 N1C       -1.7321    0.6663    3.5361 N.pl3     1 RES1    1.0000
     13 N2C       -2.4927    1.3614    1.5038 N.2       1 RES1    0.0000
     14 N3C       -0.4352    1.8764    0.5035 N.3       1 RES1    0.0000
     15 C1C       -0.6704    0.9583    2.7993 C.2       1 RES1    0.0000
     16 C2C       -1.1676    1.3952    1.5217 C.2       1 RES1    0.0000
     17 H1C        0.3982    1.5664    0.4207 H         1 RES1    0.0000
     18 H2C       -0.9202    2.1216   -0.1845 H         1 RES1    0.0000
@<TRIPOS>BOND
     1    1    3 1
     2    2    3 1
     3    3    6 2
     4    4    1 1
     5    5    7 1
     6    6    7 1
     7    7    4 2
     8    8    5 1
     9    9    5 1
    10   10   12 1
    11   11   12 1
    12   12   15 2
    13   13   10 1
    14   14   16 1
    15   15    6 1
    16   16   13 2
    17   17   14 1
    18   18   14 1
    19   15   16 1
@<TRIPOS>SUBSTRUCTURE
     1 RES1 1

@<TRIPOS>CRYSIN
   8.8483    6.6093   12.3023  90.0000  90.0000  90.0000  60 1

