# MOL2 file generated by ConQuest
# Please check atom types

@<TRIPOS>MOLECULE
FORMIK
    18    19     1
SMALL
USER_CHARGES
****
Generated from CSD

@<TRIPOS>ATOM
      1 O1         4.4706   -1.5495    1.6140 O.3       1 RES1    0.0000
      2 O2         2.7878   -0.0573    2.2780 O.2       1 RES1   -1.0000
      3 N1         3.8361   -0.2503    1.5932 N.pl3     1 RES1    1.0000
      4 N2         5.6055   -1.4565    0.8478 N.2       1 RES1    0.0000
      5 N3         4.1996    1.8401    0.6292 N.3       1 RES1    0.0000
      6 C1         4.5495    0.5541    0.8295 C.2       1 RES1    0.0000
      7 C2         5.6654   -0.2202    0.3963 C.2       1 RES1    0.0000
      8 H1         3.4467    2.0844    1.0430 H         1 RES1    0.0000
      9 H2         4.4982    2.1890   -0.0517 H         1 RES1    0.0000
     10 O1B        7.9944    1.5495   -1.6140 O.3       1 RES1    0.0000
     11 O2B        9.6772    0.0573   -2.2780 O.2       1 RES1   -1.0000
     12 N1B        8.6289    0.2503   -1.5932 N.pl3     1 RES1    1.0000
     13 N2B        6.8595    1.4565   -0.8478 N.2       1 RES1    0.0000
     14 N3B        8.2654   -1.8401   -0.6292 N.3       1 RES1    0.0000
     15 C1B        7.9155   -0.5541   -0.8295 C.2       1 RES1    0.0000
     16 C2B        6.7996    0.2202   -0.3963 C.2       1 RES1    0.0000
     17 H1B        9.0183   -2.0844   -1.0430 H         1 RES1    0.0000
     18 H2B        7.9668   -2.1890    0.0517 H         1 RES1    0.0000
@<TRIPOS>BOND
     1    1    3 1
     2    2    3 1
     3    3    6 2
     4    4    1 1
     5    5    6 1
     6    6    7 1
     7    7    4 2
     8    8    5 1
     9    9    5 1
    10   10   12 1
    11   11   12 1
    12   12   15 2
    13   13   10 1
    14   14   15 1
    15   15   16 1
    16   16    7 1
    17   17   14 1
    18   18   14 1
    19   13   16 2
@<TRIPOS>SUBSTRUCTURE
     1 RES1 1

@<TRIPOS>CRYSIN
   6.2325    6.5343    9.0730  90.0000 108.1900  90.0000  14 1

