# MOL2 file generated by ConQuest
# Please check atom types

@<TRIPOS>MOLECULE
FORRUB
    25    25     1
SMALL
NO_CHARGES
****
Generated from CSD

@<TRIPOS>ATOM
      1 O1         4.6978    4.8668    1.8077 O.2       1 RES1    0.0000
      2 O2         7.4794    6.0734    2.2143 O.2       1 RES1    0.0000
      3 O3         7.1138    5.2977    0.2140 O.2       1 RES1    0.0000
      4 O4         2.4123    3.3282    5.8624 O.2       1 RES1    0.0000
      5 O5        -0.1789    2.1289    6.6964 O.2       1 RES1    0.0000
      6 O6         1.4322    1.4798    7.9962 O.2       1 RES1    0.0000
      7 N1         5.4633    3.9359    2.1088 N.pl3     1 RES1    0.0000
      8 N2         6.7414    3.9437    2.0082 N.2       1 RES1    0.0000
      9 N3         7.1261    5.2377    1.4200 N.pl3     1 RES1    0.0000
     10 N4         2.4173    2.1843    5.3790 N.pl3     1 RES1    0.0000
     11 N5         1.6803    1.2089    5.7631 N.2       1 RES1    0.0000
     12 N6         0.9124    1.6761    6.9244 N.pl3     1 RES1    0.0000
     13 C1         4.8861    2.7279    2.7120 C.ar      1 RES1    0.0000
     14 C2         5.2643    1.4404    2.3000 C.ar      1 RES1    0.0000
     15 C3         4.5972    0.3849    2.9352 C.ar      1 RES1    0.0000
     16 H1         4.8018   -0.5052    2.6713 H         1 RES1    0.0000
     17 C4         3.6542    0.5816    3.9285 C.ar      1 RES1    0.0000
     18 H2         3.2314   -0.1554    4.3514 H         1 RES1    0.0000
     19 C5         3.3424    1.8874    4.2886 C.ar      1 RES1    0.0000
     20 C6         3.9395    2.9793    3.6824 C.ar      1 RES1    0.0000
     21 H3         3.7062    3.8673    3.9244 H         1 RES1    0.0000
     22 C7         6.2799    1.1650    1.2238 C.3       1 RES1    0.0000
     23 H4         6.1078    1.7476    0.4550 H         1 RES1    0.0000
     24 H5         6.2147    0.2279    0.9455 H         1 RES1    0.0000
     25 H6         7.1799    1.3404    1.5708 H         1 RES1    0.0000
@<TRIPOS>BOND
     1    1    7 1
     2    2    9 2
     3    3    9 2
     4    4   10 1
     5    5   12 2
     6    6   12 2
     7    7    8 2
     8    8    9 1
     9   10   11 2
    10   11   12 1
    11   13    7 1
    12   14   13 ar
    13   15   14 ar
    14   16   15 1
    15   17   15 ar
    16   18   17 1
    17   19   10 1
    18   20   13 ar
    19   21   20 1
    20   22   14 1
    21   23   22 1
    22   24   22 1
    23   25   22 1
    24   17   19 ar
    25   19   20 ar
@<TRIPOS>SUBSTRUCTURE
     1 RES1 1

@<TRIPOS>CRYSIN
   5.3336    7.9688   25.4940  90.0000  94.4540  90.0000 231 1

