# MOL2 file generated by ConQuest
# Please check atom types

@<TRIPOS>MOLECULE
FORSAI
    24    24     1
SMALL
NO_CHARGES
****
Generated from CSD

@<TRIPOS>ATOM
      1 O1         2.4360    5.8875    5.9826 O.2       1 RES1    0.0000
      2 O2        -0.1424    6.7173    7.0772 O.2       1 RES1    0.0000
      3 O3         0.5173    8.2606    5.6832 O.2       1 RES1    0.0000
      4 O4        -0.2586    3.6884    0.8034 O.2       1 RES1    0.0000
      5 O5         1.5891    3.2174   -0.2310 O.2       1 RES1    0.0000
      6 O6         5.1390    1.4220    3.3592 O.2       1 RES1    0.0000
      7 O7         4.0066    1.1384    5.1911 O.2       1 RES1    0.0000
      8 N1         1.5990    5.5952    5.1166 N.pl3     1 RES1    0.0000
      9 N2         0.4392    6.1056    4.9691 N.2       1 RES1    0.0000
     10 N3         0.2751    7.1193    6.0150 N.pl3     1 RES1    0.0000
     11 N4         0.9432    3.4484    0.7851 N.pl3     1 RES1    0.0000
     12 N5         4.1820    1.6480    4.0916 N.pl3     1 RES1    0.0000
     13 C1         1.9206    4.5468    4.1513 C.ar      1 RES1    0.0000
     14 C2         1.2784    4.4930    2.9307 C.ar      1 RES1    0.0000
     15 H1         0.6108    5.1251    2.6911 H         1 RES1    0.0000
     16 C3         1.6529    3.4756    2.0726 C.ar      1 RES1    0.0000
     17 C4         2.5915    2.4789    2.3641 C.ar      1 RES1    0.0000
     18 C5         3.1759    2.6242    3.6297 C.ar      1 RES1    0.0000
     19 C6         2.8753    3.6235    4.5275 C.ar      1 RES1    0.0000
     20 H2         3.3076    3.6750    5.3719 H         1 RES1    0.0000
     21 C7         2.8537    1.2960    1.4684 C.3       1 RES1    0.0000
     22 H3         3.5151    1.5407    0.7885 H         1 RES1    0.0000
     23 H4         2.0197    1.0262    1.0301 H         1 RES1    0.0000
     24 H5         3.1974    0.5496    2.0036 H         1 RES1    0.0000
@<TRIPOS>BOND
     1    1    8 1
     2    2   10 2
     3    3   10 2
     4    4   11 2
     5    5   11 2
     6    6   12 2
     7    7   12 2
     8    8    9 2
     9    9   10 1
    10   11   16 1
    11   12   18 1
    12   13    8 1
    13   14   13 ar
    14   15   14 1
    15   16   14 ar
    16   17   16 ar
    17   18   17 ar
    18   19   13 ar
    19   20   19 1
    20   21   17 1
    21   22   21 1
    22   23   21 1
    23   24   21 1
    24   18   19 ar
@<TRIPOS>SUBSTRUCTURE
     1 RES1 1

@<TRIPOS>CRYSIN
   5.2932   29.2360    6.9070  90.0000  98.7460  90.0000 231 1

