# MOL2 file generated by ConQuest
# Please check atom types

@<TRIPOS>MOLECULE
FOSXIW
    50    53     1
SMALL
NO_CHARGES
****
Generated from CSD

@<TRIPOS>ATOM
      1 C1         3.8894    7.0567    5.4909 C.3       1 RES1    0.0000
      2 H1         4.7902    7.1600    5.1479 H         1 RES1    0.0000
      3 H2         3.4643    7.9272    5.5275 H         1 RES1    0.0000
      4 C2         3.9029    6.4012    6.8641 C.3       1 RES1    0.0000
      5 H3         4.6114    5.7420    6.9294 H         1 RES1    0.0000
      6 H4         4.0201    7.0627    7.5641 H         1 RES1    0.0000
      7 C3         2.5642    5.7569    6.9580 C.3       1 RES1    0.0000
      8 H5         2.5828    5.0045    7.5699 H         1 RES1    0.0000
      9 H6         1.8937    6.3905    7.2565 H         1 RES1    0.0000
     10 C4         2.0286    6.8019    3.7190 C.3       1 RES1    0.0000
     11 H7         1.4601    7.3370    4.3107 H         1 RES1    0.0000
     12 C5         1.1151    5.8319    2.9659 C.3       1 RES1    0.0000
     13 H8         1.6533    5.3335    2.3150 H         1 RES1    0.0000
     14 C6         0.5474    4.8486    3.9902 C.2       1 RES1    0.0000
     15 C7         1.1075    4.7371    5.2022 C.2       1 RES1    0.0000
     16 H9         0.6562    4.2243    5.8332 H         1 RES1    0.0000
     17 C8         3.0737    6.0818    4.6126 C.3       1 RES1    0.0000
     18 C9         0.0287    6.5985    2.2196 C.ar      1 RES1    0.0000
     19 C10       -1.0071    7.2371    2.9069 C.ar      1 RES1    0.0000
     20 H10       -1.0417    7.1838    3.8356 H         1 RES1    0.0000
     21 C11       -1.9814    7.9477    2.2270 C.ar      1 RES1    0.0000
     22 H11       -2.6705    8.3571    2.6985 H         1 RES1    0.0000
     23 C12       -1.9350    8.0503    0.8660 C.ar      1 RES1    0.0000
     24 H12       -2.5862    8.5353    0.4128 H         1 RES1    0.0000
     25 C13       -0.9177    7.4308    0.1665 C.ar      1 RES1    0.0000
     26 H13       -0.8874    7.4973   -0.7613 H         1 RES1    0.0000
     27 C14        0.0574    6.7118    0.8370 C.ar      1 RES1    0.0000
     28 H14        0.7389    6.3002    0.3563 H         1 RES1    0.0000
     29 C15       -0.6259    4.0029    3.5796 C.3       1 RES1    0.0000
     30 H15       -1.3504    4.5877    3.3080 H         1 RES1    0.0000
     31 H16       -0.9287    3.4975    4.3496 H         1 RES1    0.0000
     32 C16       -0.3281    3.0342    2.4454 C.ar      1 RES1    0.0000
     33 C17        0.6478    2.0807    2.5702 C.ar      1 RES1    0.0000
     34 H17        1.1623    2.0498    3.3449 H         1 RES1    0.0000
     35 C18        0.8806    1.1543    1.5523 C.ar      1 RES1    0.0000
     36 H18        1.5352    0.5012    1.6588 H         1 RES1    0.0000
     37 C19        0.1501    1.2042    0.3993 C.ar      1 RES1    0.0000
     38 H19        0.3053    0.5890   -0.2804 H         1 RES1    0.0000
     39 C20       -0.8047    2.1567    0.2500 C.ar      1 RES1    0.0000
     40 H20       -1.2990    2.1959   -0.5374 H         1 RES1    0.0000
     41 C21       -1.0476    3.0747    1.2663 C.ar      1 RES1    0.0000
     42 H21       -1.7022    3.7243    1.1507 H         1 RES1    0.0000
     43 C22        3.9796    5.1197    3.8222 C.3       1 RES1    0.0000
     44 H22        3.4356    4.5248    3.3002 H         1 RES1    0.0000
     45 H23        4.5153    4.6091    4.4333 H         1 RES1    0.0000
     46 H24        4.5524    5.6245    3.2398 H         1 RES1    0.0000
     47 N1         2.2960    5.3164    5.5959 N.3       1 RES1    0.0000
     48 N2         2.6992    7.7508    2.7651 N.pl3     1 RES1    0.0000
     49 O1         3.1589    7.3256    1.7289 O.2       1 RES1    0.0000
     50 O2         2.7684    8.9243    3.1002 O.2       1 RES1    0.0000
@<TRIPOS>BOND
     1    1    2 1
     2    3    1 1
     3    4    1 1
     4    5    4 1
     5    6    4 1
     6    7    4 1
     7    8    7 1
     8    9    7 1
     9   10   11 1
    10   12   10 1
    11   13   12 1
    12   14   12 1
    13   15   14 2
    14   16   15 1
    15   17    1 1
    16   18   12 1
    17   19   18 ar
    18   20   19 1
    19   21   19 ar
    20   22   21 1
    21   23   21 ar
    22   24   23 1
    23   25   23 ar
    24   26   25 1
    25   27   18 ar
    26   28   27 1
    27   29   14 1
    28   30   29 1
    29   31   29 1
    30   32   29 1
    31   33   32 ar
    32   34   33 1
    33   35   33 ar
    34   36   35 1
    35   37   35 ar
    36   38   37 1
    37   39   37 ar
    38   40   39 1
    39   41   32 ar
    40   42   41 1
    41   43   17 1
    42   44   43 1
    43   45   43 1
    44   46   43 1
    45   47    7 1
    46   48   10 1
    47   49   48 2
    48   50   48 2
    49   10   17 1
    50   15   47 1
    51   17   47 1
    52   25   27 ar
    53   39   41 ar
@<TRIPOS>SUBSTRUCTURE
     1 RES1 1

@<TRIPOS>CRYSIN
   8.4350   11.8760   19.4700  90.0000  90.0000  90.0000  19 1

