# MOL2 file generated by ConQuest
# Please check atom types

@<TRIPOS>MOLECULE
FOSYES
    50    52     1
SMALL
NO_CHARGES
****
Generated from CSD

@<TRIPOS>ATOM
      1 O1         6.7660   -0.4460   14.0657 O.2       1 RES1    0.0000
      2 O2         8.0583    0.0048   12.3987 O.2       1 RES1    0.0000
      3 N1         4.6410   -1.1129   16.6018 N.3       1 RES1    0.0000
      4 N2         4.2250    0.2276   13.8970 N.3       1 RES1    0.0000
      5 N3         7.0057    0.1755   13.0162 N.pl3     1 RES1    0.0000
      6 C1         3.4533    1.0291   16.4930 C.ar      1 RES1    0.0000
      7 C2         4.4886    0.2405   17.0396 C.ar      1 RES1    0.0000
      8 C3         5.3896    0.8314   17.9365 C.ar      1 RES1    0.0000
      9 H1         6.0825    0.3088   18.3226 H         1 RES1    0.0000
     10 C4         5.2754    2.1674   18.2614 C.ar      1 RES1    0.0000
     11 H2         5.8726    2.5465   18.8948 H         1 RES1    0.0000
     12 C5         4.3115    2.9561   17.6829 C.ar      1 RES1    0.0000
     13 H3         4.2658    3.8805   17.8966 H         1 RES1    0.0000
     14 C6         3.3953    2.4038   16.7804 C.ar      1 RES1    0.0000
     15 C7         2.4097    3.3025   16.0682 C.3       1 RES1    0.0000
     16 H4         1.5165    3.1783   16.4534 H         1 RES1    0.0000
     17 H5         2.3889    3.0746   15.1155 H         1 RES1    0.0000
     18 H6         2.6839    4.2370   16.1751 H         1 RES1    0.0000
     19 C8         2.4552    0.4462   15.5460 C.ar      1 RES1    0.0000
     20 C9         2.8493    0.0916   14.2470 C.ar      1 RES1    0.0000
     21 C10        1.9453   -0.4297   13.3334 C.ar      1 RES1    0.0000
     22 H7         2.2311   -0.6712   12.4603 H         1 RES1    0.0000
     23 C11        0.6183   -0.5954   13.7068 C.ar      1 RES1    0.0000
     24 H8        -0.0114   -0.9382   13.0828 H         1 RES1    0.0000
     25 C12        0.2140   -0.2614   14.9854 C.ar      1 RES1    0.0000
     26 H9        -0.6938   -0.3910   15.2335 H         1 RES1    0.0000
     27 C13        1.1090    0.2624   15.9234 C.ar      1 RES1    0.0000
     28 C14        0.6217    0.5941   17.3138 C.3       1 RES1    0.0000
     29 H10        0.5952    1.5665   17.4281 H         1 RES1    0.0000
     30 H11        1.2308    0.2051   17.9752 H         1 RES1    0.0000
     31 H12       -0.2773    0.2253   17.4422 H         1 RES1    0.0000
     32 C15        5.9479   -1.7184   16.8571 C.3       1 RES1    0.0000
     33 H13        6.6548   -1.1087   16.5587 H         1 RES1    0.0000
     34 H14        6.0181   -2.5644   16.3669 H         1 RES1    0.0000
     35 H15        6.0471   -1.8884   17.8180 H         1 RES1    0.0000
     36 C16        3.5894   -2.0313   17.0465 C.3       1 RES1    0.0000
     37 H16        3.6873   -2.1996   18.0066 H         1 RES1    0.0000
     38 H17        3.6655   -2.8767   16.5571 H         1 RES1    0.0000
     39 H18        2.7120   -1.6309   16.8731 H         1 RES1    0.0000
     40 C17        4.6895    1.0731   12.9407 C.ar      1 RES1    0.0000
     41 C18        6.0340    1.0964   12.4988 C.ar      1 RES1    0.0000
     42 C19        6.4726    1.9873   11.5090 C.ar      1 RES1    0.0000
     43 H19        7.3829    1.9766   11.2372 H         1 RES1    0.0000
     44 C20        5.6057    2.8710   10.9310 C.ar      1 RES1    0.0000
     45 H20        5.9038    3.4799   10.2657 H         1 RES1    0.0000
     46 C21        4.2653    2.8574   11.3435 C.ar      1 RES1    0.0000
     47 H21        3.6509    3.4609   10.9432 H         1 RES1    0.0000
     48 C22        3.8226    1.9941   12.3083 C.ar      1 RES1    0.0000
     49 H22        2.9072    2.0148   12.5609 H         1 RES1    0.0000
     50 H23        4.7675   -0.1419   14.4081 H         1 RES1    0.0000
@<TRIPOS>BOND
     1    1    5 2
     2    2    5 2
     3    3    7 1
     4    4   20 1
     5    5   41 1
     6    6    7 ar
     7    7    8 ar
     8    8    9 1
     9   10    8 ar
    10   11   10 1
    11   12   10 ar
    12   13   12 1
    13   14    6 ar
    14   15   14 1
    15   16   15 1
    16   17   15 1
    17   18   15 1
    18   19    6 1
    19   20   19 ar
    20   21   20 ar
    21   22   21 1
    22   23   21 ar
    23   24   23 1
    24   25   23 ar
    25   26   25 1
    26   27   19 ar
    27   28   27 1
    28   29   28 1
    29   30   28 1
    30   31   28 1
    31   32    3 1
    32   33   32 1
    33   34   32 1
    34   35   32 1
    35   36    3 1
    36   37   36 1
    37   38   36 1
    38   39   36 1
    39   40    4 1
    40   41   40 ar
    41   42   41 ar
    42   43   42 1
    43   44   42 ar
    44   45   44 1
    45   46   44 ar
    46   47   46 1
    47   48   40 ar
    48   49   48 1
    49   50    4 1
    50   12   14 ar
    51   25   27 ar
    52   46   48 ar
@<TRIPOS>SUBSTRUCTURE
     1 RES1 1

@<TRIPOS>CRYSIN
  10.3867   11.9217   15.7208  90.0000  90.0000  90.0000  19 1

