# MOL2 file generated by ConQuest
# Please check atom types

@<TRIPOS>MOLECULE
FOVBOH
    60    61     1
SMALL
NO_CHARGES
****
Generated from CSD

@<TRIPOS>ATOM
      1 O1         2.4082   21.1049   12.2696 O.2       1 RES1    0.0000
      2 O2         3.4041   22.3332   10.8364 O.2       1 RES1    0.0000
      3 O3         5.5080   10.6332   14.6161 O.2       1 RES1    0.0000
      4 O4         7.1686   11.9722   14.9623 O.2       1 RES1    0.0000
      5 N1         6.7943   17.1214   10.0970 N.2       1 RES1    0.0000
      6 N2         4.4106   14.7082    9.9764 N.2       1 RES1    0.0000
      7 N3         7.4625   15.1111    9.2339 N.3       1 RES1    0.0000
      8 N4         4.4595   16.1888    8.2330 N.3       1 RES1    0.0000
      9 N5         3.2525   21.2744   11.4065 N.pl3     1 RES1    0.0000
     10 N6         6.1809   11.6168   14.3294 N.pl3     1 RES1    0.0000
     11 C1         6.4969   15.9929    9.5409 C.2       1 RES1    0.0000
     12 C2         5.0636   15.5704    9.2653 C.2       1 RES1    0.0000
     13 C3         7.2549   13.9080    8.4272 C.3       1 RES1    0.0000
     14 C4         7.5920   12.6228    9.1384 C.3       1 RES1    0.0000
     15 C5         8.8480   15.4622    9.5550 C.3       1 RES1    0.0000
     16 C6         9.4567   16.4179    8.5745 C.3       1 RES1    0.0000
     17 C7         5.1394   17.0693    7.2822 C.3       1 RES1    0.0000
     18 C8         5.7552   16.3525    6.1278 C.3       1 RES1    0.0000
     19 C9         3.0240   15.9451    7.9965 C.3       1 RES1    0.0000
     20 C10        2.1481   16.8530    8.8047 C.3       1 RES1    0.0000
     21 C11        5.8310   18.0778   10.4322 C.ar      1 RES1    0.0000
     22 C12        4.7336   17.8766   11.2577 C.ar      1 RES1    0.0000
     23 C13        3.8846   18.9103   11.5820 C.ar      1 RES1    0.0000
     24 C14        4.1248   20.1577   11.0682 C.ar      1 RES1    0.0000
     25 C15        5.1989   20.3967   10.2615 C.ar      1 RES1    0.0000
     26 C16        6.0537   19.3680    9.9686 C.ar      1 RES1    0.0000
     27 C17        4.9424   14.0086   11.0604 C.ar      1 RES1    0.0000
     28 C18        4.4036   12.7360   11.2702 C.ar      1 RES1    0.0000
     29 C19        4.8129   11.9437   12.3197 C.ar      1 RES1    0.0000
     30 C20        5.7692   12.4246   13.1797 C.ar      1 RES1    0.0000
     31 C21        6.2998   13.6791   13.0168 C.ar      1 RES1    0.0000
     32 C22        5.9045   14.4638   11.9720 C.ar      1 RES1    0.0000
     33 H1         6.3406   13.8753    8.1703 H         1 RES1    0.0000
     34 H2         7.8007   13.9708    7.6519 H         1 RES1    0.0000
     35 H3         7.4334   11.8884    8.5557 H         1 RES1    0.0000
     36 H4         7.0473   12.5348    9.9122 H         1 RES1    0.0000
     37 H5         8.5063   12.6303    9.3937 H         1 RES1    0.0000
     38 H6         8.8666   15.8596   10.4181 H         1 RES1    0.0000
     39 H7         9.3669   14.6675    9.5629 H         1 RES1    0.0000
     40 H8        10.3500   16.6091    8.8314 H         1 RES1    0.0000
     41 H9         8.9518   17.2227    8.5619 H         1 RES1    0.0000
     42 H10        9.4521   16.0281    7.7067 H         1 RES1    0.0000
     43 H11        4.5062   17.6905    6.9439 H         1 RES1    0.0000
     44 H12        5.8252   17.5371    7.7443 H         1 RES1    0.0000
     45 H13        6.1774   16.9788    5.5529 H         1 RES1    0.0000
     46 H14        5.0800   15.8847    5.6484 H         1 RES1    0.0000
     47 H15        6.4001   15.7313    6.4489 H         1 RES1    0.0000
     48 H16        2.8385   16.0834    7.0739 H         1 RES1    0.0000
     49 H17        2.8257   15.0447    8.2283 H         1 RES1    0.0000
     50 H18        1.2362   16.6619    8.6199 H         1 RES1    0.0000
     51 H19        2.3324   17.7559    8.5760 H         1 RES1    0.0000
     52 H20        2.3196   16.7197    9.7289 H         1 RES1    0.0000
     53 H21        4.5657   17.0089   11.6070 H         1 RES1    0.0000
     54 H22        3.1417   18.7619   12.1553 H         1 RES1    0.0000
     55 H23        5.3517   21.2643    9.9075 H         1 RES1    0.0000
     56 H24        6.8199   19.5416    9.4344 H         1 RES1    0.0000
     57 H25        3.7388   12.4115   10.6750 H         1 RES1    0.0000
     58 H26        4.4409   11.0786   12.4466 H         1 RES1    0.0000
     59 H27        6.9820   13.9935   13.6214 H         1 RES1    0.0000
     60 H28        6.2742   15.3340   11.8655 H         1 RES1    0.0000
@<TRIPOS>BOND
     1    1    9 2
     2    2    9 2
     3    3   10 2
     4    4   10 2
     5    5   11 2
     6    6   12 2
     7    7   11 1
     8    8   12 1
     9    9   24 1
    10   10   30 1
    11   11   12 1
    12   13    7 1
    13   14   13 1
    14   15    7 1
    15   16   15 1
    16   17    8 1
    17   18   17 1
    18   19    8 1
    19   20   19 1
    20   21    5 1
    21   22   21 ar
    22   23   22 ar
    23   24   23 ar
    24   25   24 ar
    25   26   21 ar
    26   27    6 1
    27   28   27 ar
    28   29   28 ar
    29   30   29 ar
    30   31   30 ar
    31   32   27 ar
    32   33   13 1
    33   34   13 1
    34   35   14 1
    35   36   14 1
    36   37   14 1
    37   38   15 1
    38   39   15 1
    39   40   16 1
    40   41   16 1
    41   42   16 1
    42   43   17 1
    43   44   17 1
    44   45   18 1
    45   46   18 1
    46   47   18 1
    47   48   19 1
    48   49   19 1
    49   50   20 1
    50   51   20 1
    51   52   20 1
    52   53   22 1
    53   54   23 1
    54   55   25 1
    55   56   26 1
    56   57   28 1
    57   58   29 1
    58   59   31 1
    59   60   32 1
    60   25   26 ar
    61   31   32 ar
@<TRIPOS>SUBSTRUCTURE
     1 RES1 1

@<TRIPOS>CRYSIN
  11.6620   25.1500   15.6640  90.0000  90.0000  90.0000  61 1

