# MOL2 file generated by ConQuest
# Please check atom types

@<TRIPOS>MOLECULE
FOVNOT
    38    39     1
SMALL
NO_CHARGES
****
Generated from CSD

@<TRIPOS>ATOM
      1 C1        -1.5265    9.1312    7.0820 C.ar      1 RES1    0.0000
      2 N1        -1.9393   10.5292    6.9830 N.pl3     1 RES1    0.0000
      3 O1        -1.5711   11.3104    7.8398 O.2       1 RES1    0.0000
      4 O2        -2.6631   10.8697    6.0811 O.2       1 RES1    0.0000
      5 C2        -1.8787    8.3140    6.0011 C.ar      1 RES1    0.0000
      6 H1        -2.4021    8.7126    5.1822 H         1 RES1    0.0000
      7 C3        -1.5337    6.9961    6.0251 C.ar      1 RES1    0.0000
      8 H2        -1.7884    6.3712    5.2212 H         1 RES1    0.0000
      9 C4        -0.8502    6.4874    7.1050 C.ar      1 RES1    0.0000
     10 H3        -0.5745    5.4739    7.1080 H         1 RES1    0.0000
     11 C5        -0.5229    7.2745    8.1738 C.ar      1 RES1    0.0000
     12 H4        -0.0254    6.8519    8.9967 H         1 RES1    0.0000
     13 C6        -0.8460    8.6445    8.1828 C.ar      1 RES1    0.0000
     14 N2        -0.4738    9.4317    9.2696 N.pl3     1 RES1    0.0000
     15 H5        -0.7247   10.4511    9.3036 H         1 RES1    0.0000
     16 N3         0.1996    8.8728   10.2565 N.2       1 RES1    0.0000
     17 C7         0.6097    9.5799   11.2893 C.2       1 RES1    0.0000
     18 C8         1.3486    8.7747   12.2822 C.2       1 RES1    0.0000
     19 C9         1.5549    7.3246   12.0232 C.3       1 RES1    0.0000
     20 H6         0.8512    6.8679   12.1562 H         1 RES1    0.0000
     21 H7         2.0928    7.1443   12.6501 H         1 RES1    0.0000
     22 H8         2.1339    6.8459   10.9484 H         1 RES1    0.0000
     23 O3         1.7963    9.2834   13.3060 O.2       1 RES1    0.0000
     24 C10        0.3575   11.0520   11.4163 C.2       1 RES1    0.0000
     25 O4        -0.2274   11.6609   10.5285 O.2       1 RES1    0.0000
     26 N4         0.8201   11.6168   12.5462 N.am      1 RES1    0.0000
     27 H9         1.2853   10.9699   13.2301 H         1 RES1    0.0000
     28 C11        0.7531   12.9928   12.9261 C.ar      1 RES1    0.0000
     29 C12        0.9333   13.2572   14.2759 C.ar      1 RES1    0.0000
     30 H10        1.0722   12.4660   14.9518 H         1 RES1    0.0000
     31 C13        0.9294   14.5651   14.7318 C.ar      1 RES1    0.0000
     32 H11        1.0443   14.7614   15.7567 H         1 RES1    0.0000
     33 C14        0.7742   15.6166   13.8410 C.ar      1 RES1    0.0000
     34 H12        0.7774   16.6100   14.1799 H         1 RES1    0.0000
     35 C15        0.6143   15.3302   12.4922 C.ar      1 RES1    0.0000
     36 H13        0.5112   16.1193   11.8083 H         1 RES1    0.0000
     37 C16        0.5881   14.0283   12.0312 C.ar      1 RES1    0.0000
     38 H14        0.4435   13.8300   11.0104 H         1 RES1    0.0000
@<TRIPOS>BOND
     1    1    2 1
     2    2    3 2
     3    4    2 2
     4    5    1 ar
     5    6    5 1
     6    7    5 ar
     7    8    7 1
     8    9    7 ar
     9   10    9 1
    10   11    9 ar
    11   12   11 1
    12   13    1 ar
    13   14   13 1
    14   15   14 1
    15   16   14 1
    16   17   16 2
    17   18   17 1
    18   19   18 1
    19   20   19 1
    20   21   19 1
    21   22   19 1
    22   23   18 2
    23   24   17 1
    24   25   24 2
    25   26   24 1
    26   27   26 1
    27   28   26 1
    28   29   28 ar
    29   30   29 1
    30   31   29 ar
    31   32   31 1
    32   33   31 ar
    33   34   33 1
    34   35   33 ar
    35   36   35 1
    36   37   28 ar
    37   38   37 1
    38   11   13 ar
    39   35   37 ar
@<TRIPOS>SUBSTRUCTURE
     1 RES1 1

@<TRIPOS>CRYSIN
   7.5930   20.0290   10.2170  90.0000 101.8700  90.0000 231 1

