# MOL2 file generated by ConQuest
# Please check atom types

@<TRIPOS>MOLECULE
FOVRAK
    52    54     2
SMALL
NO_CHARGES
****
Generated from CSD

@<TRIPOS>ATOM
      1 O1         3.1574    7.1128    7.4945 O.3       1 RES1    0.0000
      2 O2         1.1531    7.3310    0.3906 O.2       1 RES1    0.0000
      3 O3         1.3311    5.7219    1.7623 O.2       1 RES1    0.0000
      4 O4         0.1024   10.3111    6.7253 O.3       2 RES2    0.0000
      5 O5        -1.8572   10.1497   -0.3358 O.2       2 RES2    0.0000
      6 O6        -1.6135   11.7557    1.0413 O.2       2 RES2    0.0000
      7 N1         1.8179    6.5718    1.0337 N.pl3     1 RES1    0.0000
      8 N2        -1.1803   10.8859    0.3171 N.pl3     2 RES2    0.0000
      9 C1         4.4221    6.6456    8.0190 C.3       1 RES1    0.0000
     10 H1         4.2668    5.9970    8.7235 H         1 RES1    0.0000
     11 H2         4.9181    7.3894    8.3954 H         1 RES1    0.0000
     12 C2         4.4196    6.4458    5.6993 C.ar      1 RES1    0.0000
     13 C3         3.2600    7.0667    6.1383 C.ar      1 RES1    0.0000
     14 C4         5.2119    6.0139    6.9053 C.3       1 RES1    0.0000
     15 H3         5.2343    5.0487    6.9887 H         1 RES1    0.0000
     16 H4         6.1195    6.3551    6.8746 H         1 RES1    0.0000
     17 C5         4.6612    6.3320    4.3497 C.ar      1 RES1    0.0000
     18 H5         5.4406    5.9263    4.0457 H         1 RES1    0.0000
     19 C6         3.7249    6.8284    3.4422 C.ar      1 RES1    0.0000
     20 C7         2.5536    7.4447    3.9119 C.ar      1 RES1    0.0000
     21 H6         1.9302    7.7767    3.3072 H         1 RES1    0.0000
     22 C8         2.3261    7.5569    5.2769 C.ar      1 RES1    0.0000
     23 H7         1.5514    7.9596    5.5973 H         1 RES1    0.0000
     24 C9         4.0498    6.7501    2.0135 C.2       1 RES1    0.0000
     25 H8         4.9619    6.7455    1.8325 H         1 RES1    0.0000
     26 C10        3.2865    6.6855    0.9316 C.2       1 RES1    0.0000
     27 C11        3.7556    6.7239   -0.4828 C.3       1 RES1    0.0000
     28 H9         4.7120    6.7992   -0.5004 H         1 RES1    0.0000
     29 H10        3.3660    7.4786   -0.9283 H         1 RES1    0.0000
     30 H11        3.4901    5.9155   -0.9294 H         1 RES1    0.0000
     31 C12        1.3305   10.8413    7.2915 C.3       2 RES2    0.0000
     32 H12        1.8259   10.1312    7.7315 H         2 RES2    0.0000
     33 H13        1.1265   11.5237    7.9488 H         2 RES2    0.0000
     34 C13        1.3806   10.9904    4.9356 C.ar      2 RES2    0.0000
     35 C14        0.2142   10.3864    5.3691 C.ar      2 RES2    0.0000
     36 C15        2.1609   11.4330    6.1646 C.3       2 RES2    0.0000
     37 H14        3.0620   11.0734    6.1602 H         2 RES2    0.0000
     38 H15        2.2031   12.4012    6.2261 H         2 RES2    0.0000
     39 C16        1.6106   11.0657    3.5947 C.ar      2 RES2    0.0000
     40 H16        2.3988   11.4545    3.2930 H         2 RES2    0.0000
     41 C17        0.7000   10.5769    2.6664 C.ar      2 RES2    0.0000
     42 C18       -0.4281    9.9576    3.1712 C.ar      2 RES2    0.0000
     43 H17       -1.0332    9.5918    2.5666 H         2 RES2    0.0000
     44 C19       -0.7111    9.8500    4.5165 C.ar      2 RES2    0.0000
     45 H18       -1.4852    9.4381    4.8248 H         2 RES2    0.0000
     46 C20        1.0292   10.6446    1.2465 C.2       2 RES2    0.0000
     47 H19        1.9423   10.6307    1.0732 H         2 RES2    0.0000
     48 C21        0.2757   10.7230    0.1525 C.2       2 RES2    0.0000
     49 C22        0.7092   10.6031   -1.2674 C.3       2 RES2    0.0000
     50 H20        1.6630   10.5032   -1.3025 H         2 RES2    0.0000
     51 H21        0.4517   11.3930   -1.7480 H         2 RES2    0.0000
     52 H22        0.2911    9.8362   -1.6657 H         2 RES2    0.0000
@<TRIPOS>BOND
     1    1    9 1
     2    2    7 2
     3    3    7 2
     4    4   31 1
     5    5    8 2
     6    6    8 2
     7    7   26 1
     8    8   48 1
     9    9   10 1
    10   11    9 1
    11   12   13 ar
    12   13    1 1
    13   14    9 1
    14   15   14 1
    15   16   14 1
    16   17   12 ar
    17   18   17 1
    18   19   17 ar
    19   20   19 ar
    20   21   20 1
    21   22   13 ar
    22   23   22 1
    23   24   19 1
    24   25   24 1
    25   26   24 2
    26   27   26 1
    27   28   27 1
    28   29   27 1
    29   30   27 1
    30   31   32 1
    31   33   31 1
    32   34   35 ar
    33   35    4 1
    34   36   31 1
    35   37   36 1
    36   38   36 1
    37   39   34 ar
    38   40   39 1
    39   41   39 ar
    40   42   41 ar
    41   43   42 1
    42   44   35 ar
    43   45   44 1
    44   46   41 1
    45   47   46 1
    46   48   46 2
    47   49   48 1
    48   50   49 1
    49   51   49 1
    50   52   49 1
    51   12   14 1
    52   20   22 ar
    53   34   36 1
    54   42   44 ar
@<TRIPOS>SUBSTRUCTURE
     1 RES1 1
     2 RES2 4

@<TRIPOS>CRYSIN
   6.1280   15.3690   11.1930  90.0000 101.3800  90.0000   4 1

