# MOL2 file generated by ConQuest
# Please check atom types

@<TRIPOS>MOLECULE
FOVTIT
    68    76     1
SMALL
NO_CHARGES
****
Generated from CSD

@<TRIPOS>ATOM
      1 N1         0.7264    0.9009    1.7544 N.pl3     1 RES1    0.0000
      2 O1         1.3180    0.7583    0.7021 O.2       1 RES1    0.0000
      3 O2         1.1978    0.6047    2.8359 O.2       1 RES1    0.0000
      4 N2        -2.1952    2.7057    5.7172 N.pl3     1 RES1    0.0000
      5 O3        -1.9209    3.0410    6.8392 O.2       1 RES1    0.0000
      6 O4        -2.8625    1.7453    5.4286 O.2       1 RES1    0.0000
      7 N3        -1.1310    4.7847    5.2745 N.pl3     1 RES1    0.0000
      8 O5         0.0203    4.7722    5.6766 O.2       1 RES1    0.0000
      9 O6        -1.9082    5.7169    5.3994 O.2       1 RES1    0.0000
     10 C1        -1.3433    1.7249    3.0126 C.3       1 RES1    0.0000
     11 C2        -2.6549    2.4911    2.5927 C.3       1 RES1    0.0000
     12 C3        -2.1379    3.3512    1.3296 C.3       1 RES1    0.0000
     13 C4        -1.8590    4.5152    2.3527 C.3       1 RES1    0.0000
     14 C5        -2.6439    3.7961    3.4699 C.3       1 RES1    0.0000
     15 C6        -1.6344    3.5454    4.5643 C.3       1 RES1    0.0000
     16 C7        -0.5780    2.8671    3.7066 C.3       1 RES1    0.0000
     17 C8        -0.3858    3.8791    2.4954 C.3       1 RES1    0.0000
     18 C9        -0.6508    2.9767    1.2436 C.3       1 RES1    0.0000
     19 C10       -0.6325    1.5275    1.6863 C.3       1 RES1    0.0000
     20 C11       -3.9135    1.6811    2.4516 C.ar      1 RES1    0.0000
     21 C12       -5.1277    2.1417    2.9007 C.ar      1 RES1    0.0000
     22 C13       -6.2946    1.4132    2.6997 C.ar      1 RES1    0.0000
     23 C14       -6.2571    0.2287    2.0527 C.ar      1 RES1    0.0000
     24 C15       -5.0569   -0.2679    1.6198 C.ar      1 RES1    0.0000
     25 C16       -3.8944    0.4543    1.8176 C.ar      1 RES1    0.0000
     26 C17       -2.9686    3.4843    0.0924 C.ar      1 RES1    0.0000
     27 C18       -2.5590    2.9329   -1.1123 C.ar      1 RES1    0.0000
     28 C19       -3.3252    3.0582   -2.2522 C.ar      1 RES1    0.0000
     29 C20       -4.5174    3.7319   -2.2133 C.ar      1 RES1    0.0000
     30 C21       -4.9445    4.2865   -1.0377 C.ar      1 RES1    0.0000
     31 C22       -4.1788    4.1674    0.1103 C.ar      1 RES1    0.0000
     32 C23       -2.1293    5.9315    1.9522 C.ar      1 RES1    0.0000
     33 C24       -3.0919    6.7055    2.5927 C.ar      1 RES1    0.0000
     34 C25       -3.4473    7.9494    2.0852 C.ar      1 RES1    0.0000
     35 C26       -2.8375    8.4335    0.9550 C.ar      1 RES1    0.0000
     36 C27       -1.8673    7.6909    0.3308 C.ar      1 RES1    0.0000
     37 C28       -1.5195    6.4532    0.8188 C.ar      1 RES1    0.0000
     38 C29        0.8734    4.7158    2.5165 C.ar      1 RES1    0.0000
     39 C30        2.0417    4.1784    1.9863 C.ar      1 RES1    0.0000
     40 C31        3.2299    4.8959    2.0252 C.ar      1 RES1    0.0000
     41 C32        3.2713    6.1430    2.5684 C.ar      1 RES1    0.0000
     42 C33        2.1198    6.7008    3.0775 C.ar      1 RES1    0.0000
     43 C34        0.9323    5.9895    3.0564 C.ar      1 RES1    0.0000
     44 H1        -1.4416    0.9165    3.5218 H         1 RES1    0.0000
     45 H2        -3.4453    4.1612    3.8509 H         1 RES1    0.0000
     46 H3         0.2148    2.6148    4.1865 H         1 RES1    0.0000
     47 H4        -0.1110    3.0707    0.4556 H         1 RES1    0.0000
     48 H5        -1.0382    0.8915    1.0912 H         1 RES1    0.0000
     49 H6        -5.1702    2.9830    3.3596 H         1 RES1    0.0000
     50 H7        -7.1321    1.7531    3.0256 H         1 RES1    0.0000
     51 H8        -7.0668   -0.2616    1.8955 H         1 RES1    0.0000
     52 H9        -5.0225   -1.1202    1.1788 H         1 RES1    0.0000
     53 H10       -3.0596    0.0956    1.5096 H         1 RES1    0.0000
     54 H11       -1.7254    2.4582   -1.1545 H         1 RES1    0.0000
     55 H12       -3.0235    2.6697   -3.0759 H         1 RES1    0.0000
     56 H13       -5.0493    3.8165   -3.0078 H         1 RES1    0.0000
     57 H14       -5.7796    4.7581   -1.0069 H         1 RES1    0.0000
     58 H15       -4.4875    4.5622    0.9291 H         1 RES1    0.0000
     59 H16       -3.5131    6.3780    3.3904 H         1 RES1    0.0000
     60 H17       -4.1208    8.4711    2.5262 H         1 RES1    0.0000
     61 H18       -3.0902    9.2905    0.6032 H         1 RES1    0.0000
     62 H19       -1.4291    8.0372   -0.4491 H         1 RES1    0.0000
     63 H20       -0.8439    5.9409    0.3681 H         1 RES1    0.0000
     64 H21        2.0258    3.3057    1.5890 H         1 RES1    0.0000
     65 H22        4.0319    4.5074    1.6652 H         1 RES1    0.0000
     66 H23        4.0974    6.6303    2.5943 H         1 RES1    0.0000
     67 H24        2.1400    7.5844    3.4520 H         1 RES1    0.0000
     68 H25        0.1368    6.3843    3.4196 H         1 RES1    0.0000
@<TRIPOS>BOND
     1    1    2 2
     2    3    1 2
     3    4    5 2
     4    6    4 2
     5    7    8 2
     6    9    7 2
     7   10   11 1
     8   11   12 1
     9   12   13 1
    10   13   14 1
    11   14   11 1
    12   15    4 1
    13   16   10 1
    14   17   13 1
    15   18   12 1
    16   19    1 1
    17   20   11 1
    18   21   20 ar
    19   22   21 ar
    20   23   22 ar
    21   24   23 ar
    22   25   20 ar
    23   26   12 1
    24   27   26 ar
    25   28   27 ar
    26   29   28 ar
    27   30   29 ar
    28   31   26 ar
    29   32   13 1
    30   33   32 ar
    31   34   33 ar
    32   35   34 ar
    33   36   35 ar
    34   37   32 ar
    35   38   17 1
    36   39   38 ar
    37   40   39 ar
    38   41   40 ar
    39   42   41 ar
    40   43   38 ar
    41   44   10 1
    42   45   14 1
    43   46   16 1
    44   47   18 1
    45   48   19 1
    46   49   21 1
    47   50   22 1
    48   51   23 1
    49   52   24 1
    50   53   25 1
    51   54   27 1
    52   55   28 1
    53   56   29 1
    54   57   30 1
    55   58   31 1
    56   59   33 1
    57   60   34 1
    58   61   35 1
    59   62   36 1
    60   63   37 1
    61   64   39 1
    62   65   40 1
    63   66   41 1
    64   67   42 1
    65   68   43 1
    66    7   15 1
    67   10   19 1
    68   14   15 1
    69   15   16 1
    70   16   17 1
    71   17   18 1
    72   18   19 1
    73   24   25 ar
    74   30   31 ar
    75   36   37 ar
    76   42   43 ar
@<TRIPOS>SUBSTRUCTURE
     1 RES1 1

@<TRIPOS>CRYSIN
  10.8690   15.6670   17.0840  90.0000 108.3600  90.0000  14 1

