# MOL2 file generated by ConQuest
# Please check atom types

@<TRIPOS>MOLECULE
FOVVUH01
    28    30     1
SMALL
NO_CHARGES
****
Generated from CSD

@<TRIPOS>ATOM
      1 O1        11.7771   -0.8833    5.1580 O.2       1 RES1    0.0000
      2 O2         9.9389    0.2390    5.8595 O.3       1 RES1    0.0000
      3 N1         9.1668    1.3450    5.3715 N.2       1 RES1    0.0000
      4 N2        10.8878    0.9487    4.0197 N.am      1 RES1    0.0000
      5 C1        10.9779   -0.0024    5.0135 C.2       1 RES1    0.0000
      6 C2         9.7837    1.7237    4.2901 C.2       1 RES1    0.0000
      7 C3         9.2561    2.7951    3.4354 C.ar      1 RES1    0.0000
      8 C4         8.6161    3.8842    4.0325 C.ar      1 RES1    0.0000
      9 H1         8.5756    3.9527    4.9795 H         1 RES1    0.0000
     10 C5         8.0404    4.8628    3.2407 C.ar      1 RES1    0.0000
     11 H2         7.6028    5.6026    3.6458 H         1 RES1    0.0000
     12 C6         8.1010    4.7664    1.8579 C.ar      1 RES1    0.0000
     13 H3         7.7038    5.4401    1.3173 H         1 RES1    0.0000
     14 C7         8.7408    3.6880    1.2625 C.ar      1 RES1    0.0000
     15 H4         8.7838    3.6277    0.3148 H         1 RES1    0.0000
     16 C8         9.3179    2.6970    2.0471 C.ar      1 RES1    0.0000
     17 H5         9.7511    1.9566    1.6397 H         1 RES1    0.0000
     18 C9        11.9138    1.1322    3.0265 C.ar      1 RES1    0.0000
     19 C10       12.1367    0.1265    2.0957 C.ar      1 RES1    0.0000
     20 H6        11.5922   -0.6518    2.0842 H         1 RES1    0.0000
     21 C11       13.1705    0.2813    1.1815 C.ar      1 RES1    0.0000
     22 H7        13.3403   -0.3983    0.5403 H         1 RES1    0.0000
     23 C12       13.9549    1.4224    1.2017 C.ar      1 RES1    0.0000
     24 H8        14.6614    1.5211    0.5755 H         1 RES1    0.0000
     25 C13       13.7131    2.4228    2.1321 C.ar      1 RES1    0.0000
     26 H9        14.2508    3.2058    2.1371 H         1 RES1    0.0000
     27 C14       12.6874    2.2834    3.0558 C.ar      1 RES1    0.0000
     28 H10       12.5175    2.9635    3.6962 H         1 RES1    0.0000
@<TRIPOS>BOND
     1    1    5 2
     2    2    3 1
     3    3    6 2
     4    4    5 1
     5    5    2 1
     6    6    4 1
     7    7    6 1
     8    8    7 ar
     9    9    8 1
    10   10    8 ar
    11   11   10 1
    12   12   10 ar
    13   13   12 1
    14   14   12 ar
    15   15   14 1
    16   16    7 ar
    17   17   16 1
    18   18    4 1
    19   19   18 ar
    20   20   19 1
    21   21   19 ar
    22   22   21 1
    23   23   21 ar
    24   24   23 1
    25   25   23 ar
    26   26   25 1
    27   27   18 ar
    28   28   27 1
    29   14   16 ar
    30   25   27 ar
@<TRIPOS>SUBSTRUCTURE
     1 RES1 1

@<TRIPOS>CRYSIN
  15.2095    5.9093   12.9247  90.0000 102.9970  90.0000  14 1

