# MOL2 file generated by ConQuest
# Please check atom types

@<TRIPOS>MOLECULE
FOVVAN
    28    33     1
SMALL
NO_CHARGES
****
Generated from CSD

@<TRIPOS>ATOM
      1 C1         6.1366    1.0725    1.7775 C.3       1 RES1    0.0000
      2 C2         7.1273    0.4870    0.7373 C.3       1 RES1    0.0000
      3 C3         8.2834    0.8275    1.7067 C.3       1 RES1    0.0000
      4 C4         7.2672    1.4001    2.7418 C.3       1 RES1    0.0000
      5 C5         7.1199    0.3768    3.8015 C.3       1 RES1    0.0000
      6 C6         7.6502   -0.9347    3.2111 C.3       1 RES1    0.0000
      7 C7         8.7483   -0.5313    2.1996 C.3       1 RES1    0.0000
      8 C8         8.5176   -1.4444    1.0218 C.3       1 RES1    0.0000
      9 C9         7.0559   -1.0193    0.8195 C.3       1 RES1    0.0000
     10 C10        6.4655   -1.2997    2.2376 C.3       1 RES1    0.0000
     11 C11        5.4799   -0.1407    2.5077 C.3       1 RES1    0.0000
     12 N1         5.6628    0.0797    3.9402 N.3       1 RES1    0.0000
     13 N2         7.6957    0.6750    5.1180 N.pl3     1 RES1    0.0000
     14 O1         5.0201    1.3312    4.2832 O.3       1 RES1    0.0000
     15 O2         7.1919    0.2843    6.1316 O.2       1 RES1    0.0000
     16 O3         8.7364    1.3155    5.0893 O.2       1 RES1    0.0000
     17 H1         5.4832    1.7110    1.4839 H         1 RES1    0.0000
     18 H2         7.0847    0.7596   -0.1828 H         1 RES1    0.0000
     19 H3         9.0477    1.3509    1.4541 H         1 RES1    0.0000
     20 H4         7.3965    2.2649    3.1382 H         1 RES1    0.0000
     21 H5         7.9342   -1.5831    3.8591 H         1 RES1    0.0000
     22 H6         9.6428   -0.5530    2.5457 H         1 RES1    0.0000
     23 H7         9.0773   -1.2368    0.2701 H         1 RES1    0.0000
     24 H8         8.6106   -2.3732    1.2436 H         1 RES1    0.0000
     25 H9         6.5926   -1.4237    0.0822 H         1 RES1    0.0000
     26 H10        6.0912   -2.1793    2.3249 H         1 RES1    0.0000
     27 H11        4.5665   -0.2775    2.2468 H         1 RES1    0.0000
     28 H12        4.3531    0.8481    4.9701 H         1 RES1    0.0000
@<TRIPOS>BOND
     1    1    2 1
     2    2    3 1
     3    3    4 1
     4    4    1 1
     5    5    4 1
     6    6    5 1
     7    7    3 1
     8    8    7 1
     9    9    2 1
    10   10    6 1
    11   11    1 1
    12   12    5 1
    13   13    5 1
    14   14   12 1
    15   15   13 2
    16   16   13 2
    17   17    1 1
    18   18    2 1
    19   19    3 1
    20   20    4 1
    21   21    6 1
    22   22    7 1
    23   23    8 1
    24   24    8 1
    25   25    9 1
    26   26   10 1
    27   27   11 1
    28   28   14 1
    29    6    7 1
    30    8    9 1
    31    9   10 1
    32   10   11 1
    33   11   12 1
@<TRIPOS>SUBSTRUCTURE
     1 RES1 1

@<TRIPOS>CRYSIN
   9.9240    9.8390   10.2870  90.0000  93.4000  90.0000  14 1

