# MOL2 file generated by ConQuest
# Please check atom types

@<TRIPOS>MOLECULE
FOVWOD
    56    59     1
SMALL
NO_CHARGES
****
Generated from CSD

@<TRIPOS>ATOM
      1 N1        10.8774    0.8239   11.2399 N.2       1 RES1    0.0000
      2 O1        11.6715    1.0617   12.3872 O.3       1 RES1    0.0000
      3 O2         9.4017   -0.6098    9.7129 O.3       1 RES1    0.0000
      4 H1         9.8231   -0.4274   10.3930 H         1 RES1    0.0000
      5 C1        11.5324   -0.0459   13.2762 C.3       1 RES1    0.0000
      6 H2        12.2501   -0.0225   13.9270 H         1 RES1    0.0000
      7 H3        11.6164   -0.8707   12.7708 H         1 RES1    0.0000
      8 C2        10.9357    1.7827   10.3708 C.2       1 RES1    0.0000
      9 C3        11.7550    3.0237   10.5857 C.3       1 RES1    0.0000
     10 H4        12.3722    2.8793   11.3074 H         1 RES1    0.0000
     11 H5        11.1756    3.7576   10.8020 H         1 RES1    0.0000
     12 H6        12.2428    3.2280    9.7840 H         1 RES1    0.0000
     13 C4         9.4454    0.4396    8.8601 C.ar      1 RES1    0.0000
     14 C5        10.1475    1.6027    9.1393 C.ar      1 RES1    0.0000
     15 C6        10.0990    2.6422    8.1657 C.ar      1 RES1    0.0000
     16 H7        10.5639    3.4304    8.3296 H         1 RES1    0.0000
     17 C7         9.3997    2.5232    7.0075 C.ar      1 RES1    0.0000
     18 H8         9.3753    3.2374    6.4118 H         1 RES1    0.0000
     19 C8         8.7088    1.3347    6.6928 C.ar      1 RES1    0.0000
     20 C9         8.7211    0.2709    7.6416 C.ar      1 RES1    0.0000
     21 C10        8.0396   -0.9288    7.3318 C.ar      1 RES1    0.0000
     22 H9         8.0315   -1.6281    7.9442 H         1 RES1    0.0000
     23 C11        7.3914   -1.0657    6.1325 C.ar      1 RES1    0.0000
     24 H10        6.9445   -1.8577    5.9373 H         1 RES1    0.0000
     25 C12        7.3974   -0.0234    5.1988 C.ar      1 RES1    0.0000
     26 H11        6.9716   -0.1368    4.3793 H         1 RES1    0.0000
     27 C13        8.0172    1.1500    5.4759 C.ar      1 RES1    0.0000
     28 H12        7.9859    1.8427    4.8556 H         1 RES1    0.0000
     29 N1A       10.8797    0.8239   16.0287 N.2       1 RES1    0.0000
     30 O1A       10.0856    1.0617   14.8814 O.3       1 RES1    0.0000
     31 O2A       12.3554   -0.6098   17.5557 O.3       1 RES1    0.0000
     32 H1A       11.9340   -0.4274   16.8756 H         1 RES1    0.0000
     33 C1A       10.2247   -0.0459   13.9924 C.3       1 RES1    0.0000
     34 H2A        9.5070   -0.0225   13.3416 H         1 RES1    0.0000
     35 H3A       10.1406   -0.8707   14.4978 H         1 RES1    0.0000
     36 C2A       10.8213    1.7827   16.8978 C.2       1 RES1    0.0000
     37 C3A       10.0020    3.0237   16.6829 C.3       1 RES1    0.0000
     38 H4A        9.3848    2.8793   15.9612 H         1 RES1    0.0000
     39 H5A       10.5815    3.7576   16.4666 H         1 RES1    0.0000
     40 H6A        9.5142    3.2280   17.4846 H         1 RES1    0.0000
     41 C4A       12.3117    0.4396   18.4085 C.ar      1 RES1    0.0000
     42 C5A       11.6096    1.6027   18.1292 C.ar      1 RES1    0.0000
     43 C6A       11.6581    2.6422   19.1029 C.ar      1 RES1    0.0000
     44 H7A       11.1932    3.4304   18.9389 H         1 RES1    0.0000
     45 C7A       12.3574    2.5232   20.2611 C.ar      1 RES1    0.0000
     46 H8A       12.3818    3.2374   20.8568 H         1 RES1    0.0000
     47 C8A       13.0483    1.3347   20.5758 C.ar      1 RES1    0.0000
     48 C9A       13.0360    0.2709   19.6270 C.ar      1 RES1    0.0000
     49 C10A      13.7174   -0.9288   19.9368 C.ar      1 RES1    0.0000
     50 H9A       13.7256   -1.6281   19.3243 H         1 RES1    0.0000
     51 C11A      14.3657   -1.0657   21.1361 C.ar      1 RES1    0.0000
     52 H10A      14.8126   -1.8577   21.3313 H         1 RES1    0.0000
     53 C12A      14.3597   -0.0234   22.0697 C.ar      1 RES1    0.0000
     54 H11A      14.7855   -0.1368   22.8893 H         1 RES1    0.0000
     55 C13A      13.7399    1.1500   21.7927 C.ar      1 RES1    0.0000
     56 H12A      13.7712    1.8427   22.4130 H         1 RES1    0.0000
@<TRIPOS>BOND
     1    1    2 1
     2    2    5 1
     3    3    4 1
     4    5    6 1
     5    7    5 1
     6    8    1 2
     7    9    8 1
     8   10    9 1
     9   11    9 1
    10   12    9 1
    11   13    3 1
    12   14    8 1
    13   15   14 ar
    14   16   15 1
    15   17   15 ar
    16   18   17 1
    17   19   17 ar
    18   20   13 ar
    19   21   20 ar
    20   22   21 1
    21   23   21 ar
    22   24   23 1
    23   25   23 ar
    24   26   25 1
    25   27   19 ar
    26   28   27 1
    27   29   30 1
    28   30   33 1
    29   31   32 1
    30   33    5 1
    31   34   33 1
    32   35   33 1
    33   36   29 2
    34   37   36 1
    35   38   37 1
    36   39   37 1
    37   40   37 1
    38   41   31 1
    39   42   36 1
    40   43   42 ar
    41   44   43 1
    42   45   43 ar
    43   46   45 1
    44   47   45 ar
    45   48   41 ar
    46   49   48 ar
    47   50   49 1
    48   51   49 ar
    49   52   51 1
    50   53   51 ar
    51   54   53 1
    52   55   47 ar
    53   56   55 1
    54   13   14 ar
    55   19   20 ar
    56   25   27 ar
    57   41   42 ar
    58   47   48 ar
    59   53   55 ar
@<TRIPOS>SUBSTRUCTURE
     1 RES1 1

@<TRIPOS>CRYSIN
  12.6682    9.3728   18.3350  90.0000  97.4780  90.0000  15 1

