# MOL2 file generated by ConQuest
# Please check atom types

@<TRIPOS>MOLECULE
FOVXIY
    59    62     1
SMALL
NO_CHARGES
****
Generated from CSD

@<TRIPOS>ATOM
      1 N1         1.8419    1.2787    6.9389 N.2       1 RES1    0.0000
      2 N2         2.7597    3.3410    1.7166 N.2       1 RES1    0.0000
      3 O1         1.0711    1.7065    5.8412 O.3       1 RES1    0.0000
      4 O2         2.9195    4.1486    2.8545 O.3       1 RES1    0.0000
      5 O3         3.8606    1.4580    8.4751 O.3       1 RES1    0.0000
      6 H1         3.3741    1.6741    7.8512 H         1 RES1    0.0000
      7 O4         1.3576    2.2446   -0.0954 O.3       1 RES1    0.0000
      8 H2         1.4950    2.6799    0.5854 H         1 RES1    0.0000
      9 C1         1.7507    2.8084    5.2440 C.3       1 RES1    0.0000
     10 H3         2.6438    2.5417    4.9755 H         1 RES1    0.0000
     11 H4         1.8272    3.5356    5.8818 H         1 RES1    0.0000
     12 C2         0.9712    3.2581    4.0478 C.3       1 RES1    0.0000
     13 H5         0.0724    3.4981    4.3214 H         1 RES1    0.0000
     14 H6         0.9058    2.5267    3.4134 H         1 RES1    0.0000
     15 C3         1.6242    4.4466    3.3746 C.3       1 RES1    0.0000
     16 H7         1.0553    4.7513    2.6500 H         1 RES1    0.0000
     17 H8         1.7005    5.1703    4.0164 H         1 RES1    0.0000
     18 C4        -0.1695   -0.0014    7.4783 C.3       1 RES1    0.0000
     19 H9        -0.5861    0.5784    6.8374 H         1 RES1    0.0000
     20 H10       -0.6557    0.0333    8.3043 H         1 RES1    0.0000
     21 H11       -0.1716   -0.9013    7.1442 H         1 RES1    0.0000
     22 C5         1.2462    0.4430    7.7112 C.2       1 RES1    0.0000
     23 C6         3.2691    0.4765    9.1890 C.ar      1 RES1    0.0000
     24 C7         2.0214   -0.0447    8.8597 C.ar      1 RES1    0.0000
     25 C8         1.5221   -1.1048    9.6624 C.ar      1 RES1    0.0000
     26 H12        0.6894   -1.4665    9.4609 H         1 RES1    0.0000
     27 C9         2.2169   -1.6059   10.7127 C.ar      1 RES1    0.0000
     28 H13        1.8592   -2.3085   11.2064 H         1 RES1    0.0000
     29 C10        3.4784   -1.0758   11.0681 C.ar      1 RES1    0.0000
     30 C11        3.9984   -0.0067   10.3052 C.ar      1 RES1    0.0000
     31 C12        5.2458    0.5613   10.6818 C.ar      1 RES1    0.0000
     32 H14        5.6004    1.2673   10.1926 H         1 RES1    0.0000
     33 C13        5.9193    0.0768   11.7540 C.ar      1 RES1    0.0000
     34 H15        6.7330    0.4589   11.9945 H         1 RES1    0.0000
     35 C14        5.4162   -0.9837   12.5007 C.ar      1 RES1    0.0000
     36 H16        5.8932   -1.3050   13.2304 H         1 RES1    0.0000
     37 C15        4.2292   -1.5498   12.1657 C.ar      1 RES1    0.0000
     38 H17        3.9052   -2.2621   12.6680 H         1 RES1    0.0000
     39 C16        5.2017    3.4009    1.7197 C.3       1 RES1    0.0000
     40 H18        5.0753    3.8635    2.5512 H         1 RES1    0.0000
     41 H19        5.6348    3.9844    1.0931 H         1 RES1    0.0000
     42 H20        5.7465    2.6239    1.8654 H         1 RES1    0.0000
     43 C17        3.8707    2.9819    1.1741 C.2       1 RES1    0.0000
     44 C18        2.5317    1.8339   -0.6090 C.ar      1 RES1    0.0000
     45 C19        3.7620    2.1457   -0.0339 C.ar      1 RES1    0.0000
     46 C20        4.9215    1.6175   -0.6531 C.ar      1 RES1    0.0000
     47 H21        5.7534    1.8092   -0.2839 H         1 RES1    0.0000
     48 C21        4.8618    0.8434   -1.7631 C.ar      1 RES1    0.0000
     49 H22        5.6473    0.5073   -2.1316 H         1 RES1    0.0000
     50 C22        3.6270    0.5404   -2.3666 C.ar      1 RES1    0.0000
     51 C23        2.4483    1.0390   -1.7873 C.ar      1 RES1    0.0000
     52 C24        1.2118    0.7452   -2.3978 C.ar      1 RES1    0.0000
     53 H23        0.4275    1.0762   -2.0223 H         1 RES1    0.0000
     54 C25        1.1448   -0.0097   -3.5217 C.ar      1 RES1    0.0000
     55 H24        0.3199   -0.1940   -3.9088 H         1 RES1    0.0000
     56 C26        2.3183   -0.5122   -4.0987 C.ar      1 RES1    0.0000
     57 H25        2.2704   -1.0321   -4.8680 H         1 RES1    0.0000
     58 C27        3.5226   -0.2439   -3.5389 C.ar      1 RES1    0.0000
     59 H26        4.2950   -0.5810   -3.9335 H         1 RES1    0.0000
@<TRIPOS>BOND
     1    1    3 1
     2    2    4 1
     3    3    9 1
     4    4   15 1
     5    5    6 1
     6    7    8 1
     7    9   10 1
     8   11    9 1
     9   12    9 1
    10   13   12 1
    11   14   12 1
    12   15   12 1
    13   16   15 1
    14   17   15 1
    15   18   19 1
    16   20   18 1
    17   21   18 1
    18   22    1 2
    19   23    5 1
    20   24   22 1
    21   25   24 ar
    22   26   25 1
    23   27   25 ar
    24   28   27 1
    25   29   27 ar
    26   30   23 ar
    27   31   30 ar
    28   32   31 1
    29   33   31 ar
    30   34   33 1
    31   35   33 ar
    32   36   35 1
    33   37   29 ar
    34   38   37 1
    35   39   40 1
    36   41   39 1
    37   42   39 1
    38   43    2 2
    39   44    7 1
    40   45   43 1
    41   46   45 ar
    42   47   46 1
    43   48   46 ar
    44   49   48 1
    45   50   48 ar
    46   51   44 ar
    47   52   51 ar
    48   53   52 1
    49   54   52 ar
    50   55   54 1
    51   56   54 ar
    52   57   56 1
    53   58   50 ar
    54   59   58 1
    55   18   22 1
    56   23   24 ar
    57   29   30 ar
    58   35   37 ar
    59   39   43 1
    60   44   45 ar
    61   50   51 ar
    62   56   58 ar
@<TRIPOS>SUBSTRUCTURE
     1 RES1 1

@<TRIPOS>CRYSIN
   7.4411    8.8911   18.1060 100.6450  94.3310 106.3290   2 1

