# MOL2 file generated by ConQuest
# Please check atom types

@<TRIPOS>MOLECULE
FOVYOE
    30    31     1
SMALL
NO_CHARGES
****
Generated from CSD

@<TRIPOS>ATOM
      1 C1         4.6463    2.6518    0.4470 C.ar      1 RES1    0.0000
      2 C2         3.9108    2.3537   -0.6951 C.ar      1 RES1    0.0000
      3 C3         4.4802    1.6626   -1.7430 C.ar      1 RES1    0.0000
      4 C4         5.7962    1.2807   -1.6302 C.ar      1 RES1    0.0000
      5 C5         6.5693    1.5831   -0.5253 C.ar      1 RES1    0.0000
      6 C6         5.9849    2.2682    0.5133 C.ar      1 RES1    0.0000
      7 C7         4.0083    3.3839    1.5427 C.2       1 RES1    0.0000
      8 C8         3.9265    4.3505    3.6545 C.ar      1 RES1    0.0000
      9 C9         2.5447    4.4183    3.8362 C.ar      1 RES1    0.0000
     10 C10        2.0412    5.1152    4.8881 C.ar      1 RES1    0.0000
     11 C11        2.9251    5.7384    5.7556 C.ar      1 RES1    0.0000
     12 C12        4.7080    4.9938    4.5843 C.ar      1 RES1    0.0000
     13 C13        3.2895    7.0459    7.7135 C.3       1 RES1    0.0000
     14 N1         4.5979    3.6469    2.6278 N.2       1 RES1    0.0000
     15 N2         4.2350    5.6940    5.6269 N.ar      1 RES1    0.0000
     16 N3         6.4032    0.5218   -2.7312 N.pl3     1 RES1    0.0000
     17 O1         2.3817    6.4093    6.7996 O.3       1 RES1    0.0000
     18 O2         7.6093    0.3861   -2.7326 O.2       1 RES1    0.0000
     19 O3         5.6816    0.0846   -3.6054 O.2       1 RES1    0.0000
     20 H1         3.0066    2.6301   -0.7561 H         1 RES1    0.0000
     21 H2         4.0110    1.4993   -2.5071 H         1 RES1    0.0000
     22 H3         7.4225    1.3318   -0.5041 H         1 RES1    0.0000
     23 H4         6.4792    2.5128    1.3132 H         1 RES1    0.0000
     24 H5         3.0777    3.6854    1.3663 H         1 RES1    0.0000
     25 H6         1.9684    3.9786    3.2897 H         1 RES1    0.0000
     26 H7         1.1857    5.1345    5.0937 H         1 RES1    0.0000
     27 H8         5.6994    5.0088    4.4703 H         1 RES1    0.0000
     28 H9         3.9458    6.4076    8.1579 H         1 RES1    0.0000
     29 H10        3.8163    7.7646    7.2161 H         1 RES1    0.0000
     30 H11        2.7662    7.4379    8.3303 H         1 RES1    0.0000
@<TRIPOS>BOND
     1    1    2 ar
     2    2    3 ar
     3    3    4 ar
     4    4    5 ar
     5    5    6 ar
     6    6    1 ar
     7    7    1 1
     8    8    9 ar
     9    9   10 ar
    10   10   11 ar
    11   11   15 ar
    12   12    8 ar
    13   13   17 1
    14   14    7 2
    15   15   12 ar
    16   16    4 1
    17   17   11 1
    18   18   16 2
    19   19   16 2
    20   20    2 1
    21   21    3 1
    22   22    5 1
    23   23    6 1
    24   24    7 1
    25   25    9 1
    26   26   10 1
    27   27   12 1
    28   28   13 1
    29   29   13 1
    30   30   13 1
    31    8   14 1
@<TRIPOS>SUBSTRUCTURE
     1 RES1 1

@<TRIPOS>CRYSIN
  11.0800    8.3760   14.3640  90.0000 112.5600  90.0000 231 1

