# MOL2 file generated by ConQuest
# Please check atom types

@<TRIPOS>MOLECULE
FOVYOE11
    30    31     1
SMALL
NO_CHARGES
****
Generated from CSD

@<TRIPOS>ATOM
      1 C1         1.5144   -8.6454    2.5535 C.ar      1 RES1    0.0000
      2 C2         2.0730   -7.3732    2.4261 C.ar      1 RES1    0.0000
      3 C3         2.5095   -6.6736    3.5408 C.ar      1 RES1    0.0000
      4 C4         2.3676   -7.2696    4.7732 C.ar      1 RES1    0.0000
      5 C5         1.7828   -8.5223    4.9401 C.ar      1 RES1    0.0000
      6 C6         1.3483   -9.2023    3.8271 C.ar      1 RES1    0.0000
      7 C7         1.1270   -9.3938    1.3437 C.2       1 RES1    0.0000
      8 C8         0.3404  -11.2953    0.2662 C.ar      1 RES1    0.0000
      9 C9        -0.2063  -10.7364   -0.8703 C.ar      1 RES1    0.0000
     10 C10       -0.3618  -12.7394   -1.9301 C.ar      1 RES1    0.0000
     11 C11        0.1583  -13.4195   -0.8259 C.ar      1 RES1    0.0000
     12 C12        0.5079  -12.6925    0.2799 C.ar      1 RES1    0.0000
     13 C13       -1.2537  -12.8254   -4.1344 C.3       1 RES1    0.0000
     14 N1         0.6914  -10.5937    1.4332 N.2       1 RES1    0.0000
     15 N2        -0.5641  -11.4301   -1.9543 N.ar      1 RES1    0.0000
     16 N3         2.8666   -6.5876    5.9628 N.pl3     1 RES1    0.0000
     17 O1        -0.6902  -13.4977   -3.0004 O.3       1 RES1    0.0000
     18 O2         2.7443   -7.1328    7.0436 O.2       1 RES1    0.0000
     19 O3         3.4558   -5.5323    5.8120 O.2       1 RES1    0.0000
     20 H1         2.0112   -6.9706    1.6131 H         1 RES1    0.0000
     21 H2         2.9559   -5.9935    3.4916 H         1 RES1    0.0000
     22 H3         1.7535   -8.9307    5.8096 H         1 RES1    0.0000
     23 H4         0.8818  -10.0719    3.8771 H         1 RES1    0.0000
     24 H5         1.2335   -8.9952    0.4686 H         1 RES1    0.0000
     25 H6        -0.1141   -9.7749   -1.0824 H         1 RES1    0.0000
     26 H7         0.4093  -14.2598   -0.8646 H         1 RES1    0.0000
     27 H8         1.1840  -13.1381    0.8437 H         1 RES1    0.0000
     28 H9        -2.1546  -12.3564   -3.7408 H         1 RES1    0.0000
     29 H10       -0.7420  -12.2548   -4.5586 H         1 RES1    0.0000
     30 H11       -1.4052  -13.4254   -4.8312 H         1 RES1    0.0000
@<TRIPOS>BOND
     1    1    2 ar
     2    2    3 ar
     3    3    4 ar
     4    4    5 ar
     5    5    6 ar
     6    6    1 ar
     7    7    1 1
     8    8    9 ar
     9    9   15 ar
    10   10   11 ar
    11   11   12 ar
    12   12    8 ar
    13   13   17 1
    14   14    7 2
    15   15   10 ar
    16   16    4 1
    17   17   10 1
    18   18   16 2
    19   19   16 2
    20   20    2 1
    21   21    3 1
    22   22    5 1
    23   23    6 1
    24   24    7 1
    25   25    9 1
    26   26   11 1
    27   27   12 1
    28   28   13 1
    29   29   13 1
    30   30   13 1
    31    8   14 1
@<TRIPOS>SUBSTRUCTURE
     1 RES1 1

@<TRIPOS>CRYSIN
   3.8566   19.5420    8.0660  90.0000  89.3700  90.0000   4 1

