# MOL2 file generated by ConQuest
# Please check atom types

@<TRIPOS>MOLECULE
FOVZIA
    21    21     1
SMALL
NO_CHARGES
****
Generated from CSD

@<TRIPOS>ATOM
      1 C1         5.1582   10.7342   -0.8411 C.ar      1 RES1    0.0000
      2 C2         4.8508    9.4079   -1.0632 C.ar      1 RES1    0.0000
      3 H1         4.3770    9.1643   -1.8250 H         1 RES1    0.0000
      4 C3         5.2384    8.4496   -0.1663 C.ar      1 RES1    0.0000
      5 H2         5.0320    7.5545   -0.3185 H         1 RES1    0.0000
      6 C4         5.9344    8.8163    0.9555 C.ar      1 RES1    0.0000
      7 H3         6.2024    8.1614    1.5585 H         1 RES1    0.0000
      8 C5         6.2478   10.1390    1.2107 C.ar      1 RES1    0.0000
      9 C6         5.8504   11.1384    0.3024 C.ar      1 RES1    0.0000
     10 C7         7.0074   10.5409    2.4034 C.2       1 RES1    0.0000
     11 C8         8.1101    9.8696    4.3777 C.3       1 RES1    0.0000
     12 H4         8.9181   10.3323    4.1433 H         1 RES1    0.0000
     13 H5         8.3278    9.0682    4.8578 H         1 RES1    0.0000
     14 H6         7.5665   10.4354    4.9305 H         1 RES1    0.0000
     15 N1         4.7211   11.6937   -1.8467 N.pl3     1 RES1    0.0000
     16 O1         4.9439   12.8639   -1.7040 O.2       1 RES1    0.0000
     17 O2         4.1506   11.2790   -2.8192 O.2       1 RES1    0.0000
     18 O3         6.1246   12.4269    0.5127 O.3       1 RES1    0.0000
     19 H7         6.6288   12.5080    1.3250 H         1 RES1    0.0000
     20 O4         7.2693   11.6958    2.6756 O.2       1 RES1    0.0000
     21 O5         7.3794    9.5270    3.1674 O.3       1 RES1    0.0000
@<TRIPOS>BOND
     1    1    2 ar
     2    2    3 1
     3    4    2 ar
     4    5    4 1
     5    6    4 ar
     6    7    6 1
     7    8    6 ar
     8    9    1 ar
     9   10    8 1
    10   11   12 1
    11   13   11 1
    12   14   11 1
    13   15    1 1
    14   16   15 2
    15   17   15 2
    16   18    9 1
    17   19   18 1
    18   20   10 2
    19   21   10 1
    20    8    9 ar
    21   11   21 1
@<TRIPOS>SUBSTRUCTURE
     1 RES1 1

@<TRIPOS>CRYSIN
   7.6120   11.7160    9.6560  90.0000 101.8300  90.0000  14 1

