# MOL2 file generated by ConQuest
# Please check atom types

@<TRIPOS>MOLECULE
FOWREO
    44    50     2
SMALL
NO_CHARGES
****
Generated from CSD

@<TRIPOS>ATOM
      1 O1        -0.8356    3.0768   -2.6854 O.2       1 RES1    0.0000
      2 O2        -1.2671    0.9584   -2.3356 O.2       1 RES1    0.0000
      3 N1         4.5818    1.6645   -0.0749 N.2       1 RES1    0.0000
      4 N2         3.6728    3.9091   -0.7994 N.2       1 RES1    0.0000
      5 N3         2.8097    2.9003   -0.9492 N.3       1 RES1    0.0000
      6 N4         2.4975    0.4792   -0.6245 N.pl3     1 RES1    0.0000
      7 N5        -0.3122    1.8663   -2.2107 N.pl3     1 RES1    0.0000
      8 N6        -0.1561    5.8763    0.5745 N.pl3     1 RES1    0.0000
      9 C1         4.9491    2.8499   -0.4122 C.2       1 RES1    0.0000
     10 C2         5.9316    3.7578    0.0625 C.3       1 RES1    0.0000
     11 C3         3.2137    1.6645   -0.6245 C.2       1 RES1    0.0000
     12 C4         1.2396    0.6053   -1.0617 C.2       1 RES1    0.0000
     13 C5         0.7254    1.8915   -1.4863 C.2       1 RES1    0.0000
     14 C6         1.4140    3.1021   -1.4613 C.3       1 RES1    0.0000
     15 C7         0.8264    4.2874   -0.4996 C.2       1 RES1    0.0000
     16 C8         0.4224    5.4475   -0.4871 C.2       1 RES1    0.0000
     17 C9        -0.2295    4.9683    1.5113 C.ar      1 RES1    0.0000
     18 C10        0.3122    3.7830    1.1616 C.ar      1 RES1    0.0000
     19 C11        0.3856    2.6229    1.6112 C.ar      1 RES1    0.0000
     20 C12       -0.3030    2.5724    3.1350 C.ar      1 RES1    0.0000
     21 C13       -0.9917    3.8082    3.4597 C.ar      1 RES1    0.0000
     22 C14       -0.8723    4.8170    3.0226 C.ar      1 RES1    0.0000
     23 O3        -0.2204    9.5836   -8.8179 O.2       2 RES2    0.0000
     24 O4        -0.4224   11.7525   -8.5432 O.2       2 RES2    0.0000
     25 N7         5.1419   10.7689   -6.4573 N.2       2 RES2    0.0000
     26 N8         4.5543    8.7513   -6.9444 N.2       2 RES2    0.0000
     27 N9         3.4616    9.7601   -6.9944 N.3       2 RES2    0.0000
     28 N10        3.1311   12.0299   -6.8570 N.pl3     2 RES2    0.0000
     29 N11        0.1745   10.6176   -8.3683 N.pl3     2 RES2    0.0000
     30 N12        0.4958    6.6581   -5.7829 N.pl3     2 RES2    0.0000
     31 C15        5.5184    9.5584   -6.4573 C.2       2 RES2    0.0000
     32 C16        6.8498    9.1044   -6.2200 C.3       2 RES2    0.0000
     33 C17        3.9299   11.0211   -6.8695 C.2       2 RES2    0.0000
     34 C18        1.9558   11.9038   -7.5564 C.2       2 RES2    0.0000
     35 C19        1.3865   10.6933   -7.6564 C.2       2 RES2    0.0000
     36 C20        2.2129    9.4827   -7.6064 C.3       2 RES2    0.0000
     37 C21        1.4416    8.5244   -6.5448 C.2       2 RES2    0.0000
     38 C22        1.0376    7.2886   -6.8071 C.2       2 RES2    0.0000
     39 C23        0.3397    7.6921   -4.8961 C.ar      2 RES2    0.0000
     40 C24        0.8907    8.9027   -5.4082 C.ar      2 RES2    0.0000
     41 C25        0.8539    9.9367   -4.5214 C.ar      2 RES2    0.0000
     42 C26        0.4040   10.3150   -2.8977 C.ar      2 RES2    0.0000
     43 C27       -0.1561    8.7513   -2.5355 C.ar      2 RES2    0.0000
     44 C28       -0.2846    7.6669   -3.4348 C.ar      2 RES2    0.0000
@<TRIPOS>BOND
     1    1    7 2
     2    2    7 2
     3    3    9 1
     4    4    5 1
     5    5   11 1
     6    6   11 1
     7    7   13 1
     8    8   16 1
     9    9    4 2
    10   10    9 1
    11   11    3 2
    12   12    6 1
    13   13   12 2
    14   14    5 1
    15   15   14 1
    16   16   15 2
    17   17    8 1
    18   18   15 1
    19   19   18 ar
    20   20   19 ar
    21   21   20 ar
    22   22   17 ar
    23   23   29 2
    24   24   29 2
    25   25   31 1
    26   26   27 1
    27   27   33 1
    28   28   33 1
    29   29   35 1
    30   30   38 1
    31   31   26 2
    32   32   31 1
    33   33   25 2
    34   34   28 1
    35   35   34 2
    36   36   27 1
    37   37   36 1
    38   38   37 2
    39   39   30 1
    40   40   37 1
    41   41   40 ar
    42   42   41 ar
    43   43   42 ar
    44   44   39 ar
    45   13   14 1
    46   17   18 ar
    47   21   22 ar
    48   35   36 1
    49   39   40 ar
    50   43   44 ar
@<TRIPOS>SUBSTRUCTURE
     1 RES1 1
     2 RES2 23

@<TRIPOS>CRYSIN
   9.1820   25.2200   12.4900  90.0000  90.0000  90.0000  19 1

