# MOL2 file generated by ConQuest
# Please check atom types

@<TRIPOS>MOLECULE
FOXCUR
    49    52     1
SMALL
NO_CHARGES
****
Generated from CSD

@<TRIPOS>ATOM
      1 O1        -0.1540    7.6166    2.2438 O.3       1 RES1    0.0000
      2 O2         0.4585    9.2824    0.9264 O.2       1 RES1    0.0000
      3 O3         4.5547    5.7040    2.7395 O.2       1 RES1    0.0000
      4 O4         3.9506    3.6908    2.3215 O.2       1 RES1    0.0000
      5 N1         3.7331    4.8898    2.3564 N.pl3     1 RES1    0.0000
      6 N2         2.2953    7.4328    3.0793 N.3       1 RES1    0.0000
      7 C1        -2.0403    6.2712    3.9709 C.3       1 RES1    0.0000
      8 H1        -2.5052    5.9709    3.1870 H         1 RES1    0.0000
      9 H2        -2.0561    7.2310    4.0044 H         1 RES1    0.0000
     10 H3        -2.4705    5.9176    4.7526 H         1 RES1    0.0000
     11 C2        -0.5998    5.7886    3.9228 C.3       1 RES1    0.0000
     12 C3        -0.4084    4.2559    3.8859 C.3       1 RES1    0.0000
     13 H4        -0.5630    3.9092    2.9935 H         1 RES1    0.0000
     14 H5        -1.0150    3.8170    4.5032 H         1 RES1    0.0000
     15 C4         1.0631    4.0396    4.3131 C.3       1 RES1    0.0000
     16 H6         1.1203    3.5417    5.1439 H         1 RES1    0.0000
     17 H7         1.5650    3.5729    3.6265 H         1 RES1    0.0000
     18 C5         1.5675    5.4855    4.4909 C.3       1 RES1    0.0000
     19 H8         2.3818    5.5639    5.0310 H         1 RES1    0.0000
     20 C6         0.3180    6.1845    5.1126 C.3       1 RES1    0.0000
     21 C7         0.4321    7.6908    5.3497 C.3       1 RES1    0.0000
     22 H9        -0.3558    8.0043    5.7992 H         1 RES1    0.0000
     23 H10        0.5196    8.1416    4.5065 H         1 RES1    0.0000
     24 H11        1.2032    7.8718    5.8920 H         1 RES1    0.0000
     25 C8        -0.0981    5.5528    6.4545 C.3       1 RES1    0.0000
     26 H12        0.5929    5.6977    7.1053 H         1 RES1    0.0000
     27 H13       -0.2341    4.6096    6.3360 H         1 RES1    0.0000
     28 H14       -0.9145    5.9571    6.7598 H         1 RES1    0.0000
     29 C9         1.6761    6.1076    3.1009 C.3       1 RES1    0.0000
     30 C10        0.1801    6.2615    2.6804 C.3       1 RES1    0.0000
     31 H15       -0.0029    5.6422    1.9435 H         1 RES1    0.0000
     32 C11        2.3731    5.3579    1.9290 C.3       1 RES1    0.0000
     33 H16        1.8268    4.5992    1.6349 H         1 RES1    0.0000
     34 C12        2.4108    6.4522    0.8353 C.3       1 RES1    0.0000
     35 H17        1.6117    6.3239    0.2829 H         1 RES1    0.0000
     36 C13        2.1832    7.7629    1.6528 C.3       1 RES1    0.0000
     37 H18        2.8344    8.4495    1.4012 H         1 RES1    0.0000
     38 C14        0.7772    8.2879    1.5365 C.2       1 RES1    0.0000
     39 C15        3.6088    6.4772   -0.1264 C.3       1 RES1    0.0000
     40 H19        4.4258    6.6485    0.3880 H         1 RES1    0.0000
     41 C16        3.4213    7.5951   -1.1428 C.3       1 RES1    0.0000
     42 H20        2.5944    7.4647   -1.6125 H         1 RES1    0.0000
     43 H21        4.1491    7.5840   -1.7679 H         1 RES1    0.0000
     44 H22        3.4022    8.4405   -0.6888 H         1 RES1    0.0000
     45 C17        3.7538    5.1443   -0.8543 C.3       1 RES1    0.0000
     46 H23        2.9617    4.9730   -1.3687 H         1 RES1    0.0000
     47 H24        3.8759    4.4404   -0.2125 H         1 RES1    0.0000
     48 H25        4.5143    5.1797   -1.4381 H         1 RES1    0.0000
     49 H26        3.1653    7.3302    3.2765 H         1 RES1    0.0000
@<TRIPOS>BOND
     1    1   30 1
     2    2   38 2
     3    3    5 2
     4    4    5 2
     5    5   32 1
     6    6   29 1
     7    7    8 1
     8    9    7 1
     9   10    7 1
    10   11    7 1
    11   12   11 1
    12   13   12 1
    13   14   12 1
    14   15   12 1
    15   16   15 1
    16   17   15 1
    17   18   15 1
    18   19   18 1
    19   20   11 1
    20   21   20 1
    21   22   21 1
    22   23   21 1
    23   24   21 1
    24   25   20 1
    25   26   25 1
    26   27   25 1
    27   28   25 1
    28   29   18 1
    29   30   11 1
    30   31   30 1
    31   32   29 1
    32   33   32 1
    33   34   32 1
    34   35   34 1
    35   36    6 1
    36   37   36 1
    37   38    1 1
    38   39   34 1
    39   40   39 1
    40   41   39 1
    41   42   41 1
    42   43   41 1
    43   44   41 1
    44   45   39 1
    45   46   45 1
    46   47   45 1
    47   48   45 1
    48   49    6 1
    49   18   20 1
    50   29   30 1
    51   34   36 1
    52   36   38 1
@<TRIPOS>SUBSTRUCTURE
     1 RES1 1

@<TRIPOS>CRYSIN
  10.8100    6.9349   12.2160  90.0000 113.7380  90.0000   4 1

