# MOL2 file generated by ConQuest
# Please check atom types

@<TRIPOS>MOLECULE
FOXCAY
    28    28     1
SMALL
NO_CHARGES
****
Generated from CSD

@<TRIPOS>ATOM
      1 O1         2.8893    0.4541   13.3101 O.2       1 RES1    0.0000
      2 O2         1.6564   -1.0203    5.0758 O.2       1 RES1    0.0000
      3 O3         1.9996   -1.0389   12.1010 O.2       1 RES1    0.0000
      4 O4         2.5641    0.5787    3.7926 O.3       1 RES1    0.0000
      5 N1         4.3644    2.7470    5.4005 N.1       1 RES1    0.0000
      6 N2         2.6195   -0.0123   12.2225 N.pl3     1 RES1    0.0000
      7 C1         3.0742    0.6926   11.0134 C.ar      1 RES1    0.0000
      8 C2         4.1710    2.5351   10.0100 C.ar      1 RES1    0.0000
      9 H1         4.6545    3.3263   10.0835 H         1 RES1    0.0000
     10 C3         3.8753    2.0407    8.7701 C.ar      1 RES1    0.0000
     11 H2         4.1533    2.5040    8.0125 H         1 RES1    0.0000
     12 C4         3.1577    0.8435    8.6245 C.ar      1 RES1    0.0000
     13 C5         2.7598    0.1626    9.7735 C.ar      1 RES1    0.0000
     14 H3         2.2892   -0.6371    9.7080 H         1 RES1    0.0000
     15 C6         2.7406    0.2766    7.3391 C.2       1 RES1    0.0000
     16 H4         2.2439   -0.5074    7.4033 H         1 RES1    0.0000
     17 C7         2.9566    0.7004    6.0872 C.2       1 RES1    0.0000
     18 C8         2.3167   -0.0316    4.9475 C.2       1 RES1    0.0000
     19 C9         1.9038    0.0610    2.6107 C.3       1 RES1    0.0000
     20 H5         1.0344   -0.2972    2.8472 H         1 RES1    0.0000
     21 H6         2.4326   -0.6549    2.2233 H         1 RES1    0.0000
     22 C10        1.7502    1.1389    1.6461 C.3       1 RES1    0.0000
     23 H7         1.1587    1.8054    2.0028 H         1 RES1    0.0000
     24 H8         1.3830    0.7887    0.8310 H         1 RES1    0.0000
     25 H9         2.6069    1.5328    1.4684 H         1 RES1    0.0000
     26 C11        3.7242    1.8597    5.7278 C.1       1 RES1    0.0000
     27 C12        3.7607    1.8750   11.1577 C.ar      1 RES1    0.0000
     28 H10        3.9449    2.2223   12.0008 H         1 RES1    0.0000
@<TRIPOS>BOND
     1    1    6 2
     2    2   18 2
     3    3    6 2
     4    4   18 1
     5    5   26 3
     6    6    7 1
     7    7   13 ar
     8    8    9 1
     9   10    8 ar
    10   11   10 1
    11   12   10 ar
    12   13   12 ar
    13   14   13 1
    14   15   12 1
    15   16   15 1
    16   17   15 2
    17   18   17 1
    18   19    4 1
    19   20   19 1
    20   21   19 1
    21   22   19 1
    22   23   22 1
    23   24   22 1
    24   25   22 1
    25   26   17 1
    26   27    7 ar
    27   28   27 1
    28    8   27 ar
@<TRIPOS>SUBSTRUCTURE
     1 RES1 1

@<TRIPOS>CRYSIN
   4.0490   10.7699   13.8840 103.9800  96.9080  91.0650   2 1

