# MOL2 file generated by ConQuest
# Please check atom types

@<TRIPOS>MOLECULE
FOXCAY01
    28    28     1
SMALL
NO_CHARGES
****
Generated from CSD

@<TRIPOS>ATOM
      1 C1        -0.9095    6.6959    2.3512 C.ar      1 RES1    0.0000
      2 C2        -0.7887    6.6905    7.2809 C.2       1 RES1    0.0000
      3 C3        -0.5851    7.2272    3.5857 C.ar      1 RES1    0.0000
      4 H1        -0.1029    8.0193    3.6525 H         1 RES1    0.0000
      5 C4        -0.5820    7.1211    6.0077 C.2       1 RES1    0.0000
      6 C5        -1.7183    5.3491    4.5849 C.ar      1 RES1    0.0000
      7 H2        -2.0084    4.8890    5.3397 H         1 RES1    0.0000
      8 C6        -1.5905    5.5097    2.2030 C.ar      1 RES1    0.0000
      9 H3        -1.7689    5.1641    1.3586 H         1 RES1    0.0000
     10 C7        -0.1657    7.4210    8.4004 C.2       1 RES1    0.0000
     11 C8        -1.0014    6.5401    4.7399 C.ar      1 RES1    0.0000
     12 C9         0.2251    7.3396   10.7463 C.3       1 RES1    0.0000
     13 H4        -0.3276    8.0369   11.1324 H         1 RES1    0.0000
     14 H5         1.0834    7.7251   10.5125 H         1 RES1    0.0000
     15 C10       -2.0012    4.8471    3.3412 C.ar      1 RES1    0.0000
     16 H6        -2.4757    4.0505    3.2624 H         1 RES1    0.0000
     17 C11       -1.5692    5.5353    7.6402 C.1       1 RES1    0.0000
     18 C12        0.4148    6.2546   11.7228 C.3       1 RES1    0.0000
     19 H7        -0.4246    5.8104   11.8738 H         1 RES1    0.0000
     20 H8         0.7344    6.6208   12.5498 H         1 RES1    0.0000
     21 H9         1.0521    5.6244   11.3822 H         1 RES1    0.0000
     22 H10        0.1185    7.9324    5.9048 H         1 RES1    0.0000
     23 N1        -2.2170    4.6373    7.9542 N.1       1 RES1    0.0000
     24 N2        -0.4673    7.4036    1.1329 N.pl3     1 RES1    0.0000
     25 O1         0.4949    8.4134    8.2801 O.2       1 RES1    0.0000
     26 O2        -0.4139    6.8065    9.5613 O.3       1 RES1    0.0000
     27 O3         0.1650    8.4402    1.2678 O.2       1 RES1    0.0000
     28 O4        -0.7281    6.9346    0.0521 O.2       1 RES1    0.0000
@<TRIPOS>BOND
     1    1    3 ar
     2    2    5 2
     3    3    4 1
     4    5   11 1
     5    6    7 1
     6    8    1 ar
     7    9    8 1
     8   10    2 1
     9   11    3 ar
    10   12   13 1
    11   14   12 1
    12   15    6 ar
    13   16   15 1
    14   17    2 1
    15   18   12 1
    16   19   18 1
    17   20   18 1
    18   21   18 1
    19   22    5 1
    20   23   17 3
    21   24    1 1
    22   25   10 2
    23   26   10 1
    24   27   24 2
    25   28   24 2
    26    6   11 ar
    27    8   15 ar
    28   12   26 1
@<TRIPOS>SUBSTRUCTURE
     1 RES1 1

@<TRIPOS>CRYSIN
   4.0497   10.7740   13.8820 103.9340  96.9590  91.1610   2 1

