# MOL2 file generated by ConQuest
# Please check atom types

@<TRIPOS>MOLECULE
FOYPAK
    30    32     1
SMALL
NO_CHARGES
****
Generated from CSD

@<TRIPOS>ATOM
      1 O1        15.9133    2.2226    0.9260 O.3       1 RES1    0.0000
      2 C1        14.7606    1.5415    0.6273 C.2       1 RES1    0.0000
      3 C2        14.9317    0.3532    0.0384 C.2       1 RES1    0.0000
      4 C3        17.2393   -0.7605   -0.5505 C.ar      1 RES1    0.0000
      5 C4        18.5802   -0.5147   -0.4568 C.ar      1 RES1    0.0000
      6 C5        20.6118    0.8440    0.1643 C.3       1 RES1    0.0000
      7 C6        21.0353    1.9371    1.1156 C.3       1 RES1    0.0000
      8 C7        20.2247    3.1952    0.8407 C.3       1 RES1    0.0000
      9 C8        18.7406    2.9509    1.2001 C.3       1 RES1    0.0000
     10 C9        18.2658    1.6585    0.5966 C.ar      1 RES1    0.0000
     11 C10       19.1041    0.6646    0.0960 C.ar      1 RES1    0.0000
     12 C11       16.3582    0.2197   -0.0545 C.ar      1 RES1    0.0000
     13 C12       16.9142    1.3717    0.4914 C.ar      1 RES1    0.0000
     14 C13       13.9244   -0.6660   -0.4100 C.3       1 RES1    0.0000
     15 N1        13.5737    2.2424    1.0227 N.pl3     1 RES1    0.0000
     16 O2        12.5023    1.6784    0.7839 O.2       1 RES1    0.0000
     17 O3        13.6849    3.3383    1.5732 O.2       1 RES1    0.0000
     18 H1        16.8736   -1.6770   -0.9981 H         1 RES1    0.0000
     19 H2        19.2688   -1.2595   -0.8292 H         1 RES1    0.0000
     20 H3        21.0224    1.0541   -0.8523 H         1 RES1    0.0000
     21 H4        21.0866   -0.0548    0.5375 H         1 RES1    0.0000
     22 H5        20.8514    1.6360    2.1422 H         1 RES1    0.0000
     23 H6        22.1131    2.1562    0.9981 H         1 RES1    0.0000
     24 H7        20.6161    4.0522    1.4204 H         1 RES1    0.0000
     25 H8        20.3167    3.4773   -0.2303 H         1 RES1    0.0000
     26 H9        18.5417    2.9433    2.2880 H         1 RES1    0.0000
     27 H10       18.1567    3.7853    0.7141 H         1 RES1    0.0000
     28 H11       13.4304   -1.2800    0.3609 H         1 RES1    0.0000
     29 H12       13.1096   -0.1369   -0.9367 H         1 RES1    0.0000
     30 H13       14.4142   -1.3485   -1.1133 H         1 RES1    0.0000
@<TRIPOS>BOND
     1    1    2 1
     2    2    3 2
     3    3   12 1
     4    4    5 ar
     5    5   11 ar
     6    6    7 1
     7    7    8 1
     8    8    9 1
     9    9   10 1
    10   10   11 ar
    11   11    6 1
    12   12    4 ar
    13   13    1 1
    14   14    3 1
    15   15    2 1
    16   16   15 2
    17   17   15 2
    18   18    4 1
    19   19    5 1
    20   20    6 1
    21   21    6 1
    22   22    7 1
    23   23    7 1
    24   24    8 1
    25   25    8 1
    26   26    9 1
    27   27    9 1
    28   28   14 1
    29   29   14 1
    30   30   14 1
    31   10   13 ar
    32   12   13 ar
@<TRIPOS>SUBSTRUCTURE
     1 RES1 1

@<TRIPOS>CRYSIN
  21.3860    6.8450    7.6780  90.0000  90.0000  90.0000  29 1

