# MOL2 file generated by ConQuest
# Please check atom types

@<TRIPOS>MOLECULE
FRGLXB
    21    22     1
SMALL
NO_CHARGES
****
Generated from CSD

@<TRIPOS>ATOM
      1 O1        13.0120    2.3535   -0.7109 O.3       1 RES1    0.0000
      2 N1        13.0824    1.4587   -1.7983 N.2       1 RES1    0.0000
      3 C1        12.1424    0.5934   -1.8295 C.2       1 RES1    0.0000
      4 C2        11.0508    0.5022   -0.8766 C.2       1 RES1    0.0000
      5 C3        11.1716    1.1193    0.2912 C.2       1 RES1    0.0000
      6 C4        12.4826    1.8236    0.5091 C.3       1 RES1    0.0000
      7 C5        12.0819   -0.3005   -3.0384 C.2       1 RES1    0.0000
      8 O2        11.0899   -0.8796   -3.3466 O.2       1 RES1    0.0000
      9 O3        13.2269   -0.3537   -3.6900 O.3       1 RES1    0.0000
     10 C6        13.2334   -1.1841   -4.9000 C.3       1 RES1    0.0000
     11 C7        14.5936   -1.6085   -5.1600 C.3       1 RES1    0.0000
     12 C8        10.1354    1.1242    1.3525 C.ar      1 RES1    0.0000
     13 C9        10.3220    1.7994    2.5353 C.ar      1 RES1    0.0000
     14 C10        9.3481    1.8025    3.5314 C.ar      1 RES1    0.0000
     15 C11        8.1664    1.1617    3.3296 C.ar      1 RES1    0.0000
     16 C12        7.9536    0.5080    2.1568 C.ar      1 RES1    0.0000
     17 C13        8.9232    0.4798    1.1758 C.ar      1 RES1    0.0000
     18 C14       13.4999    0.9565    1.2360 C.2       1 RES1    0.0000
     19 O4        13.1870    0.0957    1.9981 O.2       1 RES1    0.0000
     20 O5        14.7358    1.3093    0.9790 O.3       1 RES1    0.0000
     21 C15       15.7697    0.6099    1.6969 C.3       1 RES1    0.0000
@<TRIPOS>BOND
     1    1    2 1
     2    2    3 2
     3    3    4 1
     4    4    5 2
     5    5    6 1
     6    6    1 1
     7    7    3 1
     8    8    7 2
     9    9    7 1
    10   10    9 1
    11   11   10 1
    12   12    5 1
    13   13   12 ar
    14   14   13 ar
    15   15   14 ar
    16   16   15 ar
    17   17   12 ar
    18   18    6 1
    19   19   18 2
    20   20   18 1
    21   21   20 1
    22   16   17 ar
@<TRIPOS>SUBSTRUCTURE
     1 RES1 1

@<TRIPOS>CRYSIN
  31.8370    4.4717   10.0702  90.0000  94.3700  90.0000  14 2

