# MOL2 file generated by ConQuest
# Please check atom types

@<TRIPOS>MOLECULE
FRGLXA
    22    23     1
SMALL
NO_CHARGES
****
Generated from CSD

@<TRIPOS>ATOM
      1 O1        -0.5215    7.4621    2.4034 O.3       1 RES1    0.0000
      2 C1         0.7005    8.1203    2.3459 C.2       1 RES1    0.0000
      3 C2         1.6966    7.1943    2.2552 C.2       1 RES1    0.0000
      4 C3         1.0675    5.9143    2.2257 C.2       1 RES1    0.0000
      5 C4        -0.2533    6.1481    2.3257 C.2       1 RES1    0.0000
      6 C5         0.6521    9.5591    2.3300 C.2       1 RES1    0.0000
      7 N1        -0.1903   10.3376    2.9021 N.2       1 RES1    0.0000
      8 O2        -1.1518    9.6998    3.6527 O.3       1 RES1    0.0000
      9 C6         1.6525   10.3716    1.5630 C.2       1 RES1    0.0000
     10 O3         2.0475   11.4405    1.9292 O.2       1 RES1    0.0000
     11 O4         2.0341    9.7679    0.4620 O.3       1 RES1    0.0000
     12 C7         3.0441   10.4533   -0.3382 C.3       1 RES1    0.0000
     13 C8         3.7688    9.6000   -1.0981 C.3       1 RES1    0.0000
     14 C9         3.1490    7.4281    2.2394 C.ar      1 RES1    0.0000
     15 C10        3.7240    8.4947    2.9158 C.ar      1 RES1    0.0000
     16 C11        5.0901    8.7103    2.8820 C.ar      1 RES1    0.0000
     17 C12        5.9047    7.8411    2.1991 C.ar      1 RES1    0.0000
     18 C13        5.3599    6.7608    1.5435 C.ar      1 RES1    0.0000
     19 C14        3.9908    6.5543    1.5507 C.ar      1 RES1    0.0000
     20 O5        -1.3467    5.4150    2.4063 O.3       1 RES1    0.0000
     21 C15       -1.1364    3.9966    2.3192 C.3       1 RES1    0.0000
     22 C16       -2.4350    3.3384    2.6359 C.3       1 RES1    0.0000
@<TRIPOS>BOND
     1    1    2 1
     2    2    3 2
     3    3    4 1
     4    4    5 2
     5    5    1 1
     6    6    2 1
     7    7    6 2
     8    8    7 1
     9    9    6 1
    10   10    9 2
    11   11    9 1
    12   12   11 1
    13   13   12 1
    14   14    3 1
    15   15   14 ar
    16   16   15 ar
    17   17   16 ar
    18   18   17 ar
    19   19   14 ar
    20   20    5 1
    21   21   20 1
    22   22   21 1
    23   18   19 ar
@<TRIPOS>SUBSTRUCTURE
     1 RES1 1

@<TRIPOS>CRYSIN
   9.8860   22.6950    7.4310  90.0000 104.4500  90.0000  14 1

