# MOL2 file generated by ConQuest
# Please check atom types

@<TRIPOS>MOLECULE
FUBDUC
    50    53     1
SMALL
NO_CHARGES
****
Generated from CSD

@<TRIPOS>ATOM
      1 C1         5.8398    6.2015    4.3248 C.3       1 RES1    0.0000
      2 C2         4.7219    7.1976    3.8539 C.3       1 RES1    0.0000
      3 H1         3.8933    6.9008    4.2856 H         1 RES1    0.0000
      4 C3         5.0587    8.5571    4.4694 C.2       1 RES1    0.0000
      5 C4         5.2588    8.5410    5.9708 C.3       1 RES1    0.0000
      6 H2         4.4099    8.2715    6.3790 H         1 RES1    0.0000
      7 C5         6.3062    7.4374    6.2971 C.3       1 RES1    0.0000
      8 H3         6.5101    7.4045    7.2547 H         1 RES1    0.0000
      9 C6         7.5762    7.5874    5.4528 C.3       1 RES1    0.0000
     10 H4         8.3434    7.2064    5.9092 H         1 RES1    0.0000
     11 H5         7.7566    8.5210    5.2599 H         1 RES1    0.0000
     12 C7         7.2619    6.8046    4.1532 C.3       1 RES1    0.0000
     13 H6         7.9142    6.0988    4.0187 H         1 RES1    0.0000
     14 H7         7.2874    7.3989    3.3874 H         1 RES1    0.0000
     15 C8         4.7760    5.5029    6.4878 C.2       1 RES1    0.0000
     16 C9         4.9130    5.4732    7.9802 C.ar      1 RES1    0.0000
     17 C10        3.8731    5.9119    8.7886 C.ar      1 RES1    0.0000
     18 H8         3.1129    6.2841    8.4052 H         1 RES1    0.0000
     19 C11        3.9673    5.7948   10.1600 C.ar      1 RES1    0.0000
     20 H9         3.2919    6.1172   10.7116 H         1 RES1    0.0000
     21 C12        5.0830    5.1925   10.6948 C.ar      1 RES1    0.0000
     22 C13        6.1227    4.7201    9.9189 C.ar      1 RES1    0.0000
     23 H10        6.8568    4.3014   10.3069 H         1 RES1    0.0000
     24 C14        6.0398    4.8885    8.5509 C.ar      1 RES1    0.0000
     25 H11        6.7413    4.6094    8.0082 H         1 RES1    0.0000
     26 C15        5.7268    4.8396    3.6677 C.3       1 RES1    0.0000
     27 H12        6.2852    4.2124    4.1331 H         1 RES1    0.0000
     28 H13        6.0099    4.9013    2.7516 H         1 RES1    0.0000
     29 H14        4.8143    4.5428    3.7014 H         1 RES1    0.0000
     30 C16        4.4512    7.1767    2.3704 C.ar      1 RES1    0.0000
     31 C17        3.3428    6.4838    1.9129 C.ar      1 RES1    0.0000
     32 H15        2.7719    6.0795    2.5263 H         1 RES1    0.0000
     33 C18        3.0667    6.3819    0.5416 C.ar      1 RES1    0.0000
     34 H16        2.3218    5.9063    0.2523 H         1 RES1    0.0000
     35 C19        3.8947    6.9834   -0.3723 C.ar      1 RES1    0.0000
     36 H17        3.7154    6.9137   -1.2828 H         1 RES1    0.0000
     37 C20        4.9934    7.6909    0.0617 C.ar      1 RES1    0.0000
     38 H18        5.5523    8.1039   -0.5562 H         1 RES1    0.0000
     39 C21        5.2737    7.7911    1.4252 C.ar      1 RES1    0.0000
     40 H19        6.0170    8.2731    1.7077 H         1 RES1    0.0000
     41 C22        5.6278    9.8973    6.5427 C.3       1 RES1    0.0000
     42 H20        6.4385   10.2077    6.1323 H         1 RES1    0.0000
     43 H21        5.7580    9.8195    7.4913 H         1 RES1    0.0000
     44 H22        4.9204   10.5213    6.3667 H         1 RES1    0.0000
     45 N1         5.7694    6.1517    5.8094 N.am      1 RES1    0.0000
     46 N2         5.1766    5.0120   12.1502 N.pl3     1 RES1    0.0000
     47 O1         3.8610    4.8869    5.9428 O.2       1 RES1    0.0000
     48 O2         4.3383    5.5702   12.8533 O.2       1 RES1    0.0000
     49 O3         6.0867    4.3279   12.6010 O.2       1 RES1    0.0000
     50 O4         5.2267    9.5661    3.8135 O.2       1 RES1    0.0000
@<TRIPOS>BOND
     1    1    2 1
     2    2    3 1
     3    4    2 1
     4    5    4 1
     5    6    5 1
     6    7    5 1
     7    8    7 1
     8    9    7 1
     9   10    9 1
    10   11    9 1
    11   12    1 1
    12   13   12 1
    13   14   12 1
    14   15   16 1
    15   16   17 ar
    16   17   18 1
    17   19   17 ar
    18   20   19 1
    19   21   19 ar
    20   22   21 ar
    21   23   22 1
    22   24   16 ar
    23   25   24 1
    24   26    1 1
    25   27   26 1
    26   28   26 1
    27   29   26 1
    28   30    2 1
    29   31   30 ar
    30   32   31 1
    31   33   31 ar
    32   34   33 1
    33   35   33 ar
    34   36   35 1
    35   37   35 ar
    36   38   37 1
    37   39   30 ar
    38   40   39 1
    39   41    5 1
    40   42   41 1
    41   43   41 1
    42   44   41 1
    43   45    1 1
    44   46   21 1
    45   47   15 2
    46   48   46 2
    47   49   46 2
    48   50    4 2
    49    7   45 1
    50    9   12 1
    51   15   45 1
    52   22   24 ar
    53   37   39 ar
@<TRIPOS>SUBSTRUCTURE
     1 RES1 1

@<TRIPOS>CRYSIN
  10.5774    8.0205   12.0680  90.0000 111.6990  90.0000   4 1

