# MOL2 file generated by ConQuest
# Please check atom types

@<TRIPOS>MOLECULE
FUBFOY
    35    36     1
SMALL
NO_CHARGES
****
Generated from CSD

@<TRIPOS>ATOM
      1 C1         2.7811    0.7146    3.7500 C.ar      1 RES1    0.0000
      2 H1         2.6666    1.4401    3.1790 H         1 RES1    0.0000
      3 C2         3.0316    0.0066    7.4531 C.3       1 RES1    0.0000
      4 H2         2.1535    0.0524    7.8862 H         1 RES1    0.0000
      5 C3         2.9288   -0.5622    3.2515 C.ar      1 RES1    0.0000
      6 C4         2.9720   -0.2036    5.9694 C.ar      1 RES1    0.0000
      7 N1         2.9800   -0.7567    1.7944 N.pl3     1 RES1    0.0000
      8 C5         4.0924    0.8710    8.1105 C.3       1 RES1    0.0000
      9 C6         5.2214    1.4804    7.3227 C.2       1 RES1    0.0000
     10 C7         3.0720   -1.6681    4.0637 C.ar      1 RES1    0.0000
     11 H3         3.1621   -2.5196    3.7008 H         1 RES1    0.0000
     12 C8         4.0914   -0.6326    8.2900 C.3       1 RES1    0.0000
     13 H4         4.7857   -1.1294    7.8093 H         1 RES1    0.0000
     14 C9         3.0778   -1.4749    5.4358 C.ar      1 RES1    0.0000
     15 H5         3.1527   -2.2077    6.0031 H         1 RES1    0.0000
     16 C10        2.8076    0.8884    5.1288 C.ar      1 RES1    0.0000
     17 H6         2.7145    1.7410    5.4899 H         1 RES1    0.0000
     18 C11        3.6869    1.7599    9.2617 C.2       1 RES1    0.0000
     19 O1         2.6890   -0.7773   10.1423 O.2       1 RES1    0.0000
     20 O2         4.5745   -1.8333   10.1901 O.2       1 RES1    0.0000
     21 O3         4.2675    1.7907   10.3152 O.2       1 RES1    0.0000
     22 O4         5.5972    2.6042    7.5051 O.2       1 RES1    0.0000
     23 N2         3.7469   -1.1219    9.6385 N.pl3     1 RES1    0.0000
     24 O5         2.9437    0.2493    1.0872 O.2       1 RES1    0.0000
     25 O6         3.0786   -1.8889    1.3531 O.2       1 RES1    0.0000
     26 O7         5.7110    0.6448    6.4152 O.3       1 RES1    0.0000
     27 C12        6.8087    1.1667    5.6281 C.3       1 RES1    0.0000
     28 H7         6.5375    1.9835    5.2034 H         1 RES1    0.0000
     29 H8         7.0561    0.5251    4.9595 H         1 RES1    0.0000
     30 H9         7.5598    1.3378    6.2012 H         1 RES1    0.0000
     31 C13        2.1541    3.4095    9.9548 C.3       1 RES1    0.0000
     32 H10        1.8509    2.9009   10.7111 H         1 RES1    0.0000
     33 H11        1.4256    3.9268    9.6046 H         1 RES1    0.0000
     34 H12        2.8620    3.9974   10.2281 H         1 RES1    0.0000
     35 O8         2.6431    2.5065    8.9292 O.3       1 RES1    0.0000
@<TRIPOS>BOND
     1    1    2 1
     2    3    4 1
     3    5    1 ar
     4    6    3 1
     5    7    5 1
     6    8    3 1
     7    9    8 1
     8   10    5 ar
     9   11   10 1
    10   12    3 1
    11   13   12 1
    12   14    6 ar
    13   15   14 1
    14   16    1 ar
    15   17   16 1
    16   18    8 1
    17   19   23 2
    18   20   23 2
    19   21   18 2
    20   22    9 2
    21   23   12 1
    22   24    7 2
    23   25    7 2
    24   26    9 1
    25   27   26 1
    26   28   27 1
    27   29   27 1
    28   30   27 1
    29   31   32 1
    30   33   31 1
    31   34   31 1
    32   35   18 1
    33    6   16 ar
    34    8   12 1
    35   10   14 ar
    36   31   35 1
@<TRIPOS>SUBSTRUCTURE
     1 RES1 1

@<TRIPOS>CRYSIN
   7.5881   12.1836    8.3715  90.0000 111.9430  90.0000   4 1

