# MOL2 file generated by ConQuest
# Please check atom types

@<TRIPOS>MOLECULE
FUBGAL
    28    30     1
SMALL
NO_CHARGES
****
Generated from CSD

@<TRIPOS>ATOM
      1 C1         3.4506    6.1957    2.2444 C.2       1 RES1    0.0000
      2 H1         4.2254    5.6665    2.3943 H         1 RES1    0.0000
      3 C2         3.6265    7.4556    1.8476 C.2       1 RES1    0.0000
      4 H2         4.5062    7.7505    1.6429 H         1 RES1    0.0000
      5 C3         2.5183    8.4054    1.7141 C.2       1 RES1    0.0000
      6 C4         1.1322    8.0219    2.2147 C.3       1 RES1    0.0000
      7 H3         0.4429    8.1802    1.5083 H         1 RES1    0.0000
      8 C5         1.0259    6.6131    2.7642 C.3       1 RES1    0.0000
      9 H4         0.1075    6.2411    2.6290 H         1 RES1    0.0000
     10 C6         2.1036    5.5515    2.4727 C.3       1 RES1    0.0000
     11 C7         2.0847    4.6974    3.7685 C.3       1 RES1    0.0000
     12 H5         1.3532    4.0314    3.7352 H         1 RES1    0.0000
     13 H6         2.9438    4.2196    3.8826 H         1 RES1    0.0000
     14 C8         1.8595    5.6932    4.9320 C.3       1 RES1    0.0000
     15 H7         1.2202    5.3321    5.5965 H         1 RES1    0.0000
     16 H8         2.7108    5.9142    5.3872 H         1 RES1    0.0000
     17 C9         1.2933    6.8887    4.2224 C.2       1 RES1    0.0000
     18 C10        1.5402    5.1827    0.0932 C.2       1 RES1    0.0000
     19 C11        1.4956    4.1666   -1.0180 C.3       1 RES1    0.0000
     20 H9         0.7454    4.3690   -1.6156 H         1 RES1    0.0000
     21 H10        1.3776    3.2710   -0.6368 H         1 RES1    0.0000
     22 H11        2.3342    4.1991   -1.5247 H         1 RES1    0.0000
     23 N1         1.2468    8.1097    4.5741 N.2       1 RES1    0.0000
     24 N2         1.8251    4.6924    1.3218 N.am      1 RES1    0.0000
     25 O1         0.8759    8.8723    3.3968 O.3       1 RES1    0.0000
     26 O2         2.7111    9.5334    1.2785 O.2       1 RES1    0.0000
     27 O3         1.3383    6.3806   -0.1053 O.2       1 RES1    0.0000
     28 H12        2.0021    3.8630    1.3900 H         1 RES1    0.0000
@<TRIPOS>BOND
     1    1    2 1
     2    3    1 2
     3    4    3 1
     4    5    3 1
     5    6    5 1
     6    7    6 1
     7    8    6 1
     8    9    8 1
     9   10    1 1
    10   11   10 1
    11   12   11 1
    12   13   11 1
    13   14   11 1
    14   15   14 1
    15   16   14 1
    16   17    8 1
    17   18   19 1
    18   19   20 1
    19   21   19 1
    20   22   19 1
    21   23   17 2
    22   24   10 1
    23   25    6 1
    24   26    5 2
    25   27   18 2
    26   28   24 1
    27    8   10 1
    28   14   17 1
    29   18   24 1
    30   23   25 1
@<TRIPOS>SUBSTRUCTURE
     1 RES1 1

@<TRIPOS>CRYSIN
   7.4372    7.6194   18.2141  90.0000  92.6960  90.0000  14 1

