# MOL2 file generated by ConQuest
# Please check atom types

@<TRIPOS>MOLECULE
FUBMOG
    89    78     3
SMALL
NO_CHARGES
****
Generated from CSD

@<TRIPOS>ATOM
      1 H1         0.6728    9.5998    3.2827 H         1 RES1    0.0000
      2 C1        -0.9205    8.6983    5.2792 C.3       1 RES1    0.0000
      3 H2        -1.5899    8.1370    4.8128 H         1 RES1    0.0000
      4 H3        -0.0823    8.1783    5.3625 H         1 RES1    0.0000
      5 C2        -0.6634    9.9776    4.4795 C.3       1 RES1    0.0000
      6 H4         0.0092   10.5392    4.9600 H         1 RES1    0.0000
      7 C3        -1.9456   10.7624    4.3127 C.3       1 RES1    0.0000
      8 H5        -1.7593   11.6189    3.8308 H         1 RES1    0.0000
      9 C4        -2.5092   11.0599    5.6936 C.3       1 RES1    0.0000
     10 H6        -3.3861   11.5300    5.5959 H         1 RES1    0.0000
     11 C5        -2.7155    9.7693    6.4936 C.3       1 RES1    0.0000
     12 H7        -3.3470    9.1812    5.9890 H         1 RES1    0.0000
     13 C6        -3.3178   10.0574    7.8714 C.3       1 RES1    0.0000
     14 H8        -3.4287    9.2098    8.3711 H         1 RES1    0.0000
     15 H9        -2.7062   10.6408    8.3868 H         1 RES1    0.0000
     16 C7        -0.9656    7.6499    8.4518 C.3       1 RES1    0.0000
     17 H10       -1.0843    8.4483    9.0242 H         1 RES1    0.0000
     18 H11       -0.0045    7.5700    8.2271 H         1 RES1    0.0000
     19 C8        -1.4176    6.4324    9.1809 C.ar      1 RES1    0.0000
     20 C9        -0.6993    5.2452    9.0869 C.ar      1 RES1    0.0000
     21 H12        0.1335    5.2295    8.6296 H         1 RES1    0.0000
     22 C10       -1.1994    4.0830    9.6601 C.ar      1 RES1    0.0000
     23 H13       -0.7092    3.2729    9.5959 H         1 RES1    0.0000
     24 C11       -2.4179    4.1064   10.3288 C.ar      1 RES1    0.0000
     25 H14       -2.7600    3.3120   10.7220 H         1 RES1    0.0000
     26 C12       -3.1362    5.2921   10.4244 C.ar      1 RES1    0.0000
     27 H15       -3.9689    5.3085   10.8801 H         1 RES1    0.0000
     28 C13       -2.6359    6.4550    9.8496 C.ar      1 RES1    0.0000
     29 H16       -3.1269    7.2667    9.9138 H         1 RES1    0.0000
     30 N1        -1.4172    9.0670    6.6167 N.3       1 RES1    0.0000
     31 O1        -0.1636    9.6468    3.1754 O.3       1 RES1    0.0000
     32 O2        -2.9003    9.9962    3.5843 O.3       1 RES1    0.0000
     33 H17       -2.7291   10.0432    2.7627 H         1 RES1    0.0000
     34 O3        -1.5829   11.9266    6.3278 O.3       1 RES1    0.0000
     35 H18       -1.9925   12.4382    6.8535 H         1 RES1    0.0000
     36 O4        -4.5827   10.6975    7.7256 O.3       1 RES1    0.0000
     37 O5        -1.7361    7.7936    7.2501 O.3       1 RES1    0.0000
     38 H19       -5.1427   10.1794    7.4189 H         1 RES1    0.0000
     39 H20       -1.0792    8.4336    9.0462 Du        3 SUP3    0.0000
     40 H21       -0.0033    7.5334    8.2490 Du        3 SUP3    0.0000
     41 C14       -1.5514    6.3908    9.0822 Du        3 SUP3    0.0000
     42 C15       -2.4206    6.4952   10.1628 Du        3 SUP3    0.0000
     43 H22       -2.6561    7.3500   10.5027 Du        3 SUP3    0.0000
     44 C16       -2.9446    5.3476   10.7454 Du        3 SUP3    0.0000
     45 H23       -3.5387    5.4176   11.4847 Du        3 SUP3    0.0000
     46 C17       -2.6003    4.0955   10.2490 Du        3 SUP3    0.0000
     47 H24       -2.9583    3.3108   10.6483 Du        3 SUP3    0.0000
     48 C18       -1.7309    3.9911    9.1699 Du        3 SUP3    0.0000
     49 H25       -1.4954    3.1363    8.8300 Du        3 SUP3    0.0000
     50 C19       -1.2066    5.1394    8.5857 Du        3 SUP3    0.0000
     51 H26       -0.6126    5.0671    7.8480 Du        3 SUP3    0.0000
     52 C20        0.6329    4.8930    2.4960 C.3       2 RES2    0.0000
     53 H27        1.3821    4.4503    2.9694 H         2 RES2    0.0000
     54 H28       -0.0842    5.0791    3.1527 H         2 RES2    0.0000
     55 C21        1.1118    6.1946    1.8636 C.3       2 RES2    0.0000
     56 H29        1.8513    5.9899    1.2216 H         2 RES2    0.0000
     57 C22       -0.0206    6.8714    1.1085 C.3       2 RES2    0.0000
     58 H30        0.3400    7.6569    0.6061 H         2 RES2    0.0000
     59 C23       -0.6434    5.8862    0.1247 C.3       2 RES2    0.0000
     60 H31       -1.4561    6.3144   -0.2694 H         2 RES2    0.0000
     61 C24       -1.0794    4.5928    0.8142 C.3       2 RES2    0.0000
     62 H32       -1.7509    4.8029    1.5239 H         2 RES2    0.0000
     63 C25       -1.6870    3.6096   -0.1934 C.3       2 RES2    0.0000
     64 H33       -0.9790    3.2892   -0.8066 H         2 RES2    0.0000
     65 H34       -2.0498    2.8256    0.2913 H         2 RES2    0.0000
     66 C26        0.5964    1.7505    1.8498 C.3       2 RES2    0.0000
     67 H35        1.4576    1.9367    2.3023 H         2 RES2    0.0000
     68 H36        0.7627    1.6476    0.8786 H         2 RES2    0.0000
     69 C27       -0.0411    0.5045    2.4149 C.ar      2 RES2    0.0000
     70 C28       -1.1158   -0.0735    1.7491 C.ar      2 RES2    0.0000
     71 H37       -1.4269    0.3025    0.9334 H         2 RES2    0.0000
     72 C29       -1.7353   -1.2006    2.2764 C.ar      2 RES2    0.0000
     73 H38       -2.4697   -1.5966    1.8214 H         2 RES2    0.0000
     74 C30       -1.2802   -1.7497    3.4695 C.ar      2 RES2    0.0000
     75 H39       -1.7029   -2.5202    3.8293 H         2 RES2    0.0000
     76 C31       -0.2055   -1.1716    4.1351 C.ar      2 RES2    0.0000
     77 H40        0.1056   -1.5470    4.9506 H         2 RES2    0.0000
     78 C32        0.4139   -0.0446    3.6080 C.ar      2 RES2    0.0000
     79 H41        1.1486    0.3505    4.0626 H         2 RES2    0.0000
     80 N2         0.1238    4.0155    1.4301 N.3       2 RES2    0.0000
     81 O6         1.6089    7.0629    2.8785 O.3       2 RES2    0.0000
     82 H42        2.4186    7.2324    2.7298 H         2 RES2    0.0000
     83 O7        -1.0518    7.3101    1.9901 O.3       2 RES2    0.0000
     84 H43       -0.7782    7.9679    2.4354 H         2 RES2    0.0000
     85 O8         0.2700    5.6116   -0.9369 O.3       2 RES2    0.0000
     86 H44        0.8661    5.0869   -0.6641 H         2 RES2    0.0000
     87 O9        -2.7317    4.2191   -0.9557 O.3       2 RES2    0.0000
     88 H45       -2.3971    4.6542   -1.5912 H         2 RES2    0.0000
     89 O10       -0.3396    2.8071    2.0927 O.3       2 RES2    0.0000
@<TRIPOS>BOND
     1    1   31 1
     2    2    3 1
     3    4    2 1
     4    5    2 1
     5    6    5 1
     6    7    5 1
     7    8    7 1
     8    9    7 1
     9   10    9 1
    10   11    9 1
    11   12   11 1
    12   13   11 1
    13   14   13 1
    14   15   13 1
    15   16   17 1
    16   18   16 1
    17   19   16 1
    18   20   19 ar
    19   21   20 1
    20   22   20 ar
    21   23   22 1
    22   24   22 ar
    23   25   24 1
    24   26   24 ar
    25   27   26 1
    26   28   19 ar
    27   29   28 1
    28   30    2 1
    29   31    5 1
    30   32    7 1
    31   33   32 1
    32   34    9 1
    33   35   34 1
    34   36   13 1
    35   37   16 1
    36   38   36 1
    37   52   53 1
    38   54   52 1
    39   55   52 1
    40   56   55 1
    41   57   55 1
    42   58   57 1
    43   59   57 1
    44   60   59 1
    45   61   59 1
    46   62   61 1
    47   63   61 1
    48   64   63 1
    49   65   63 1
    50   66   67 1
    51   68   66 1
    52   69   66 1
    53   70   69 ar
    54   71   70 1
    55   72   70 ar
    56   73   72 1
    57   74   72 ar
    58   75   74 1
    59   76   74 ar
    60   77   76 1
    61   78   69 ar
    62   79   78 1
    63   80   52 1
    64   81   55 1
    65   82   81 1
    66   83   57 1
    67   84   83 1
    68   85   59 1
    69   86   85 1
    70   87   63 1
    71   88   87 1
    72   89   66 1
    73   11   30 1
    74   26   28 ar
    75   30   37 1
    76   61   80 1
    77   76   78 ar
    78   80   89 1
@<TRIPOS>SUBSTRUCTURE
     1 RES1 1
     2 RES2 52
     3 SUP3 39

@<TRIPOS>CRYSIN
   5.3906   15.9299   17.3564 112.4571  97.7331  99.3952   2 1

