# MOL2 file generated by ConQuest
# Please check atom types

@<TRIPOS>MOLECULE
FUBMIA
    68    70     2
SMALL
NO_CHARGES
****
Generated from CSD

@<TRIPOS>ATOM
      1 C1        -0.2541    9.3460    3.6727 C.3       1 RES1    0.0000
      2 H1         0.4910    9.6397    4.2549 H         1 RES1    0.0000
      3 H2        -1.1036    9.5048    4.1560 H         1 RES1    0.0000
      4 C2        -0.2425   10.1385    2.4077 C.2       1 RES1    0.0000
      5 H3        -0.0544   11.0683    2.4514 H         1 RES1    0.0000
      6 C3        -0.4843    9.5908    1.2311 C.2       1 RES1    0.0000
      7 H4        -0.4369   10.1345    0.4536 H         1 RES1    0.0000
      8 C4        -0.8302    8.1416    1.0809 C.3       1 RES1    0.0000
      9 H5        -1.6526    8.0887    0.5140 H         1 RES1    0.0000
     10 C5        -1.1642    7.5006    2.4320 C.3       1 RES1    0.0000
     11 H6        -2.0419    7.8611    2.7480 H         1 RES1    0.0000
     12 C6        -1.2677    5.9951    2.3373 C.3       1 RES1    0.0000
     13 H7        -0.4233    5.6167    1.9847 H         1 RES1    0.0000
     14 H8        -1.4360    5.6077    3.2323 H         1 RES1    0.0000
     15 C7         0.7334    6.5086    5.0509 C.3       1 RES1    0.0000
     16 H9         1.5405    7.0819    5.0665 H         1 RES1    0.0000
     17 H10        0.8862    5.7649    4.4163 H         1 RES1    0.0000
     18 C8         0.4437    5.9747    6.4223 C.ar      1 RES1    0.0000
     19 C9        -0.1412    4.7303    6.5919 C.ar      1 RES1    0.0000
     20 H11       -0.3323    4.1903    5.8343 H         1 RES1    0.0000
     21 C10       -0.4493    4.2693    7.8620 C.ar      1 RES1    0.0000
     22 H12       -0.8540    3.4170    7.9705 H         1 RES1    0.0000
     23 C11       -0.1724    5.0397    8.9651 C.ar      1 RES1    0.0000
     24 H13       -0.3911    4.7239    9.8332 H         1 RES1    0.0000
     25 C12        0.4241    6.2734    8.8087 C.ar      1 RES1    0.0000
     26 H14        0.6252    6.8048    9.5707 H         1 RES1    0.0000
     27 C13        0.7287    6.7357    7.5424 C.ar      1 RES1    0.0000
     28 H15        1.1390    7.5862    7.4400 H         1 RES1    0.0000
     29 N1        -0.1146    7.9163    3.3824 N.3       1 RES1    0.0000
     30 O1         0.2158    7.4461    0.3831 O.3       1 RES1    0.0000
     31 O2        -2.3505    5.6896    1.4569 O.3       1 RES1    0.0000
     32 O3        -0.4164    7.2747    4.6572 O.3       1 RES1    0.0000
     33 H16        0.8536    7.2599    0.8929 H         1 RES1    0.0000
     34 H17       -2.1569    5.0787    0.9259 H         1 RES1    0.0000
     35 C14        0.0005   -1.9916    7.6414 C.3       2 RES2    0.0000
     36 H18        0.7512   -2.4650    7.2039 H         2 RES2    0.0000
     37 H19       -0.8019   -2.0863    7.0688 H         2 RES2    0.0000
     38 C15       -0.2612   -2.5882    8.9832 C.2       2 RES2    0.0000
     39 H20       -0.7309   -3.4127    9.0325 H         2 RES2    0.0000
     40 C16        0.1345   -2.0142   10.1059 C.2       2 RES2    0.0000
     41 H21       -0.0802   -2.4264   10.9348 H         2 RES2    0.0000
     42 C17        0.9097   -0.7361   10.1116 C.3       2 RES2    0.0000
     43 H22        1.6850   -0.8520   10.7327 H         2 RES2    0.0000
     44 C18        1.4685   -0.4231    8.7229 C.3       2 RES2    0.0000
     45 H23        2.1709   -1.0972    8.4922 H         2 RES2    0.0000
     46 C19        2.0681    0.9647    8.6519 C.3       2 RES2    0.0000
     47 H24        2.4326    1.1296    7.7464 H         2 RES2    0.0000
     48 H25        1.3715    1.6434    8.8360 H         2 RES2    0.0000
     49 C20       -0.2608    0.8125    6.0516 C.3       2 RES2    0.0000
     50 H26       -0.4307    1.4850    6.7579 H         2 RES2    0.0000
     51 H27       -1.1057    0.3266    5.8782 H         2 RES2    0.0000
     52 C21        0.1990    1.4976    4.7971 C.ar      2 RES2    0.0000
     53 C22        1.4874    2.0093    4.6722 C.ar      2 RES2    0.0000
     54 H28        2.1154    1.8750    5.3719 H         2 RES2    0.0000
     55 C23        1.8642    2.7106    3.5422 C.ar      2 RES2    0.0000
     56 H29        2.7489    3.0475    3.4652 H         2 RES2    0.0000
     57 C24        0.9515    2.9216    2.5217 C.ar      2 RES2    0.0000
     58 H30        1.2069    3.4069    1.7463 H         2 RES2    0.0000
     59 C25       -0.3309    2.4234    2.6378 C.ar      2 RES2    0.0000
     60 H31       -0.9610    2.5720    1.9418 H         2 RES2    0.0000
     61 C26       -0.7031    1.7084    3.7643 C.ar      2 RES2    0.0000
     62 H32       -1.5840    1.3592    3.8298 H         2 RES2    0.0000
     63 N2         0.3327   -0.5735    7.8014 N.3       2 RES2    0.0000
     64 O4         0.1065    0.3455   10.6106 O.3       2 RES2    0.0000
     65 H33       -0.5532    0.4618   10.1034 H         2 RES2    0.0000
     66 O5         3.1101    1.0616    9.6216 O.3       2 RES2    0.0000
     67 H34        2.9384    1.6859   10.1561 H         2 RES2    0.0000
     68 O6         0.7454   -0.1055    6.4885 O.3       2 RES2    0.0000
@<TRIPOS>BOND
     1    1    2 1
     2    3    1 1
     3    4    1 1
     4    5    4 1
     5    6    4 2
     6    7    6 1
     7    8    6 1
     8    9    8 1
     9   10    8 1
    10   11   10 1
    11   12   10 1
    12   13   12 1
    13   14   12 1
    14   15   16 1
    15   17   15 1
    16   18   15 1
    17   19   18 ar
    18   20   19 1
    19   21   19 ar
    20   22   21 1
    21   23   21 ar
    22   24   23 1
    23   25   23 ar
    24   26   25 1
    25   27   18 ar
    26   28   27 1
    27   29    1 1
    28   30    8 1
    29   31   12 1
    30   32   15 1
    31   33   30 1
    32   34   31 1
    33   35   36 1
    34   37   35 1
    35   38   35 1
    36   39   38 1
    37   40   38 2
    38   41   40 1
    39   42   40 1
    40   43   42 1
    41   44   42 1
    42   45   44 1
    43   46   44 1
    44   47   46 1
    45   48   46 1
    46   49   50 1
    47   51   49 1
    48   52   49 1
    49   53   52 ar
    50   54   53 1
    51   55   53 ar
    52   56   55 1
    53   57   55 ar
    54   58   57 1
    55   59   57 ar
    56   60   59 1
    57   61   52 ar
    58   62   61 1
    59   63   35 1
    60   64   42 1
    61   65   64 1
    62   66   46 1
    63   67   66 1
    64   68   49 1
    65   10   29 1
    66   25   27 ar
    67   29   32 1
    68   44   63 1
    69   59   61 ar
    70   63   68 1
@<TRIPOS>SUBSTRUCTURE
     1 RES1 1
     2 RES2 35

@<TRIPOS>CRYSIN
   9.9549   11.3328   11.8818 106.4607 101.6175 100.1738   2 1

