# MOL2 file generated by ConQuest
# Please check atom types

@<TRIPOS>MOLECULE
FUBYIL
    31    32     1
SMALL
NO_CHARGES
****
Generated from CSD

@<TRIPOS>ATOM
      1 O1         0.1184    1.7948    5.1693 O.2       1 RES1    0.0000
      2 O2         2.3094    2.2587    5.4331 O.3       1 RES1    0.0000
      3 O3         0.0523    4.3535    3.5280 O.3       1 RES1    0.0000
      4 H1        -0.2369    4.9716    3.0418 H         1 RES1    0.0000
      5 O4         0.7013    5.7237    9.5832 O.2       1 RES1    0.0000
      6 O5         1.3443    7.6006    8.7047 O.2       1 RES1    0.0000
      7 N1         0.9787    6.4264    8.6175 N.pl3     1 RES1    0.0000
      8 C1         0.7951    4.0202    5.7503 C.ar      1 RES1    0.0000
      9 C2         0.2828    4.8746    4.7569 C.ar      1 RES1    0.0000
     10 C3         0.0956    6.2335    5.0199 C.ar      1 RES1    0.0000
     11 H2        -0.2123    6.8169    4.3358 H         1 RES1    0.0000
     12 C4         0.3628    6.7217    6.2860 C.ar      1 RES1    0.0000
     13 H3         0.2251    7.6414    6.4810 H         1 RES1    0.0000
     14 C5         0.8335    5.8613    7.2725 C.ar      1 RES1    0.0000
     15 C6         1.1118    4.5074    7.0321 C.ar      1 RES1    0.0000
     16 C7         1.0221    2.5750    5.4135 C.2       1 RES1    0.0000
     17 C8         2.6291    0.8530    5.2446 C.3       1 RES1    0.0000
     18 H4         2.2069    0.3241    5.9535 H         1 RES1    0.0000
     19 H5         3.6003    0.7314    5.2818 H         1 RES1    0.0000
     20 H6         2.2956    0.5561    4.3725 H         1 RES1    0.0000
     21 C9         1.8223    3.6513    8.0244 C.ar      1 RES1    0.0000
     22 C10        1.3182    2.4079    8.4131 C.ar      1 RES1    0.0000
     23 H7         0.4802    2.1119    8.0762 H         1 RES1    0.0000
     24 C11        2.0370    1.5988    9.2916 C.ar      1 RES1    0.0000
     25 H8         1.6838    0.7588    9.5596 H         1 RES1    0.0000
     26 C12        3.2732    2.0215    9.7779 C.ar      1 RES1    0.0000
     27 H9         3.7672    1.4655   10.3699 H         1 RES1    0.0000
     28 C13        3.7833    3.2613    9.3948 C.ar      1 RES1    0.0000
     29 H10        4.6255    3.5500    9.7265 H         1 RES1    0.0000
     30 C14        3.0609    4.0771    8.5273 C.ar      1 RES1    0.0000
     31 H11        3.4077    4.9250    8.2756 H         1 RES1    0.0000
@<TRIPOS>BOND
     1    1   16 2
     2    2   16 1
     3    3    4 1
     4    5    7 2
     5    6    7 2
     6    7   14 1
     7    8    9 ar
     8    9    3 1
     9   10    9 ar
    10   11   10 1
    11   12   10 ar
    12   13   12 1
    13   14   12 ar
    14   15    8 ar
    15   16    8 1
    16   17    2 1
    17   18   17 1
    18   19   17 1
    19   20   17 1
    20   21   15 1
    21   22   21 ar
    22   23   22 1
    23   24   22 ar
    24   25   24 1
    25   26   24 ar
    26   27   26 1
    27   28   26 ar
    28   29   28 1
    29   30   21 ar
    30   31   30 1
    31   14   15 ar
    32   28   30 ar
@<TRIPOS>SUBSTRUCTURE
     1 RES1 1

@<TRIPOS>CRYSIN
   9.6578    9.1306   14.2777  90.0000  97.9230  90.0000  14 1

