# MOL2 file generated by ConQuest
# Please check atom types

@<TRIPOS>MOLECULE
FUCTUS
    45    46     1
SMALL
NO_CHARGES
****
Generated from CSD

@<TRIPOS>ATOM
      1 C1         8.5383    8.0712    4.1177 C.ar      1 RES1    0.0000
      2 O1         9.0488    9.3233    3.9640 O.3       1 RES1    0.0000
      3 C2        10.4235    9.5135    4.3006 C.3       1 RES1    0.0000
      4 C3         9.2156    7.0014    4.6657 C.ar      1 RES1    0.0000
      5 C4         8.5640    5.7823    4.7575 C.ar      1 RES1    0.0000
      6 N1         9.2722    4.6688    5.3625 N.pl3     1 RES1    0.0000
      7 O2        10.4276    4.8330    5.7325 O.2       1 RES1    0.0000
      8 O3         8.6917    3.5925    5.4724 O.2       1 RES1    0.0000
      9 C5         7.2697    5.5938    4.2999 C.ar      1 RES1    0.0000
     10 C6         6.6013    6.6671    3.7574 C.ar      1 RES1    0.0000
     11 C7         7.2145    7.9118    3.6587 C.ar      1 RES1    0.0000
     12 N2         6.5864    9.0220    3.1121 N.3       1 RES1    0.0000
     13 N3         5.3814    8.8728    2.5912 N.2       1 RES1    0.0000
     14 C8         4.7489    9.8670    2.0342 C.2       1 RES1    0.0000
     15 C9         3.4241    9.4521    1.4882 C.2       1 RES1    0.0000
     16 C10        2.9445    8.0573    1.7275 C.3       1 RES1    0.0000
     17 O4         2.7203   10.2306    0.8582 O.2       1 RES1    0.0000
     18 C11        5.2945   11.2475    1.9333 C.2       1 RES1    0.0000
     19 O5         6.3947   11.5230    2.4417 O.2       1 RES1    0.0000
     20 N4         4.5209   12.1354    1.2963 N.am      1 RES1    0.0000
     21 C12        4.7599   13.5065    1.0612 C.ar      1 RES1    0.0000
     22 C13        3.7203   14.1792    0.3783 C.ar      1 RES1    0.0000
     23 O6         2.6499   13.4014    0.0758 O.3       1 RES1    0.0000
     24 C14        1.5355   14.0126   -0.5849 C.3       1 RES1    0.0000
     25 C15        3.8372   15.5235    0.0911 C.ar      1 RES1    0.0000
     26 C16        4.9657   16.2137    0.4833 C.ar      1 RES1    0.0000
     27 C17        5.9717   15.5797    1.1593 C.ar      1 RES1    0.0000
     28 C18        5.8817   14.2117    1.4409 C.ar      1 RES1    0.0000
     29 H1        10.6877    9.3457    5.2019 H         1 RES1    0.0000
     30 H2        10.5568   10.3758    4.0613 H         1 RES1    0.0000
     31 H3        10.8502    8.8733    3.7414 H         1 RES1    0.0000
     32 H4         6.8088    4.6526    4.3659 H         1 RES1    0.0000
     33 H5         5.6167    6.5455    3.4139 H         1 RES1    0.0000
     34 H6         7.0577    9.9590    3.1128 H         1 RES1    0.0000
     35 H7         2.9501    7.8784    2.8325 H         1 RES1    0.0000
     36 H8         3.5072    7.3074    1.3839 H         1 RES1    0.0000
     37 H9         1.9468    8.0410    1.6364 H         1 RES1    0.0000
     38 H10        3.6136   11.7619    0.9208 H         1 RES1    0.0000
     39 H11        1.7967   14.2984   -1.4889 H         1 RES1    0.0000
     40 H12        0.8841   13.3558   -0.6356 H         1 RES1    0.0000
     41 H13        1.1291   14.7007   -0.0007 H         1 RES1    0.0000
     42 H14        3.0686   16.0206   -0.4249 H         1 RES1    0.0000
     43 H15        5.0533   17.2360    0.2601 H         1 RES1    0.0000
     44 H16        6.8159   16.1224    1.4688 H         1 RES1    0.0000
     45 H17        6.6657   13.7248    1.9396 H         1 RES1    0.0000
@<TRIPOS>BOND
     1    1    2 1
     2    2    3 1
     3    3   29 1
     4    4    1 ar
     5    5    4 ar
     6    6    5 1
     7    7    6 2
     8    8    6 2
     9    9    5 ar
    10   10    9 ar
    11   11    1 ar
    12   12   11 1
    13   13   12 1
    14   14   13 2
    15   15   14 1
    16   16   15 1
    17   17   15 2
    18   18   14 1
    19   19   18 2
    20   20   18 1
    21   21   20 1
    22   22   21 ar
    23   23   22 1
    24   24   23 1
    25   25   22 ar
    26   26   25 ar
    27   27   26 ar
    28   28   21 ar
    29   30    3 1
    30   31    3 1
    31   32    9 1
    32   33   10 1
    33   34   12 1
    34   35   16 1
    35   36   16 1
    36   37   16 1
    37   38   20 1
    38   39   24 1
    39   40   24 1
    40   41   24 1
    41   42   25 1
    42   43   26 1
    43   44   27 1
    44   45   28 1
    45   10   11 ar
    46   27   28 ar
@<TRIPOS>SUBSTRUCTURE
     1 RES1 1

@<TRIPOS>CRYSIN
  10.7290   11.9760    7.6280 103.4300 110.2800  88.0600   2 1

