# MOL2 file generated by ConQuest
# Please check atom types

@<TRIPOS>MOLECULE
FUDGOA
    16    16     1
SMALL
NO_CHARGES
****
Generated from CSD

@<TRIPOS>ATOM
      1 C1         1.3515    1.1196    5.1395 C.ar      1 RES1    0.0000
      2 C2         1.3714   -0.1971    4.6968 C.ar      1 RES1    0.0000
      3 C3         0.5356   -1.1347    5.2316 C.ar      1 RES1    0.0000
      4 C4        -0.3316   -0.7443    6.2210 C.ar      1 RES1    0.0000
      5 C5        -0.3924    0.5372    6.6987 C.ar      1 RES1    0.0000
      6 C6         0.4631    1.4799    6.1474 C.ar      1 RES1    0.0000
      7 C7         2.2449    2.1175    4.4879 C.2       1 RES1    0.0000
      8 O1         2.9559    1.8125    3.5629 O.2       1 RES1    0.0000
      9 C8         2.2334    3.5397    5.0208 C.3       1 RES1    0.0000
     10 O2         3.0957    4.3731    4.2587 O.3       1 RES1    0.0000
     11 C9         4.4102    4.2815    4.5385 C.2       1 RES1    0.0000
     12 O3         4.8291    3.6213    5.4387 O.2       1 RES1    0.0000
     13 C10        5.2205    5.0798    3.5877 C.3       1 RES1    0.0000
     14 N1        -1.2808   -1.7397    6.7641 N.pl3     1 RES1    0.0000
     15 O4        -1.9841   -1.4171    7.7075 O.2       1 RES1    0.0000
     16 O5        -1.3241   -2.8330    6.2265 O.2       1 RES1    0.0000
@<TRIPOS>BOND
     1    1    2 ar
     2    2    3 ar
     3    3    4 ar
     4    4    5 ar
     5    5    6 ar
     6    6    1 ar
     7    7    1 1
     8    8    7 2
     9    9    7 1
    10   10    9 1
    11   11   10 1
    12   12   11 2
    13   13   11 1
    14   14    4 1
    15   15   14 2
    16   16   14 2
@<TRIPOS>SUBSTRUCTURE
     1 RES1 1

@<TRIPOS>CRYSIN
   9.0040   12.5520    9.4160  90.0000 102.1800  90.0000  14 1

