# MOL2 file generated by ConQuest
# Please check atom types

@<TRIPOS>MOLECULE
FUDVUV03
    16    17     1
SMALL
NO_CHARGES
****
Generated from CSD

@<TRIPOS>ATOM
      1 C1         1.8038    0.6729    3.0118 C.ar      1 RES1    0.0000
      2 C2         1.8553    2.0602    3.1242 C.ar      1 RES1    0.0000
      3 C3         2.7471    2.7746    2.3587 C.ar      1 RES1    0.0000
      4 C4         3.6030    2.1224    1.4377 C.ar      1 RES1    0.0000
      5 C5         3.5424    0.7084    1.3534 C.ar      1 RES1    0.0000
      6 C6         2.6536   -0.0015    2.1299 C.ar      1 RES1    0.0000
      7 C7         4.3738    4.2817    0.4495 C.3       1 RES1    0.0000
      8 C8         4.9308    4.4547   -0.9662 C.3       1 RES1    0.0000
      9 C9         5.9673    3.3351   -1.0814 C.3       1 RES1    0.0000
     10 C10        5.3026    2.1712   -0.3550 C.3       1 RES1    0.0000
     11 C11        5.2000    5.0390    1.4843 C.3       1 RES1    0.0000
     12 N1         0.8744   -0.0547    3.8184 N.pl3     1 RES1    0.0000
     13 N2         4.4477    2.8249    0.6462 N.3       1 RES1    0.0000
     14 O1         0.7435   -1.2705    3.6423 O.2       1 RES1    0.0000
     15 O2         0.2160    0.5620    4.6675 O.2       1 RES1    0.0000
     16 O3         5.1530    6.4351    1.2445 O.3       1 RES1    0.0000
@<TRIPOS>BOND
     1    1    2 ar
     2    2    3 ar
     3    3    4 ar
     4    4    5 ar
     5    5    6 ar
     6    6    1 ar
     7    7    8 1
     8    8    9 1
     9    9   10 1
    10   10   13 1
    11   11    7 1
    12   12    1 1
    13   13    4 1
    14   14   12 2
    15   15   12 2
    16   16   11 1
    17    7   13 1
@<TRIPOS>SUBSTRUCTURE
     1 RES1 1

@<TRIPOS>CRYSIN
   5.1520   14.7900    7.1340  90.0000 106.1400  90.0000   4 1

