# MOL2 file generated by ConQuest
# Please check atom types

@<TRIPOS>MOLECULE
FUDVUV11
    16    17     1
SMALL
NO_CHARGES
****
Generated from CSD

@<TRIPOS>ATOM
      1 C1         1.8039    0.6729    3.0098 C.ar      1 RES1    0.0000
      2 C2         1.8539    2.0602    3.1290 C.ar      1 RES1    0.0000
      3 C3         2.7451    2.7776    2.3601 C.ar      1 RES1    0.0000
      4 C4         3.6025    2.1238    1.4377 C.ar      1 RES1    0.0000
      5 C5         3.5427    0.7084    1.3541 C.ar      1 RES1    0.0000
      6 C6         2.6508   -0.0044    2.1305 C.ar      1 RES1    0.0000
      7 C7         4.3750    4.2773    0.4489 C.3       1 RES1    0.0000
      8 C8         4.9335    4.4547   -0.9649 C.3       1 RES1    0.0000
      9 C9         5.9616    3.3322   -1.0690 C.3       1 RES1    0.0000
     10 C10        5.3012    2.1697   -0.3536 C.3       1 RES1    0.0000
     11 C11        5.2004    5.0419    1.4829 C.3       1 RES1    0.0000
     12 N1         0.8739   -0.0592    3.8184 N.pl3     1 RES1    0.0000
     13 N2         4.4496    2.8249    0.6469 N.3       1 RES1    0.0000
     14 O1         0.7406   -1.2675    3.6416 O.2       1 RES1    0.0000
     15 O2         0.2189    0.5591    4.6681 O.2       1 RES1    0.0000
     16 O3         5.1556    6.4322    1.2479 O.3       1 RES1    0.0000
@<TRIPOS>BOND
     1    1    2 ar
     2    2    3 ar
     3    3    4 ar
     4    4    5 ar
     5    5    6 ar
     6    6    1 ar
     7    7    8 1
     8    8    9 1
     9    9   10 1
    10   10   13 1
    11   11    7 1
    12   12    1 1
    13   13    4 1
    14   14   12 2
    15   15   12 2
    16   16   11 1
    17    7   13 1
@<TRIPOS>SUBSTRUCTURE
     1 RES1 1

@<TRIPOS>CRYSIN
   5.1520   14.7900    7.1340  90.0000 106.1400  90.0000   4 1

