# MOL2 file generated by ConQuest
# Please check atom types

@<TRIPOS>MOLECULE
FUDWAC
    48    51     1
SMALL
USER_CHARGES
****
Generated from CSD

@<TRIPOS>ATOM
      1 O1         4.7866    1.1256   16.9774 O.2       1 RES1   -1.0000
      2 N1         4.4711    2.0925   20.9588 N.ar      1 RES1    0.0000
      3 N2         6.5907    1.9012   19.9887 N.ar      1 RES1    1.0000
      4 N3         3.1470    1.5582   19.0109 N.3       1 RES1    0.0000
      5 N4         5.8303    1.3465   17.7606 N.pl3     1 RES1    0.0000
      6 C1         5.8542    2.1602   21.0764 C.ar      1 RES1    0.0000
      7 C2         4.2994    1.7728   19.6798 C.ar      1 RES1    0.0000
      8 C3         5.6288    1.6549   19.0458 C.ar      1 RES1    0.0000
      9 C4         6.4480    2.4855   22.3722 C.ar      1 RES1    0.0000
     10 C5         5.6555    3.0417   23.3839 C.ar      1 RES1    0.0000
     11 H1         4.7315    3.1948   23.2246 H         1 RES1    0.0000
     12 C6         6.1999    3.3698   24.6127 C.ar      1 RES1    0.0000
     13 H2         5.6563    3.7551   25.2897 H         1 RES1    0.0000
     14 C7         7.5500    3.1299   24.8481 C.ar      1 RES1    0.0000
     15 H3         7.9278    3.3486   25.6912 H         1 RES1    0.0000
     16 C8         8.3440    2.5738   23.8594 C.ar      1 RES1    0.0000
     17 H4         9.2629    2.4058   24.0328 H         1 RES1    0.0000
     18 C9         7.8119    2.2604   22.6216 C.ar      1 RES1    0.0000
     19 H5         8.3667    1.8942   21.9429 H         1 RES1    0.0000
     20 C10        1.8135    1.6147   19.5061 C.ar      1 RES1    0.0000
     21 C11        0.7934    1.3225   18.6025 C.ar      1 RES1    0.0000
     22 H6         1.0064    1.1094   17.7014 H         1 RES1    0.0000
     23 C12       -0.5250    1.3437   19.0141 C.ar      1 RES1    0.0000
     24 H7        -1.2102    1.1369   18.3890 H         1 RES1    0.0000
     25 C13       -0.8716    1.6606   20.3260 C.ar      1 RES1    0.0000
     26 C14        0.1588    1.9675   21.2085 C.ar      1 RES1    0.0000
     27 H8        -0.0599    2.1990   22.1036 H         1 RES1    0.0000
     28 C15        1.4959    1.9492   20.8304 C.ar      1 RES1    0.0000
     29 H9         2.1797    2.1588   21.4553 H         1 RES1    0.0000
     30 C16       -2.3188    1.6627   20.7798 C.3       1 RES1    0.0000
     31 H10       -2.8986    1.4234   20.0280 H         1 RES1    0.0000
     32 H11       -2.5580    2.5561   21.1052 H         1 RES1    0.0000
     33 H12       -2.4355    1.0113   21.5039 H         1 RES1    0.0000
     34 C17        7.1227    1.2138   17.1216 C.ar      1 RES1    0.0000
     35 C18        8.2553    1.8850   17.5703 C.ar      1 RES1    0.0000
     36 H13        8.2211    2.4157   18.3577 H         1 RES1    0.0000
     37 C19        9.4397    1.7692   16.8520 C.ar      1 RES1    0.0000
     38 H14       10.2097    2.2421   17.1456 H         1 RES1    0.0000
     39 C20        9.5211    0.9739   15.7086 C.ar      1 RES1    0.0000
     40 C21        8.3771    0.3084   15.2942 C.ar      1 RES1    0.0000
     41 H15        8.4169   -0.2428   14.5215 H         1 RES1    0.0000
     42 C22        7.1751    0.4284   15.9813 C.ar      1 RES1    0.0000
     43 H16        6.3982   -0.0240   15.6731 H         1 RES1    0.0000
     44 C23       10.8092    0.8673   14.9040 C.3       1 RES1    0.0000
     45 H17       11.5107    1.3959   15.3384 H         1 RES1    0.0000
     46 H18       10.6571    1.2075   13.9974 H         1 RES1    0.0000
     47 H19       11.0889   -0.0706   14.8563 H         1 RES1    0.0000
     48 H20        3.3184    1.3486   17.9133 H         1 RES1    0.0000
@<TRIPOS>BOND
     1    1    5 1
     2    2    6 ar
     3    3    6 ar
     4    4    7 1
     5    5    8 1
     6    6    9 1
     7    7    2 ar
     8    8    3 ar
     9    9   10 ar
    10   10   11 1
    11   12   10 ar
    12   13   12 1
    13   14   12 ar
    14   15   14 1
    15   16   14 ar
    16   17   16 1
    17   18    9 ar
    18   19   18 1
    19   20    4 1
    20   21   20 ar
    21   22   21 1
    22   23   21 ar
    23   24   23 1
    24   25   23 ar
    25   26   25 ar
    26   27   26 1
    27   28   20 ar
    28   29   28 1
    29   30   25 1
    30   31   30 1
    31   32   30 1
    32   33   30 1
    33   34    5 1
    34   35   34 ar
    35   36   35 1
    36   37   35 ar
    37   38   37 1
    38   39   37 ar
    39   40   39 ar
    40   41   40 1
    41   42   34 ar
    42   43   42 1
    43   44   39 1
    44   45   44 1
    45   46   44 1
    46   47   44 1
    47   48    4 1
    48    7    8 ar
    49   16   18 ar
    50   26   28 ar
    51   40   42 ar
@<TRIPOS>SUBSTRUCTURE
     1 RES1 1

@<TRIPOS>CRYSIN
  13.5101    7.0572   20.1236  90.0000  99.6720  90.0000 231 1

