# MOL2 file generated by ConQuest
# Please check atom types

@<TRIPOS>MOLECULE
FUFFAO
    24    25     1
SMALL
NO_CHARGES
****
Generated from CSD

@<TRIPOS>ATOM
      1 O1         3.5501    3.0285    6.0506 O.3       1 RES1    0.0000
      2 C1         3.0298    3.8801    5.1514 C.2       1 RES1    0.0000
      3 N1         3.9262    1.7977    5.4294 N.2       1 RES1    0.0000
      4 C2         4.8438   -0.3208    5.8332 C.ar      1 RES1    0.0000
      5 C3         5.3765   -1.2219    6.7523 C.ar      1 RES1    0.0000
      6 C4         4.7496   -0.7272    4.4883 C.ar      1 RES1    0.0000
      7 O2         2.9459    3.7016    3.9830 O.2       1 RES1    0.0000
      8 O3         4.2142    0.0541    3.5218 O.3       1 RES1    0.0000
      9 C5         5.1925   -1.9770    4.1220 C.ar      1 RES1    0.0000
     10 C6         4.4139    0.9921    6.2867 C.2       1 RES1    0.0000
     11 C7         5.7175   -2.8393    5.0499 C.ar      1 RES1    0.0000
     12 C8         5.8010   -2.4672    6.3783 C.ar      1 RES1    0.0000
     13 O1B        2.0410    5.9823    4.9826 O.3       1 RES1    0.0000
     14 C1B        2.5614    5.1307    5.8818 C.2       1 RES1    0.0000
     15 N1B        1.6649    7.2131    5.6037 N.2       1 RES1    0.0000
     16 C2B        0.7474    9.3316    5.1999 C.ar      1 RES1    0.0000
     17 C3B        0.2147   10.2327    4.2809 C.ar      1 RES1    0.0000
     18 C4B        0.8415    9.7380    6.5449 C.ar      1 RES1    0.0000
     19 O2B        2.6452    5.3092    7.0502 O.2       1 RES1    0.0000
     20 O3B        1.3770    8.9567    7.5114 O.3       1 RES1    0.0000
     21 C5B        0.3987   10.9878    6.9112 C.ar      1 RES1    0.0000
     22 C6B        1.1773    8.0187    4.7465 C.2       1 RES1    0.0000
     23 C7B       -0.1263   11.8501    5.9833 C.ar      1 RES1    0.0000
     24 C8B       -0.2098   11.4780    4.6549 C.ar      1 RES1    0.0000
@<TRIPOS>BOND
     1    1    2 1
     2    2    7 2
     3    3    1 1
     4    4    5 ar
     5    5   12 ar
     6    6    4 ar
     7    8    6 1
     8    9    6 ar
     9   10    3 2
    10   11    9 ar
    11   12   11 ar
    12   13   14 1
    13   14    2 1
    14   15   13 1
    15   16   17 ar
    16   17   24 ar
    17   18   16 ar
    18   19   14 2
    19   20   18 1
    20   21   18 ar
    21   22   15 2
    22   23   21 ar
    23   24   23 ar
    24    4   10 1
    25   16   22 1
@<TRIPOS>SUBSTRUCTURE
     1 RES1 1

@<TRIPOS>CRYSIN
   7.6088    9.0108   11.2161  90.0000 100.3633  90.0000 231 1

