# MOL2 file generated by ConQuest
# Please check atom types

@<TRIPOS>MOLECULE
FUFSIK
    20    20     1
SMALL
NO_CHARGES
****
Generated from CSD

@<TRIPOS>ATOM
      1 N1         4.6644    4.0533    4.8216 N.2       1 RES1    0.0000
      2 N2         4.3781    2.3364    3.4569 N.pl3     1 RES1    0.0000
      3 N3         4.6252    1.7741    4.6747 N.2       1 RES1    0.0000
      4 N4         5.1017    2.7181    6.8274 N.pl3     1 RES1    0.0000
      5 O1         4.2105    4.4285    2.5077 O.3       1 RES1    0.0000
      6 O2         5.3553    3.7442    7.4417 O.2       1 RES1    0.0000
      7 O3         5.1094    1.5860    7.2995 O.2       1 RES1    0.0000
      8 C1         4.7778    2.8451    5.4149 C.2       1 RES1    0.0000
      9 C2         4.4106    3.6771    3.5752 C.2       1 RES1    0.0000
     10 C3         4.2476    5.8750    2.7464 C.3       1 RES1    0.0000
     11 H1         5.1282    6.0846    3.0964 H         1 RES1    0.0000
     12 H2         3.5700    6.0672    3.4237 H         1 RES1    0.0000
     13 C4         3.9615    6.5465    1.4448 C.3       1 RES1    0.0000
     14 H3         4.6254    6.3186    0.7898 H         1 RES1    0.0000
     15 H4         3.9504    7.5043    1.5796 H         1 RES1    0.0000
     16 H5         3.0767    6.2591    1.1236 H         1 RES1    0.0000
     17 C5         4.1692    1.5417    2.2491 C.3       1 RES1    0.0000
     18 H6         4.8555    1.7601    1.6203 H         1 RES1    0.0000
     19 H7         3.2925    1.7148    1.9297 H         1 RES1    0.0000
     20 H8         4.2596    0.6206    2.5077 H         1 RES1    0.0000
@<TRIPOS>BOND
     1    1    8 1
     2    2    3 1
     3    3    8 2
     4    4    6 2
     5    5    9 1
     6    7    4 2
     7    8    4 1
     8    9    1 2
     9   10    5 1
    10   11   10 1
    11   12   10 1
    12   13   10 1
    13   14   13 1
    14   15   13 1
    15   16   13 1
    16   17    2 1
    17   18   17 1
    18   19   17 1
    19   20   17 1
    20    2    9 1
@<TRIPOS>SUBSTRUCTURE
     1 RES1 1

@<TRIPOS>CRYSIN
   6.6336    7.6993    8.5129  83.6360  73.0350  65.7840   2 1

