# MOL2 file generated by ConQuest
# Please check atom types

@<TRIPOS>MOLECULE
FUFWUZ
    19    19     1
SMALL
NO_CHARGES
****
Generated from CSD

@<TRIPOS>ATOM
      1 C1         4.4208    8.7037    2.8632 C.ar      1 RES1    0.0000
      2 H1         4.5400    7.7881    2.7504 H         1 RES1    0.0000
      3 C2         3.7442    9.4313    1.8821 C.ar      1 RES1    0.0000
      4 C3         3.1853    8.8349    0.6938 C.2       1 RES1    0.0000
      5 H2         2.7279    9.4122    0.1265 H         1 RES1    0.0000
      6 C4         4.7448   10.6757    4.1720 C.ar      1 RES1    0.0000
      7 C5         4.9132    9.3134    3.9891 C.ar      1 RES1    0.0000
      8 H3         5.3610    8.8105    4.6309 H         1 RES1    0.0000
      9 C6         4.0921   11.4223    3.2056 C.ar      1 RES1    0.0000
     10 H4         3.9884   12.3399    3.3163 H         1 RES1    0.0000
     11 C7         3.2408    7.5735    0.3109 C.2       1 RES1    0.0000
     12 H5         3.6659    6.9455    0.8488 H         1 RES1    0.0000
     13 C8         3.5991   10.8058    2.0875 C.ar      1 RES1    0.0000
     14 H6         3.1560   11.3153    1.4481 H         1 RES1    0.0000
     15 O1         5.2087   11.3413    5.2625 O.3       1 RES1    0.0000
     16 O2         1.9886    7.9433   -1.5921 O.2       1 RES1    0.0000
     17 O3         2.8413    6.0044   -1.2916 O.2       1 RES1    0.0000
     18 N1         2.6525    7.1661   -0.9249 N.pl3     1 RES1    0.0000
     19 H7         5.5471   10.8019    5.8066 H         1 RES1    0.0000
@<TRIPOS>BOND
     1    1    2 1
     2    3    1 ar
     3    4    3 1
     4    5    4 1
     5    6    7 ar
     6    7    1 ar
     7    8    7 1
     8    9    6 ar
     9   10    9 1
    10   11    4 2
    11   12   11 1
    12   13    3 ar
    13   14   13 1
    14   15    6 1
    15   16   18 2
    16   17   18 2
    17   18   11 1
    18   19   15 1
    19    9   13 ar
@<TRIPOS>SUBSTRUCTURE
     1 RES1 1

@<TRIPOS>CRYSIN
   3.9680   10.9000   17.5790  90.0000  91.2930  90.0000  14 1

