# MOL2 file generated by ConQuest
# Please check atom types

@<TRIPOS>MOLECULE
FUFXAG
    30    31     1
SMALL
NO_CHARGES
****
Generated from CSD

@<TRIPOS>ATOM
      1 O1         5.1143    7.1603    3.0701 O.3       1 RES1    0.0000
      2 H1         5.5818    7.0531    2.4049 H         1 RES1    0.0000
      3 O2         6.3286    5.4769    1.2013 O.2       1 RES1    0.0000
      4 C1         2.7832    7.2941    4.4750 C.ar      1 RES1    0.0000
      5 H2         2.9687    7.9459    3.8365 H         1 RES1    0.0000
      6 O3        -0.0235    8.8044    6.0620 O.2       1 RES1    0.0000
      7 N1         0.9457    8.6993    5.3139 N.pl3     1 RES1    0.0000
      8 O4         1.2575    9.5529    4.5022 O.2       1 RES1    0.0000
      9 C2         4.2358    5.0263    2.3636 C.3       1 RES1    0.0000
     10 H3         3.5737    5.5302    1.8449 H         1 RES1    0.0000
     11 C3         3.2555    5.1917    5.5322 C.ar      1 RES1    0.0000
     12 H4         3.7795    4.4264    5.6035 H         1 RES1    0.0000
     13 C4         2.2037    5.3802    6.4154 C.ar      1 RES1    0.0000
     14 H5         2.0155    4.7319    7.0560 H         1 RES1    0.0000
     15 C5         4.6740    5.8932    3.5502 C.3       1 RES1    0.0000
     16 H6         5.4149    5.4510    4.0162 H         1 RES1    0.0000
     17 C6         1.7389    7.4721    5.3801 C.ar      1 RES1    0.0000
     18 C7         3.8951    2.8572    1.3684 C.3       1 RES1    0.0000
     19 H7         3.8637    1.9020    1.5304 H         1 RES1    0.0000
     20 H8         3.2357    3.0850    0.6948 H         1 RES1    0.0000
     21 C8         5.4149    4.7088    1.4465 C.2       1 RES1    0.0000
     22 C9         5.2870    3.2918    0.9380 C.3       1 RES1    0.0000
     23 H9         5.9640    2.7206    1.3327 H         1 RES1    0.0000
     24 H10        5.3744    3.2616   -0.0270 H         1 RES1    0.0000
     25 C10        3.6542    3.6471    2.6643 C.3       1 RES1    0.0000
     26 H11        2.7075    3.7052    2.8661 H         1 RES1    0.0000
     27 H12        4.1110    3.2329    3.4142 H         1 RES1    0.0000
     28 C11        1.4313    6.5295    6.3504 C.ar      1 RES1    0.0000
     29 H13        0.7255    6.6648    6.9422 H         1 RES1    0.0000
     30 C12        3.5438    6.1336    4.5337 C.ar      1 RES1    0.0000
@<TRIPOS>BOND
     1    1    2 1
     2    3   21 2
     3    4    5 1
     4    6    7 2
     5    7    8 2
     6    9   10 1
     7   11   12 1
     8   13   11 ar
     9   14   13 1
    10   15    1 1
    11   16   15 1
    12   17    4 ar
    13   18   19 1
    14   20   18 1
    15   21    9 1
    16   22   18 1
    17   23   22 1
    18   24   22 1
    19   25    9 1
    20   26   25 1
    21   27   25 1
    22   28   13 ar
    23   29   28 1
    24   30    4 ar
    25    7   17 1
    26    9   15 1
    27   11   30 ar
    28   15   30 1
    29   17   28 ar
    30   18   25 1
    31   21   22 1
@<TRIPOS>SUBSTRUCTURE
     1 RES1 1

@<TRIPOS>CRYSIN
   5.3307    7.0082   29.9491  90.0000  90.0000  90.0000  19 1

