# MOL2 file generated by ConQuest
# Please check atom types

@<TRIPOS>MOLECULE
FUGLIE
    21    21     1
SMALL
NO_CHARGES
****
Generated from CSD

@<TRIPOS>ATOM
      1 C1         3.0831    1.0013    5.8799 C.2       1 RES1    0.0000
      2 C2         4.4253    2.2981    5.0935 C.2       1 RES1    0.0000
      3 C3         6.2085    2.0995    6.9836 C.3       1 RES1    0.0000
      4 H1         6.7800    2.7016    6.4255 H         1 RES1    0.0000
      5 C4         6.9187    0.7826    7.1472 C.3       1 RES1    0.0000
      6 H2         7.7967    0.9338    7.5549 H         1 RES1    0.0000
      7 H3         7.0329    0.3618    6.2698 H         1 RES1    0.0000
      8 H4         6.3872    0.1942    7.7244 H         1 RES1    0.0000
      9 C5         5.9086    2.7981    8.2978 C.3       1 RES1    0.0000
     10 H5         6.7488    3.0019    8.7587 H         1 RES1    0.0000
     11 H6         5.3592    2.2135    8.8607 H         1 RES1    0.0000
     12 H7         5.4225    3.6311    8.1205 H         1 RES1    0.0000
     13 N1         4.9223    1.8658    6.2656 N.pl3     1 RES1    0.0000
     14 N2         4.0326    1.0004    6.7935 N.2       1 RES1    0.0000
     15 N3         3.2583    1.7737    4.8062 N.2       1 RES1    0.0000
     16 N4         1.9086    0.1604    6.0147 N.pl3     1 RES1    0.0000
     17 N5         5.0867    3.2268    4.1882 N.pl3     1 RES1    0.0000
     18 O1         1.0476    0.2685    5.1589 O.2       1 RES1    0.0000
     19 O2         1.8699   -0.6206    6.9487 O.2       1 RES1    0.0000
     20 O3         4.6667    3.2712    3.0493 O.2       1 RES1    0.0000
     21 O4         6.0107    3.8934    4.6275 O.2       1 RES1    0.0000
@<TRIPOS>BOND
     1    1   14 2
     2    2   13 1
     3    3    4 1
     4    5    3 1
     5    6    5 1
     6    7    5 1
     7    8    5 1
     8    9    3 1
     9   10    9 1
    10   11    9 1
    11   12    9 1
    12   13    3 1
    13   14   13 1
    14   15    1 1
    15   16    1 1
    16   17    2 1
    17   18   16 2
    18   19   16 2
    19   20   17 2
    20   21   17 2
    21    2   15 2
@<TRIPOS>SUBSTRUCTURE
     1 RES1 1

@<TRIPOS>CRYSIN
   9.4402   10.6110   17.2960  90.0000  90.0000  90.0000  61 1

