# MOL2 file generated by ConQuest
# Please check atom types

@<TRIPOS>MOLECULE
FUGREE
    43    46     1
SMALL
NO_CHARGES
****
Generated from CSD

@<TRIPOS>ATOM
      1 O1         0.5512    0.9701    4.5949 O.3       1 RES1    0.0000
      2 O2        -3.3326    6.3340    6.1157 O.2       1 RES1    0.0000
      3 O3        -2.0326    7.6764    5.0893 O.2       1 RES1    0.0000
      4 O4         2.7689    5.5848   -2.1002 O.2       1 RES1    0.0000
      5 O5         4.3173    4.0864   -2.0827 O.2       1 RES1    0.0000
      6 N1         0.7062    0.2095    2.4048 N.3       1 RES1    0.0000
      7 N2        -2.3481    6.5709    5.4339 N.pl3     1 RES1    0.0000
      8 N3         3.2541    4.5328   -1.7156 N.pl3     1 RES1    0.0000
      9 C1         0.8138    2.1064    3.7983 C.3       1 RES1    0.0000
     10 C2         0.4414    1.6555    2.3823 C.3       1 RES1    0.0000
     11 C3         0.9276   -0.1594    3.8082 C.3       1 RES1    0.0000
     12 C4        -0.4119   -0.6171    1.9278 C.3       1 RES1    0.0000
     13 C5        -1.0383   -1.1762    3.0891 C.3       1 RES1    0.0000
     14 C6         0.0343   -1.3310    4.1029 C.3       1 RES1    0.0000
     15 C7         0.0376    3.2951    4.2877 C.ar      1 RES1    0.0000
     16 C8         0.4653    4.5851    4.0605 C.ar      1 RES1    0.0000
     17 C9        -0.3021    5.6566    4.4326 C.ar      1 RES1    0.0000
     18 C10       -1.5148    5.4300    5.0344 C.ar      1 RES1    0.0000
     19 C11       -1.9537    4.1593    5.3041 C.ar      1 RES1    0.0000
     20 C12       -1.1856    3.0890    4.9170 C.ar      1 RES1    0.0000
     21 C13        1.1656    2.3888    1.2761 C.ar      1 RES1    0.0000
     22 C14        0.6324    3.5331    0.7242 C.ar      1 RES1    0.0000
     23 C15        1.2965    4.2345   -0.2597 C.ar      1 RES1    0.0000
     24 C16        2.5268    3.7688   -0.6693 C.ar      1 RES1    0.0000
     25 C17        3.0815    2.6438   -0.1573 C.ar      1 RES1    0.0000
     26 C18        2.3866    1.9493    0.8266 C.ar      1 RES1    0.0000
     27 H1         1.7390    2.3569    3.7958 H         1 RES1    0.0000
     28 H2        -0.4706    1.8331    2.2575 H         1 RES1    0.0000
     29 H3         1.9001   -0.2049    3.9706 H         1 RES1    0.0000
     30 H4         1.3666    4.7138    3.6709 H         1 RES1    0.0000
     31 H5        -0.0362    6.5014    4.3202 H         1 RES1    0.0000
     32 H6        -2.7281    3.9965    5.7186 H         1 RES1    0.0000
     33 H7        -1.4341    2.1975    5.1018 H         1 RES1    0.0000
     34 H8        -0.2370    3.8257    0.9739 H         1 RES1    0.0000
     35 H9         0.9631    4.9871   -0.6493 H         1 RES1    0.0000
     36 H10        3.9129    2.2886   -0.4745 H         1 RES1    0.0000
     37 H11        2.7551    1.1841    1.1237 H         1 RES1    0.0000
     38 H12        0.0290   -1.6282    1.5732 H         1 RES1    0.0000
     39 H13       -0.8231   -0.1025    1.1987 H         1 RES1    0.0000
     40 H14       -1.3927   -0.1708    3.0466 H         1 RES1    0.0000
     41 H15       -1.6389   -1.9242    2.9467 H         1 RES1    0.0000
     42 H16        0.5454   -2.1406    3.9206 H         1 RES1    0.0000
     43 H17       -0.2225   -1.3094    4.9944 H         1 RES1    0.0000
@<TRIPOS>BOND
     1    1    9 1
     2    2    7 2
     3    3    7 2
     4    4    8 2
     5    5    8 2
     6    6   10 1
     7    7   18 1
     8    8   24 1
     9    9   10 1
    10   10   21 1
    11   11    1 1
    12   12    6 1
    13   13   12 1
    14   14   11 1
    15   15    9 1
    16   16   15 ar
    17   17   16 ar
    18   18   17 ar
    19   19   18 ar
    20   20   15 ar
    21   21   22 ar
    22   22   23 ar
    23   23   24 ar
    24   24   25 ar
    25   25   26 ar
    26   26   21 ar
    27   27    9 1
    28   28   10 1
    29   29   11 1
    30   30   16 1
    31   31   17 1
    32   32   19 1
    33   33   20 1
    34   34   22 1
    35   35   23 1
    36   36   25 1
    37   37   26 1
    38   38   12 1
    39   39   12 1
    40   40   13 1
    41   41   13 1
    42   42   14 1
    43   43   14 1
    44    6   11 1
    45   13   14 1
    46   19   20 ar
@<TRIPOS>SUBSTRUCTURE
     1 RES1 1

@<TRIPOS>CRYSIN
   6.0230   11.3860   24.9730  90.0000  90.4800  90.0000  14 1

