# MOL2 file generated by ConQuest
# Please check atom types

@<TRIPOS>MOLECULE
FUGTIK
    60    60     2
SMALL
NO_CHARGES
****
Generated from CSD

@<TRIPOS>ATOM
      1 C1        -1.3750    1.0589    2.2647 C.ar      1 RES1    0.0000
      2 C2         0.0225    1.0540    2.5059 C.ar      1 RES1    0.0000
      3 C3         0.7899    0.0010    2.1139 C.ar      1 RES1    0.0000
      4 C4         0.2570   -1.1090    1.4740 C.ar      1 RES1    0.0000
      5 C5        -1.1039   -1.1227    1.2312 C.ar      1 RES1    0.0000
      6 C6        -1.8939   -0.0736    1.6181 C.ar      1 RES1    0.0000
      7 N1        -2.1484    2.0894    2.6617 N.3       1 RES1    0.0000
      8 N2         2.2207    0.0893    2.4707 N.pl3     1 RES1    0.0000
      9 N3         1.0600   -2.2062    1.0067 N.pl3     1 RES1    0.0000
     10 C7        -3.5855    2.1473    2.3384 C.3       1 RES1    0.0000
     11 C8        -1.1018    4.3398    2.5980 C.3       1 RES1    0.0000
     12 C9        -1.6260    3.2151    3.4389 C.3       1 RES1    0.0000
     13 C10       -4.4194    1.4878    3.4138 C.3       1 RES1    0.0000
     14 O1         2.9210    0.7753    1.7722 O.2       1 RES1    0.0000
     15 O2         2.5787   -0.4907    3.4623 O.2       1 RES1    0.0000
     16 O3         2.2700   -2.0904    1.0570 O.2       1 RES1    0.0000
     17 O4         0.5147   -3.1964    0.5662 O.2       1 RES1    0.0000
     18 C11        5.4733    0.3926    6.7773 C.ar      2 RES2    0.0000
     19 C12        4.1146    0.4681    6.3836 C.ar      2 RES2    0.0000
     20 C13        3.4463    1.6546    6.4389 C.ar      2 RES2    0.0000
     21 C14        4.0524    2.8235    6.8543 C.ar      2 RES2    0.0000
     22 C15        5.3946    2.7842    7.1977 C.ar      2 RES2    0.0000
     23 C16        6.0874    1.6016    7.1542 C.ar      2 RES2    0.0000
     24 N4         6.1503   -0.7753    6.7538 N.3       2 RES2    0.0000
     25 N5         2.0943    1.6772    5.8459 N.pl3     2 RES2    0.0000
     26 N6         3.3132    4.0522    7.0553 N.pl3     2 RES2    0.0000
     27 C17        5.5229   -2.0403    6.3619 C.3       2 RES2    0.0000
     28 C18        5.4921   -2.2916    4.8744 C.3       2 RES2    0.0000
     29 C19        7.5442   -0.8764    7.2580 C.3       2 RES2    0.0000
     30 C20        8.4104   -0.4760    6.1005 C.3       2 RES2    0.0000
     31 O5         1.3242    0.7959    6.1692 O.2       2 RES2    0.0000
     32 O6         1.8555    2.5418    5.0235 O.2       2 RES2    0.0000
     33 O7         2.1402    3.9855    7.3836 O.2       2 RES2    0.0000
     34 O8         3.9240    5.1180    6.9196 O.2       2 RES2    0.0000
     35 H1         0.3808    1.7754    2.9347 H         1 RES1    0.0000
     36 H2        -1.4686   -1.9137    0.8040 H         1 RES1    0.0000
     37 H3        -2.7234   -0.1021    1.4489 H         1 RES1    0.0000
     38 H4        -3.7194    1.7891    1.4556 H         1 RES1    0.0000
     39 H5        -3.7736    3.1523    2.2412 H         1 RES1    0.0000
     40 H6        -4.1545    0.4799    3.4288 H         1 RES1    0.0000
     41 H7        -4.1450    1.9864    4.4540 H         1 RES1    0.0000
     42 H8        -5.2274    1.6615    3.2731 H         1 RES1    0.0000
     43 H9        -2.3348    3.5527    3.9364 H         1 RES1    0.0000
     44 H10       -0.9601    2.7940    4.1089 H         1 RES1    0.0000
     45 H11       -0.3775    4.0198    2.1173 H         1 RES1    0.0000
     46 H12       -0.8312    5.0807    3.1190 H         1 RES1    0.0000
     47 H13       -1.7165    4.6302    1.8895 H         1 RES1    0.0000
     48 H14        3.6461   -0.2375    6.0017 H         2 RES2    0.0000
     49 H15        5.8201    3.5968    7.5109 H         2 RES2    0.0000
     50 H16        7.0118    1.5653    7.4557 H         2 RES2    0.0000
     51 H17        4.6608   -2.0011    6.6851 H         2 RES2    0.0000
     52 H18        6.1438   -2.7126    6.8644 H         2 RES2    0.0000
     53 H19        6.4518   -2.3240    4.5478 H         2 RES2    0.0000
     54 H20        5.1583   -1.4220    4.3853 H         2 RES2    0.0000
     55 H21        5.1001   -3.1807    4.6684 H         2 RES2    0.0000
     56 H22        7.8641   -0.3396    8.1391 H         2 RES2    0.0000
     57 H23        7.7925   -1.9216    7.3635 H         2 RES2    0.0000
     58 H24        8.2838   -1.0207    5.1776 H         2 RES2    0.0000
     59 H25        9.3124   -0.8097    6.5930 H         2 RES2    0.0000
     60 H26        8.4866    0.5800    5.8878 H         2 RES2    0.0000
@<TRIPOS>BOND
     1    1    2 ar
     2    2    3 ar
     3    3    4 ar
     4    4    5 ar
     5    5    6 ar
     6    6    1 ar
     7    7    1 1
     8    8    3 1
     9    9    4 1
    10   10    7 1
    11   11   12 1
    12   12    7 1
    13   13   10 1
    14   14    8 2
    15   15    8 2
    16   16    9 2
    17   17    9 2
    18   18   19 ar
    19   19   20 ar
    20   20   21 ar
    21   21   22 ar
    22   22   23 ar
    23   23   18 ar
    24   24   18 1
    25   25   20 1
    26   26   21 1
    27   27   24 1
    28   28   27 1
    29   29   24 1
    30   30   29 1
    31   31   25 2
    32   32   25 2
    33   33   26 2
    34   34   26 2
    35   35    2 1
    36   36    5 1
    37   37    6 1
    38   38   10 1
    39   39   10 1
    40   40   13 1
    41   41   13 1
    42   42   13 1
    43   43   12 1
    44   44   12 1
    45   45   11 1
    46   46   11 1
    47   47   11 1
    48   48   19 1
    49   49   22 1
    50   50   23 1
    51   51   27 1
    52   52   27 1
    53   53   28 1
    54   54   28 1
    55   55   28 1
    56   56   29 1
    57   57   29 1
    58   58   30 1
    59   59   30 1
    60   60   30 1
@<TRIPOS>SUBSTRUCTURE
     1 RES1 1
     2 RES2 18

@<TRIPOS>CRYSIN
  14.3790    9.8140   17.7930  90.0000 109.7100  90.0000  14 1

