# MOL2 file generated by ConQuest
# Please check atom types

@<TRIPOS>MOLECULE
FUGTIK01
    38    34     3
SMALL
NO_CHARGES
****
Generated from CSD

@<TRIPOS>ATOM
      1 C1        -2.4828    4.1876   11.8989 C.ar      1 RES1    0.0000
      2 C2        -2.6054    4.1233   10.4982 C.ar      1 RES1    0.0000
      3 C3        -1.5294    4.3068    9.6870 C.ar      1 RES1    0.0000
      4 C4        -0.2636    4.5578   10.1885 C.ar      1 RES1    0.0000
      5 C5        -0.1161    4.6393   11.5565 C.ar      1 RES1    0.0000
      6 C6        -1.1830    4.4637   12.3961 C.ar      1 RES1    0.0000
      7 N1        -3.5273    3.9869   12.7171 N.3       1 RES1    0.0000
      8 C7        -3.4177    4.1939   14.1903 C.3       1 RES1    0.0000
      9 C8        -4.8604    3.5916   12.2356 C.3       1 RES1    0.0000
     10 C9        -5.7348    4.7789   11.9699 C.3       1 RES1    0.0000
     11 C10       -2.8965    2.9658   14.8736 C.3       1 RES1    0.0000
     12 N2         0.8765    4.7821    9.3475 N.pl3     1 RES1    0.0000
     13 O1         0.6980    4.9452    8.1542 O.2       1 RES1    0.0000
     14 O2         1.9808    4.8275    9.8703 O.2       1 RES1    0.0000
     15 N3        -1.7967    4.1688    8.2366 N.pl3     1 RES1    0.0000
     16 O3        -2.4025    5.0753    7.7238 O.2       1 RES1    0.0000
     17 O4        -1.4407    3.1964    7.6570 O.2       1 RES1    0.0000
     18 C11       -0.9128    8.3643   10.5010 C.ar      2 RES2    0.0000
     19 C12       -0.0165    8.3627   11.5920 C.ar      2 RES2    0.0000
     20 C13        1.3184    8.2545   11.3690 C.ar      2 RES2    0.0000
     21 C14        1.8641    8.1572   10.0933 C.ar      2 RES2    0.0000
     22 C15        0.9709    8.1745    9.0264 C.ar      2 RES2    0.0000
     23 C16       -0.3817    8.2874    9.2182 C.ar      2 RES2    0.0000
     24 N4        -2.2478    8.4380   10.7482 N.3       2 RES2    0.0000
     25 C17       -3.2269    8.0349    9.7069 C.3       2 RES2    0.0000
     26 C18       -2.7652    9.0481   12.0040 C.3       2 RES2    0.0000
     27 C19       -3.6349    9.3477    9.1032 C.3       2 RES2    0.0000
     28 C20       -3.1113    7.8216   12.7995 C.3       2 RES2    0.0000
     29 N5         3.2630    7.9847    9.8575 N.pl3     2 RES2    0.0000
     30 O5         3.9962    7.8279   10.7951 O.2       2 RES2    0.0000
     31 O6         3.6726    8.0318    8.6912 O.2       2 RES2    0.0000
     32 N6         2.1669    8.3204   12.5595 N.pl3     2 RES2    0.0000
     33 O7         2.2197    7.3668   13.2683 O.2       2 RES2    0.0000
     34 O8         2.7070    9.3665   12.7953 O.2       2 RES2    0.0000
     35 C21       -2.8226    7.8185   11.9614 Du        3 SUP3    0.0000
     36 C22       -3.1230    9.0528   12.7626 Du        3 SUP3    0.0000
     37 C23       -3.0562    9.1281    9.7169 Du        3 SUP3    0.0000
     38 C24       -3.4298    7.9377    8.8773 Du        3 SUP3    0.0000
@<TRIPOS>BOND
     1    1    2 ar
     2    2    3 ar
     3    3    4 ar
     4    4    5 ar
     5    5    6 ar
     6    6    1 ar
     7    7    1 1
     8    8    7 1
     9    9    7 1
    10   10    9 1
    11   11    8 1
    12   12    4 1
    13   13   12 2
    14   14   12 2
    15   15    3 1
    16   16   15 2
    17   17   15 2
    18   18   19 ar
    19   19   20 ar
    20   20   21 ar
    21   21   22 ar
    22   22   23 ar
    23   23   18 ar
    24   24   18 1
    25   25   24 1
    26   26   24 1
    27   27   25 1
    28   28   26 1
    29   29   21 1
    30   30   29 2
    31   31   29 2
    32   32   20 1
    33   33   32 2
    34   34   32 2
@<TRIPOS>SUBSTRUCTURE
     1 RES1 1
     2 RES2 18
     3 SUP3 35

@<TRIPOS>CRYSIN
  10.5380   15.6840   14.8750  90.0000 107.2500  90.0000 231 1

