# MOL2 file generated by ConQuest
# Please check atom types

@<TRIPOS>MOLECULE
FUHCOB
    45    46     1
SMALL
NO_CHARGES
****
Generated from CSD

@<TRIPOS>ATOM
      1 N1        16.6504    3.5518    4.5926 N.2       1 RES1    0.0000
      2 O1        15.5656    2.6636    4.4226 O.3       1 RES1    0.0000
      3 C1        15.7159    1.9496    3.1892 C.3       1 RES1    0.0000
      4 H1        16.4977    1.3754    3.2251 H         1 RES1    0.0000
      5 H2        15.8234    2.5711    2.4521 H         1 RES1    0.0000
      6 C2        14.4701    1.1252    2.9962 C.3       1 RES1    0.0000
      7 H3        14.3504    0.5529    3.7705 H         1 RES1    0.0000
      8 C3        16.5987    4.1081    5.7300 C.2       1 RES1    0.0000
      9 H4        15.8999    3.8832    6.3017 H         1 RES1    0.0000
     10 C4        17.5785    5.0785    6.1854 C.ar      1 RES1    0.0000
     11 C5        18.6578    5.5073    5.3980 C.ar      1 RES1    0.0000
     12 H5        18.7673    5.1632    4.5423 H         1 RES1    0.0000
     13 C6        19.5581    6.4354    5.8834 C.ar      1 RES1    0.0000
     14 H6        20.2642    6.7055    5.3429 H         1 RES1    0.0000
     15 C7        19.4336    6.9790    7.1634 C.ar      1 RES1    0.0000
     16 C8        18.3626    6.5497    7.9352 C.ar      1 RES1    0.0000
     17 H7        18.2553    6.8928    8.7921 H         1 RES1    0.0000
     18 C9        17.4568    5.6280    7.4606 C.ar      1 RES1    0.0000
     19 H8        16.7477    5.3661    8.0035 H         1 RES1    0.0000
     20 C10       20.4192    7.9986    7.6775 C.3       1 RES1    0.0000
     21 H9        21.3086    7.7402    7.4235 H         1 RES1    0.0000
     22 H10       20.3592    8.0468    8.6339 H         1 RES1    0.0000
     23 H11       20.2168    8.8581    7.3012 H         1 RES1    0.0000
     24 N1A       12.2897    3.5518    1.3998 N.2       1 RES1    0.0000
     25 O1A       13.3746    2.6636    1.5699 O.3       1 RES1    0.0000
     26 C1A       13.2243    1.9496    2.8033 C.3       1 RES1    0.0000
     27 H1A       12.4424    1.3754    2.7673 H         1 RES1    0.0000
     28 H2A       13.1168    2.5711    3.5403 H         1 RES1    0.0000
     29 H3A       14.5897    0.5529    2.2220 H         1 RES1    0.0000
     30 C3A       12.3414    4.1081    0.2625 C.2       1 RES1    0.0000
     31 H4A       13.0402    3.8832   -0.3092 H         1 RES1    0.0000
     32 C4A       11.3617    5.0785   -0.1930 C.ar      1 RES1    0.0000
     33 C5A       10.2824    5.5073    0.5945 C.ar      1 RES1    0.0000
     34 H5A       10.1728    5.1632    1.4502 H         1 RES1    0.0000
     35 C6A        9.3820    6.4354    0.1091 C.ar      1 RES1    0.0000
     36 H6A        8.6760    6.7055    0.6496 H         1 RES1    0.0000
     37 C7A        9.5065    6.9790   -1.1709 C.ar      1 RES1    0.0000
     38 C8A       10.5775    6.5497   -1.9428 C.ar      1 RES1    0.0000
     39 H7A       10.6848    6.8928   -2.7997 H         1 RES1    0.0000
     40 C9A       11.4834    5.6280   -1.4682 C.ar      1 RES1    0.0000
     41 H8A       12.1924    5.3661   -2.0111 H         1 RES1    0.0000
     42 C10A       8.5210    7.9986   -1.6851 C.3       1 RES1    0.0000
     43 H9A        7.6316    7.7402   -1.4310 H         1 RES1    0.0000
     44 H10A       8.5809    8.0468   -2.6415 H         1 RES1    0.0000
     45 H11A       8.7233    8.8581   -1.3088 H         1 RES1    0.0000
@<TRIPOS>BOND
     1    1    2 1
     2    2    3 1
     3    3    4 1
     4    5    3 1
     5    6    3 1
     6    7    6 1
     7    8    1 2
     8    9    8 1
     9   10    8 1
    10   11   10 ar
    11   12   11 1
    12   13   11 ar
    13   14   13 1
    14   15   13 ar
    15   16   15 ar
    16   17   16 1
    17   18   10 ar
    18   19   18 1
    19   20   15 1
    20   21   20 1
    21   22   20 1
    22   23   20 1
    23   24   25 1
    24   25   26 1
    25   26    6 1
    26   27   26 1
    27   28   26 1
    28   29    6 1
    29   30   24 2
    30   31   30 1
    31   32   30 1
    32   33   32 ar
    33   34   33 1
    34   35   33 ar
    35   36   35 1
    36   37   35 ar
    37   38   37 ar
    38   39   38 1
    39   40   32 ar
    40   41   40 1
    41   42   37 1
    42   43   42 1
    43   44   42 1
    44   45   42 1
    45   16   18 ar
    46   38   40 ar
@<TRIPOS>SUBSTRUCTURE
     1 RES1 1

@<TRIPOS>CRYSIN
  29.8430    4.8668   12.1202  90.0000  98.5680  90.0000  15 1

