# MOL2 file generated by ConQuest
# Please check atom types

@<TRIPOS>MOLECULE
FUHFAP
    11    10     1
SMALL
NO_CHARGES
****
Generated from CSD

@<TRIPOS>ATOM
      1 N1        -0.4333    2.7171    1.1893 N.3       1 RES1    0.0000
      2 O1        -1.4306    1.9200    0.6555 O.3       1 RES1    0.0000
      3 C1        -2.2992    1.3969    1.6555 C.3       1 RES1    0.0000
      4 H1        -2.6343    2.1436    2.1312 H         1 RES1    0.0000
      5 H2        -2.9679    0.8234    1.2083 H         1 RES1    0.0000
      6 H3        -1.8380    0.9582    2.3738 H         1 RES1    0.0000
      7 O1B        0.5640    1.9200    1.7230 O.3       1 RES1    0.0000
      8 C1B        1.4326    1.3969    0.7231 C.3       1 RES1    0.0000
      9 H1B        1.7677    2.1436    0.2474 H         1 RES1    0.0000
     10 H2B        2.1012    0.8234    1.1702 H         1 RES1    0.0000
     11 H3B        0.9714    0.9582    0.0048 H         1 RES1    0.0000
@<TRIPOS>BOND
     1    1    2 1
     2    2    3 1
     3    3    4 1
     4    5    3 1
     5    6    3 1
     6    7    1 1
     7    8    7 1
     8    9    8 1
     9   10    8 1
    10   11    8 1
@<TRIPOS>SUBSTRUCTURE
     1 RES1 1

@<TRIPOS>CRYSIN
  12.6380    7.0980    5.0630  90.0000 110.0200  90.0000  15 1

