# MOL2 file generated by ConQuest
# Please check atom types

@<TRIPOS>MOLECULE
FUHROQ
    86    91     1
SMALL
USER_CHARGES
****
Generated from CSD

@<TRIPOS>ATOM
      1 C1         9.1028    7.4556   10.2607 C.3       1 RES1    0.0000
      2 H1         9.1522    6.8416   11.0090 H         1 RES1    0.0000
      3 H2         9.5530    7.0371    9.5093 H         1 RES1    0.0000
      4 C2         9.8658    8.7171   10.6287 C.3       1 RES1    0.0000
      5 H3         9.9463    9.2848    9.8470 H         1 RES1    0.0000
      6 H4        10.7596    8.4789   10.9177 H         1 RES1    0.0000
      7 C3         9.1640    9.4872   11.7369 C.3       1 RES1    0.0000
      8 H5         9.6310   10.3301   11.9155 H         1 RES1    0.0000
      9 C4         7.7301    9.7485   11.3853 C.3       1 RES1    0.0000
     10 H6         7.6991   10.3648   10.6379 H         1 RES1    0.0000
     11 H7         7.2958   10.1775   12.1406 H         1 RES1    0.0000
     12 C5         6.9470    8.4847   11.0172 C.3       1 RES1    0.0000
     13 H8         6.9352    7.9181   11.8182 H         1 RES1    0.0000
     14 C6         5.4905    8.8189   10.6957 C.3       1 RES1    0.0000
     15 H9         5.1283    9.3808   11.3984 H         1 RES1    0.0000
     16 H10        4.9715    8.0002   10.6713 H         1 RES1    0.0000
     17 C7         5.3630    9.5415    9.3523 C.3       1 RES1    0.0000
     18 H11        4.4248    9.7011    9.1625 H         1 RES1    0.0000
     19 H12        5.8066   10.4018    9.4089 H         1 RES1    0.0000
     20 C8         5.9768    8.7310    8.2152 C.3       1 RES1    0.0000
     21 H13        5.4687    7.8985    8.1221 H         1 RES1    0.0000
     22 C9         7.4501    8.3691    8.5094 C.3       1 RES1    0.0000
     23 H14        7.9330    9.2178    8.5815 H         1 RES1    0.0000
     24 C10        7.6161    7.6487    9.8886 C.3       1 RES1    0.0000
     25 C11        8.0789    7.6140    7.3306 C.3       1 RES1    0.0000
     26 H15        7.6681    6.7376    7.2673 H         1 RES1    0.0000
     27 H16        9.0231    7.4845    7.5107 H         1 RES1    0.0000
     28 C12        7.9255    8.3332    5.9806 C.3       1 RES1    0.0000
     29 H17        8.4504    9.1496    5.9927 H         1 RES1    0.0000
     30 H18        8.2726    7.7655    5.2748 H         1 RES1    0.0000
     31 C13        6.4783    8.6743    5.6825 C.3       1 RES1    0.0000
     32 C14        5.9190    9.4768    6.8831 C.3       1 RES1    0.0000
     33 H19        6.5101   10.2526    6.9844 H         1 RES1    0.0000
     34 C15        4.5933   10.0283    6.3663 C.3       1 RES1    0.0000
     35 H20        4.2956   10.7868    6.8932 H         1 RES1    0.0000
     36 H21        3.9032    9.3473    6.3669 H         1 RES1    0.0000
     37 C16        4.9614   10.4527    4.9353 C.3       1 RES1    0.0000
     38 H22        5.0847   11.4239    4.8885 H         1 RES1    0.0000
     39 C17        6.2737    9.7254    4.5527 C.3       1 RES1    0.0000
     40 H23        7.0107   10.3694    4.5873 H         1 RES1    0.0000
     41 C18        5.6758    7.4013    5.4202 C.3       1 RES1    0.0000
     42 H24        5.6674    6.8590    6.2118 H         1 RES1    0.0000
     43 H25        6.0800    6.9099    4.6999 H         1 RES1    0.0000
     44 H26        4.7753    7.6337    5.1836 H         1 RES1    0.0000
     45 C19        6.9839    6.2531    9.8463 C.3       1 RES1    0.0000
     46 H27        7.0233    5.8577   10.7200 H         1 RES1    0.0000
     47 H28        7.4652    5.7027    9.2233 H         1 RES1    0.0000
     48 H29        6.0682    6.3260    9.5671 H         1 RES1    0.0000
     49 C20        6.0523    9.3033    3.0858 C.3       1 RES1    0.0000
     50 H30        5.9718    8.3275    3.0633 H         1 RES1    0.0000
     51 C21        7.1885    9.7011    2.1577 C.3       1 RES1    0.0000
     52 H31        6.9394    9.5161    1.2503 H         1 RES1    0.0000
     53 H32        7.9758    9.1993    2.3819 H         1 RES1    0.0000
     54 H33        7.3679   10.6388    2.2541 H         1 RES1    0.0000
     55 C22        4.6855    9.8988    2.7259 C.3       1 RES1    0.0000
     56 O1         3.9904   10.0253    3.9662 O.3       1 RES1    0.0000
     57 C23        3.8185    9.0686    1.7616 C.3       1 RES1    0.0000
     58 H34        4.3610    8.8998    0.9643 H         1 RES1    0.0000
     59 C24        2.5876    9.8630    1.3059 C.3       1 RES1    0.0000
     60 H35        2.1273    9.3658    0.6114 H         1 RES1    0.0000
     61 H36        1.9780    9.9624    2.0534 H         1 RES1    0.0000
     62 C25        2.9566   11.2401    0.7745 C.3       1 RES1    0.0000
     63 H37        2.1281   11.7442    0.6358 H         1 RES1    0.0000
     64 C26        3.7531   11.9339    1.8523 C.3       1 RES1    0.0000
     65 H38        4.0022   12.8207    1.5484 H         1 RES1    0.0000
     66 H39        3.2039   12.0310    2.6465 H         1 RES1    0.0000
     67 O2         4.9388   11.1912    2.1814 O.3       1 RES1    0.0000
     68 C27        3.7003   11.1753   -0.5606 C.3       1 RES1    0.0000
     69 H40        3.9401   12.0622   -0.8366 H         1 RES1    0.0000
     70 H41        3.1318   10.7753   -1.2229 H         1 RES1    0.0000
     71 H42        4.4944   10.6458   -0.4593 H         1 RES1    0.0000
     72 O3         9.1271    8.6524   12.9519 O.3       1 RES1    0.0000
     73 C28       10.1668    8.6755   13.7793 C.2       1 RES1    0.0000
     74 O4        11.1571    9.3461   13.5929 O.2       1 RES1    0.0000
     75 C29        9.9480    7.7829   14.9450 C.3       1 RES1    0.0000
     76 H43       10.5140    8.0592   15.6693 H         1 RES1    0.0000
     77 H44       10.1601    6.8798   14.7020 H         1 RES1    0.0000
     78 H45        9.0298    7.8337   15.2191 H         1 RES1    0.0000
     79 C30        3.4471    7.7239    2.3360 C.2       1 RES1    0.0000
     80 C31        2.3285    7.5597    3.2860 C.3       1 RES1    0.0000
     81 H46        2.5574    6.8937    3.9394 H         1 RES1    0.0000
     82 H47        1.5420    7.2833    2.8108 H         1 RES1    0.0000
     83 H48        2.1583    8.3945    3.7265 H         1 RES1    0.0000
     84 N1         4.2554    6.7364    1.8638 N.pl3     1 RES1    1.0000
     85 H49        5.0729    6.7642    1.3202 H         1 RES1    0.0000
     86 O5         3.8655    5.5443    2.4074 O.2       1 RES1   -1.0000
@<TRIPOS>BOND
     1    1    2 1
     2    3    1 1
     3    4    1 1
     4    5    4 1
     5    6    4 1
     6    7    4 1
     7    8    7 1
     8    9    7 1
     9   10    9 1
    10   11    9 1
    11   12    9 1
    12   13   12 1
    13   14   12 1
    14   15   14 1
    15   16   14 1
    16   17   14 1
    17   18   17 1
    18   19   17 1
    19   20   17 1
    20   21   20 1
    21   22   20 1
    22   23   22 1
    23   24    1 1
    24   25   22 1
    25   26   25 1
    26   27   25 1
    27   28   25 1
    28   29   28 1
    29   30   28 1
    30   31   28 1
    31   32   20 1
    32   33   32 1
    33   34   32 1
    34   35   34 1
    35   36   34 1
    36   37   34 1
    37   38   37 1
    38   39   31 1
    39   40   39 1
    40   41   31 1
    41   42   41 1
    42   43   41 1
    43   44   41 1
    44   45   24 1
    45   46   45 1
    46   47   45 1
    47   48   45 1
    48   49   39 1
    49   50   49 1
    50   51   49 1
    51   52   51 1
    52   53   51 1
    53   54   51 1
    54   55   49 1
    55   56   37 1
    56   57   55 1
    57   58   57 1
    58   59   57 1
    59   60   59 1
    60   61   59 1
    61   62   59 1
    62   63   62 1
    63   64   62 1
    64   65   64 1
    65   66   64 1
    66   67   55 1
    67   68   62 1
    68   69   68 1
    69   70   68 1
    70   71   68 1
    71   72    7 1
    72   73   72 1
    73   74   73 2
    74   75   73 1
    75   76   75 1
    76   77   75 1
    77   78   75 1
    78   79   57 1
    79   80   79 1
    80   81   80 1
    81   82   80 1
    82   83   80 1
    83   84   79 2
    84   85   84 1
    85   86   84 1
    86   12   24 1
    87   22   24 1
    88   31   32 1
    89   37   39 1
    90   55   56 1
    91   64   67 1
@<TRIPOS>SUBSTRUCTURE
     1 RES1 1

@<TRIPOS>CRYSIN
   8.3850   11.5627   30.4200  90.0000  90.0000  90.0000  19 1

