# MOL2 file generated by ConQuest
# Please check atom types

@<TRIPOS>MOLECULE
FUHSIL
    78    82     2
SMALL
NO_CHARGES
****
Generated from CSD

@<TRIPOS>ATOM
      1 C1        20.4258    5.2190    3.1115 C.2       1 RES1    0.0000
      2 H1        20.0389    6.0623    2.9093 H         1 RES1    0.0000
      3 C2        21.6279    5.2308    3.6610 C.2       1 RES1    0.0000
      4 H2        22.0265    4.3969    3.8791 H         1 RES1    0.0000
      5 C3        23.7964    8.7559    4.5598 C.ar      1 RES1    0.0000
      6 C4        22.5129    8.7571    3.9627 C.ar      1 RES1    0.0000
      7 N1        21.8169    7.6282    3.6631 N.ar      1 RES1    0.0000
      8 C5        22.3850    6.4579    3.9532 C.ar      1 RES1    0.0000
      9 C6        23.6871    6.3679    4.5069 C.ar      1 RES1    0.0000
     10 H3        24.0761    5.5151    4.6615 H         1 RES1    0.0000
     11 C7        24.3847    7.4908    4.8160 C.ar      1 RES1    0.0000
     12 H4        25.2521    7.4304    5.1982 H         1 RES1    0.0000
     13 C8        24.4222    9.9902    4.8838 C.ar      1 RES1    0.0000
     14 H5        25.2754    9.9925    5.3009 H         1 RES1    0.0000
     15 C9        23.8050   11.1640    4.6011 C.ar      1 RES1    0.0000
     16 H6        24.2234   11.9825    4.8372 H         1 RES1    0.0000
     17 C10       22.5429   11.1865    3.9585 C.ar      1 RES1    0.0000
     18 H7        22.1247   12.0145    3.7520 H         1 RES1    0.0000
     19 C11       21.9363   10.0138    3.6377 C.ar      1 RES1    0.0000
     20 O1        20.6708   10.0281    3.0660 O.3       1 RES1    0.0000
     21 C12       19.6351    4.0368    2.7854 C.ar      1 RES1    0.0000
     22 C13       18.3663    4.1031    2.2370 C.ar      1 RES1    0.0000
     23 C14       17.5739    2.9743    2.0115 C.ar      1 RES1    0.0000
     24 H8        16.6917    3.0667    1.6685 H         1 RES1    0.0000
     25 C15       18.0797    1.7424    2.2889 C.ar      1 RES1    0.0000
     26 H9        17.5602    0.9654    2.1227 H         1 RES1    0.0000
     27 C16       19.3488    1.6263    2.8119 C.ar      1 RES1    0.0000
     28 H10       19.7029    0.7652    3.0004 H         1 RES1    0.0000
     29 C17       20.1089    2.7469    3.0660 C.ar      1 RES1    0.0000
     30 H11       20.9771    2.6426    3.4397 H         1 RES1    0.0000
     31 C18       20.5703    9.6372    1.7553 C.2       1 RES1    0.0000
     32 O2        21.5341    9.4548    1.0682 O.2       1 RES1    0.0000
     33 C19       19.1451    9.5069    1.3445 C.3       1 RES1    0.0000
     34 H12       19.0877    9.4891    0.3663 H         1 RES1    0.0000
     35 H13       18.6354   10.2697    1.6876 H         1 RES1    0.0000
     36 H14       18.7750    8.6754    1.7087 H         1 RES1    0.0000
     37 N2        17.7972    5.4215    1.8464 N.pl3     1 RES1    0.0000
     38 O3        18.4467    6.1618    1.1360 O.2       1 RES1    0.0000
     39 O4        16.6721    5.6264    2.2328 O.2       1 RES1    0.0000
     40 C20       12.0241   -0.9227    1.3403 C.2       2 RES2    0.0000
     41 H15       12.4270   -0.0936    1.5701 H         2 RES2    0.0000
     42 C21       10.8357   -0.8955    0.7464 C.2       2 RES2    0.0000
     43 H16       10.4549   -1.7270    0.4859 H         2 RES2    0.0000
     44 C22        8.5400    2.5503   -0.1048 C.ar      2 RES2    0.0000
     45 C23        9.8121    2.5988    0.5198 C.ar      2 RES2    0.0000
     46 N3        10.5713    1.4996    0.7961 N.ar      2 RES2    0.0000
     47 C24       10.0673    0.3186    0.4637 C.ar      2 RES2    0.0000
     48 C25        8.7842    0.1658   -0.1239 C.ar      2 RES2    0.0000
     49 H17        8.4467   -0.7012   -0.3155 H         2 RES2    0.0000
     50 C26        8.0409    1.2651   -0.4097 C.ar      2 RES2    0.0000
     51 H18        7.1854    1.1703   -0.8131 H         2 RES2    0.0000
     52 C27        7.8406    3.7454   -0.3885 C.ar      2 RES2    0.0000
     53 H19        6.9915    3.7099   -0.8120 H         2 RES2    0.0000
     54 C28        8.3862    4.9441   -0.0561 C.ar      2 RES2    0.0000
     55 H20        7.9168    5.7437   -0.2615 H         2 RES2    0.0000
     56 C29        9.6470    5.0235    0.5939 C.ar      2 RES2    0.0000
     57 H21       10.0181    5.8692    0.8173 H         2 RES2    0.0000
     58 C30       10.3149    3.8805    0.8914 C.ar      2 RES2    0.0000
     59 O5        11.5795    3.9420    1.4674 O.3       2 RES2    0.0000
     60 C31       12.7496   -2.1523    1.6622 C.ar      2 RES2    0.0000
     61 C32       14.0792   -2.1890    2.1322 C.ar      2 RES2    0.0000
     62 C33       14.7615   -3.3640    2.3863 C.ar      2 RES2    0.0000
     63 H22       15.6708   -3.3427    2.6605 H         2 RES2    0.0000
     64 C34       14.1053   -4.5627    2.2349 C.ar      2 RES2    0.0000
     65 H23       14.5465   -5.3777    2.4467 H         2 RES2    0.0000
     66 C35       12.8054   -4.5805    1.7765 C.ar      2 RES2    0.0000
     67 H24       12.3598   -5.4108    1.6558 H         2 RES2    0.0000
     68 C36       12.1464   -3.4078    1.4938 C.ar      2 RES2    0.0000
     69 H25       11.2536   -3.4493    1.1741 H         2 RES2    0.0000
     70 C37       11.7008    3.4801    2.7537 C.2       2 RES2    0.0000
     71 O6        10.7607    3.2645    3.4524 O.2       2 RES2    0.0000
     72 C38       13.1363    3.3107    3.1242 C.3       2 RES2    0.0000
     73 H26       13.2128    3.2159    4.0972 H         2 RES2    0.0000
     74 H27       13.6444    4.0960    2.8310 H         2 RES2    0.0000
     75 H28       13.4945    2.5088    2.6891 H         2 RES2    0.0000
     76 N4        14.8569   -0.9595    2.3133 N.pl3     2 RES2    0.0000
     77 O7        14.3162    0.0107    2.8214 O.2       2 RES2    0.0000
     78 O8        16.0324   -0.9831    1.9671 O.2       2 RES2    0.0000
@<TRIPOS>BOND
     1    1    2 1
     2    3    1 2
     3    4    3 1
     4    5    6 ar
     5    6    7 ar
     6    7    8 ar
     7    8    3 1
     8    9    8 ar
     9   10    9 1
    10   11    5 ar
    11   12   11 1
    12   13    5 ar
    13   14   13 1
    14   15   13 ar
    15   16   15 1
    16   17   15 ar
    17   18   17 1
    18   19    6 ar
    19   20   19 1
    20   21    1 1
    21   22   21 ar
    22   23   22 ar
    23   24   23 1
    24   25   23 ar
    25   26   25 1
    26   27   25 ar
    27   28   27 1
    28   29   21 ar
    29   30   29 1
    30   31   20 1
    31   32   31 2
    32   33   31 1
    33   34   33 1
    34   35   33 1
    35   36   33 1
    36   37   22 1
    37   38   37 2
    38   39   37 2
    39   40   41 1
    40   42   40 2
    41   43   42 1
    42   44   45 ar
    43   45   46 ar
    44   46   47 ar
    45   47   42 1
    46   48   47 ar
    47   49   48 1
    48   50   44 ar
    49   51   50 1
    50   52   44 ar
    51   53   52 1
    52   54   52 ar
    53   55   54 1
    54   56   54 ar
    55   57   56 1
    56   58   45 ar
    57   59   58 1
    58   60   40 1
    59   61   60 ar
    60   62   61 ar
    61   63   62 1
    62   64   62 ar
    63   65   64 1
    64   66   64 ar
    65   67   66 1
    66   68   60 ar
    67   69   68 1
    68   70   59 1
    69   71   70 2
    70   72   70 1
    71   73   72 1
    72   74   72 1
    73   75   72 1
    74   76   61 1
    75   77   76 2
    76   78   76 2
    77    9   11 ar
    78   17   19 ar
    79   27   29 ar
    80   48   50 ar
    81   56   58 ar
    82   66   68 ar
@<TRIPOS>SUBSTRUCTURE
     1 RES1 1
     2 RES2 40

@<TRIPOS>CRYSIN
  25.8466   11.8451   10.5870  90.0000  90.0000  90.0000  33 1

