# MOL2 file generated by ConQuest
# Please check atom types

@<TRIPOS>MOLECULE
FUHSEG
    19    19     1
SMALL
NO_CHARGES
****
Generated from CSD

@<TRIPOS>ATOM
      1 O1         0.4705    3.8601    4.4532 O.2       1 RES1    0.0000
      2 O2        -1.6135    3.5240    4.0582 O.2       1 RES1    0.0000
      3 N1         2.4566    2.9479    2.0111 N.1       1 RES1    0.0000
      4 N2        -0.4362    3.4723    3.7529 N.pl3     1 RES1    0.0000
      5 C1         1.3488    2.9380    2.2189 C.1       1 RES1    0.0000
      6 C2        -0.0608    2.9200    2.4430 C.2       1 RES1    0.0000
      7 C3        -1.0272    2.4754    1.6477 C.2       1 RES1    0.0000
      8 C4        -0.9536    1.8950    0.3121 C.ar      1 RES1    0.0000
      9 C5         0.2074    1.8031   -0.4558 C.ar      1 RES1    0.0000
     10 C6         0.1591    1.2576   -1.7230 C.ar      1 RES1    0.0000
     11 C7        -1.0291    0.8011   -2.2343 C.ar      1 RES1    0.0000
     12 C8        -2.1795    0.8896   -1.5007 C.ar      1 RES1    0.0000
     13 C9        -2.1493    1.4388   -0.2275 C.ar      1 RES1    0.0000
     14 H1        -1.9101    2.5622    2.0009 H         1 RES1    0.0000
     15 H2         0.9864    2.1244   -0.1283 H         1 RES1    0.0000
     16 H3         1.0155    1.1259   -2.2232 H         1 RES1    0.0000
     17 H4        -1.0393    0.3649   -3.0783 H         1 RES1    0.0000
     18 H5        -2.9902    0.6272   -1.8470 H         1 RES1    0.0000
     19 H6        -3.0055    1.6091    0.2736 H         1 RES1    0.0000
@<TRIPOS>BOND
     1    1    4 2
     2    2    4 2
     3    3    5 3
     4    4    6 1
     5    5    6 1
     6    6    7 2
     7    7    8 1
     8    8    9 ar
     9    9   10 ar
    10   10   11 ar
    11   11   12 ar
    12   12   13 ar
    13   13    8 ar
    14   14    7 1
    15   15    9 1
    16   16   10 1
    17   17   11 1
    18   18   12 1
    19   19   13 1
@<TRIPOS>SUBSTRUCTURE
     1 RES1 1

@<TRIPOS>CRYSIN
   6.9220    7.4900    9.1330 108.1200  94.2200 105.6300   2 1

