# MOL2 file generated by ConQuest
# Please check atom types

@<TRIPOS>MOLECULE
FUHTIL
    55    58     1
SMALL
NO_CHARGES
****
Generated from CSD

@<TRIPOS>ATOM
      1 O1        -1.7801    0.6904    8.5821 O.2       1 RES1    0.0000
      2 O2        -2.4715    2.6788    9.3749 O.3       1 RES1    0.0000
      3 O3         0.6150   -1.0868    9.7656 O.2       1 RES1    0.0000
      4 O4        -0.1037    0.3761   11.1708 O.2       1 RES1    0.0000
      5 N1         0.4088    1.9286    7.3505 N.pl3     1 RES1    0.0000
      6 N2         0.4822    0.0540   10.1632 N.pl3     1 RES1    0.0000
      7 C1        -0.3302    2.6036    8.4153 C.3       1 RES1    0.0000
      8 C2         0.6390    2.5380    9.5943 C.3       1 RES1    0.0000
      9 C3         1.2644    1.1514    9.4069 C.3       1 RES1    0.0000
     10 C4         1.2702    0.8794    7.8966 C.3       1 RES1    0.0000
     11 C5        -1.6216    1.8563    8.7671 C.2       1 RES1    0.0000
     12 C6        -3.7051    2.0617    9.9027 C.3       1 RES1    0.0000
     13 C7        -3.6344    1.9508   11.3399 C.3       1 RES1    0.0000
     14 C8         1.7197    3.6190    9.6057 C.ar      1 RES1    0.0000
     15 C9         2.5387    3.7193   10.7161 C.ar      1 RES1    0.0000
     16 C10        3.4959    4.6971   10.7893 C.ar      1 RES1    0.0000
     17 C11        3.6536    5.5968    9.7679 C.ar      1 RES1    0.0000
     18 C12        2.8751    5.4859    8.6643 C.ar      1 RES1    0.0000
     19 C13        1.9051    4.5197    8.5821 C.ar      1 RES1    0.0000
     20 C14        2.6961    0.8495    7.3528 C.ar      1 RES1    0.0000
     21 C15        3.4559   -0.2604    7.6247 C.ar      1 RES1    0.0000
     22 C16        4.7797   -0.3404    7.1951 C.ar      1 RES1    0.0000
     23 C17        5.3138    0.6740    6.4502 C.ar      1 RES1    0.0000
     24 C18        4.5622    1.7772    6.1738 C.ar      1 RES1    0.0000
     25 C19        3.2247    1.8698    6.6102 C.ar      1 RES1    0.0000
     26 C20       -0.1831    1.7791    6.0984 C.ar      1 RES1    0.0000
     27 C21        0.2661    0.7936    5.1913 C.ar      1 RES1    0.0000
     28 C22       -0.2869    0.7107    3.9414 C.ar      1 RES1    0.0000
     29 C23       -1.3174    1.5255    3.5439 C.ar      1 RES1    0.0000
     30 C24       -1.7511    2.4927    4.4213 C.ar      1 RES1    0.0000
     31 C25       -1.2287    2.6017    5.6665 C.ar      1 RES1    0.0000
     32 H1        -0.5212    3.5101    8.2256 H         1 RES1    0.0000
     33 H2         0.2443    2.4686   10.5334 H         1 RES1    0.0000
     34 H3         2.1892    1.0607    9.8022 H         1 RES1    0.0000
     35 H4         0.8049   -0.1157    7.7915 H         1 RES1    0.0000
     36 H5        -3.6546    1.2247    9.4823 H         1 RES1    0.0000
     37 H6        -4.2965    2.5361    9.5280 H         1 RES1    0.0000
     38 H7        -3.4804    2.7290   11.6301 H         1 RES1    0.0000
     39 H8        -2.8162    1.4465   11.6073 H         1 RES1    0.0000
     40 H9        -4.4705    1.5043   11.6758 H         1 RES1    0.0000
     41 H10        2.5811    3.0954   11.4702 H         1 RES1    0.0000
     42 H11        4.0212    4.7058   11.5387 H         1 RES1    0.0000
     43 H12        4.3509    6.2390    9.9164 H         1 RES1    0.0000
     44 H13        2.9294    6.0751    8.0657 H         1 RES1    0.0000
     45 H14        1.3657    4.5419    7.7915 H         1 RES1    0.0000
     46 H15        3.0940   -0.9450    8.1114 H         1 RES1    0.0000
     47 H16        5.1450   -1.1186    7.3345 H         1 RES1    0.0000
     48 H17        6.2343    0.6943    6.1235 H         1 RES1    0.0000
     49 H18        4.9145    2.4783    5.6437 H         1 RES1    0.0000
     50 H19        2.8328    2.5747    6.5119 H         1 RES1    0.0000
     51 H20        1.0167    0.3375    5.4152 H         1 RES1    0.0000
     52 H21       -0.0032    0.0193    3.3816 H         1 RES1    0.0000
     53 H22       -1.7172    1.4754    2.6962 H         1 RES1    0.0000
     54 H23       -2.4412    3.0858    4.1128 H         1 RES1    0.0000
     55 H24       -1.5448    3.2883    6.2378 H         1 RES1    0.0000
@<TRIPOS>BOND
     1    1   11 2
     2    2   11 1
     3    3    6 2
     4    4    6 2
     5    5    7 1
     6    6    9 1
     7    7    8 1
     8    8    9 1
     9    9   10 1
    10   10    5 1
    11   11    7 1
    12   12    2 1
    13   13   12 1
    14   14    8 1
    15   15   14 ar
    16   16   15 ar
    17   17   16 ar
    18   18   17 ar
    19   19   14 ar
    20   20   10 1
    21   21   20 ar
    22   22   21 ar
    23   23   22 ar
    24   24   23 ar
    25   25   20 ar
    26   26    5 1
    27   27   26 ar
    28   28   27 ar
    29   29   28 ar
    30   30   29 ar
    31   31   26 ar
    32   32    7 1
    33   33    8 1
    34   34    9 1
    35   35   10 1
    36   36   12 1
    37   37   12 1
    38   38   13 1
    39   39   13 1
    40   40   13 1
    41   41   15 1
    42   42   16 1
    43   43   17 1
    44   44   18 1
    45   45   19 1
    46   46   21 1
    47   47   22 1
    48   48   23 1
    49   49   24 1
    50   50   25 1
    51   51   27 1
    52   52   28 1
    53   53   29 1
    54   54   30 1
    55   55   31 1
    56   18   19 ar
    57   24   25 ar
    58   30   31 ar
@<TRIPOS>SUBSTRUCTURE
     1 RES1 1

@<TRIPOS>CRYSIN
   9.6700    9.6430   23.8070  90.0000 106.3100  90.0000  14 1

