# MOL2 file generated by ConQuest
# Please check atom types

@<TRIPOS>MOLECULE
FUHTAD
    65    68     1
SMALL
NO_CHARGES
****
Generated from CSD

@<TRIPOS>ATOM
      1 O1        11.8842    7.5508    0.0139 O.2       1 RES1    0.0000
      2 O2        11.1919    6.3697   -1.7422 O.3       1 RES1    0.0000
      3 O3         7.6396    6.6441    0.6019 O.2       1 RES1    0.0000
      4 O4         9.4679    5.3912    0.2682 O.3       1 RES1    0.0000
      5 O5         8.6949    9.5862   -4.1440 O.2       1 RES1    0.0000
      6 O6         5.9408    8.2518   -2.3482 O.2       1 RES1    0.0000
      7 O7         6.2333    9.0481   -0.3596 O.2       1 RES1    0.0000
      8 O8         8.0923    3.0611   -6.1485 O.2       1 RES1    0.0000
      9 O9         6.2551    2.8649   -5.0539 O.2       1 RES1    0.0000
     10 N1         9.3660    8.8863    0.0576 N.pl3     1 RES1    0.0000
     11 N2         6.6325    8.7641   -1.4780 N.pl3     1 RES1    0.0000
     12 N3         7.3319    3.4040   -5.2645 N.pl3     1 RES1    0.0000
     13 C1         8.7736    9.9163   -0.7966 C.3       1 RES1    0.0000
     14 C2         9.5226    7.6001   -0.5860 C.3       1 RES1    0.0000
     15 C3         8.9529    7.8381   -2.0144 C.3       1 RES1    0.0000
     16 C4         8.0718    9.1049   -1.8992 C.3       1 RES1    0.0000
     17 C5        11.0254    7.1864   -0.7013 C.2       1 RES1    0.0000
     18 C6        12.5208    5.8788   -1.9866 C.3       1 RES1    0.0000
     19 C7         8.7397    6.5015    0.1748 C.2       1 RES1    0.0000
     20 C8         8.8108    4.2754    0.9258 C.3       1 RES1    0.0000
     21 C9         7.9203    9.8273   -3.2680 C.2       1 RES1    0.0000
     22 C10        6.8306   10.8413   -3.4269 C.3       1 RES1    0.0000
     23 C11        8.4699    6.6419   -2.8150 C.ar      1 RES1    0.0000
     24 C12        9.1238    6.3633   -4.0149 C.ar      1 RES1    0.0000
     25 C13        8.7854    5.3001   -4.8056 C.ar      1 RES1    0.0000
     26 C14        7.7404    4.5219   -4.3924 C.ar      1 RES1    0.0000
     27 C15        7.0485    4.7416   -3.2203 C.ar      1 RES1    0.0000
     28 C16        7.4294    5.8006   -2.4157 C.ar      1 RES1    0.0000
     29 C17        9.5742    9.1339    1.4204 C.ar      1 RES1    0.0000
     30 C18        9.9539    8.1446    2.3084 C.ar      1 RES1    0.0000
     31 C19       10.1083    8.4286    3.6653 C.ar      1 RES1    0.0000
     32 C20        9.9027    9.7041    4.1480 C.ar      1 RES1    0.0000
     33 C21        9.5551   10.6880    3.2759 C.ar      1 RES1    0.0000
     34 C22        9.3960   10.4393    1.9250 C.ar      1 RES1    0.0000
     35 C23        9.7619   10.9420   -1.3151 C.ar      1 RES1    0.0000
     36 C24       11.1095   10.6676   -1.3906 C.ar      1 RES1    0.0000
     37 C25       11.9688   11.6365   -1.8932 C.ar      1 RES1    0.0000
     38 C26       11.5174   12.8541   -2.2945 C.ar      1 RES1    0.0000
     39 C27       10.1968   13.1317   -2.1753 C.ar      1 RES1    0.0000
     40 C28        9.2894   12.2024   -1.6826 C.ar      1 RES1    0.0000
     41 H1         8.0396   10.3643   -0.3377 H         1 RES1    0.0000
     42 H2         9.6781    8.1886   -2.4832 H         1 RES1    0.0000
     43 H3        13.1465    6.6559   -1.8674 H         1 RES1    0.0000
     44 H4        12.8166    5.3804   -1.3112 H         1 RES1    0.0000
     45 H5        12.4857    5.5626   -2.8806 H         1 RES1    0.0000
     46 H6         9.4916    3.6870    1.0132 H         1 RES1    0.0000
     47 H7         8.5273    4.5873    1.8475 H         1 RES1    0.0000
     48 H8         7.9744    4.0836    0.4172 H         1 RES1    0.0000
     49 H9         7.1567   11.5004   -3.9931 H         1 RES1    0.0000
     50 H10        6.1326   10.3965   -3.8341 H         1 RES1    0.0000
     51 H11        6.4010   11.0931   -2.6422 H         1 RES1    0.0000
     52 H12        9.8312    6.8702   -4.2513 H         1 RES1    0.0000
     53 H13        9.2338    4.9732   -5.8207 H         1 RES1    0.0000
     54 H14        6.3955    4.0728   -2.8806 H         1 RES1    0.0000
     55 H15        6.8315    5.9914   -1.4303 H         1 RES1    0.0000
     56 H16       10.0816    7.2132    1.9866 H         1 RES1    0.0000
     57 H17       10.3854    7.7062    4.3109 H         1 RES1    0.0000
     58 H18       10.0320    9.9142    5.2247 H         1 RES1    0.0000
     59 H19        9.4201   11.5111    3.5759 H         1 RES1    0.0000
     60 H20        9.1264   11.2325    1.2714 H         1 RES1    0.0000
     61 H21       11.4925    9.7319   -1.0926 H         1 RES1    0.0000
     62 H22       13.0613   11.3825   -1.9866 H         1 RES1    0.0000
     63 H23       12.1386   13.5476   -2.6620 H         1 RES1    0.0000
     64 H24        9.9110   13.9548   -2.4236 H         1 RES1    0.0000
     65 H25        8.2417   12.4222   -1.6290 H         1 RES1    0.0000
@<TRIPOS>BOND
     1    1   17 2
     2    2   17 1
     3    3   19 2
     4    4   19 1
     5    5   21 2
     6    6   11 2
     7    7   11 2
     8    8   12 2
     9    9   12 2
    10   10   13 1
    11   11   16 1
    12   12   26 1
    13   13   16 1
    14   14   10 1
    15   15   14 1
    16   16   15 1
    17   17   14 1
    18   18    2 1
    19   19   14 1
    20   20    4 1
    21   21   16 1
    22   22   21 1
    23   23   15 1
    24   24   23 ar
    25   25   24 ar
    26   26   25 ar
    27   27   26 ar
    28   28   23 ar
    29   29   10 1
    30   30   29 ar
    31   31   30 ar
    32   32   31 ar
    33   33   32 ar
    34   34   29 ar
    35   35   13 1
    36   36   35 ar
    37   37   36 ar
    38   38   37 ar
    39   39   38 ar
    40   40   35 ar
    41   41   13 1
    42   42   15 1
    43   43   18 1
    44   44   18 1
    45   45   18 1
    46   46   20 1
    47   47   20 1
    48   48   20 1
    49   49   22 1
    50   50   22 1
    51   51   22 1
    52   52   24 1
    53   53   25 1
    54   54   27 1
    55   55   28 1
    56   56   30 1
    57   57   31 1
    58   58   32 1
    59   59   33 1
    60   60   34 1
    61   61   36 1
    62   62   37 1
    63   63   38 1
    64   64   39 1
    65   65   40 1
    66   27   28 ar
    67   33   34 ar
    68   39   40 ar
@<TRIPOS>SUBSTRUCTURE
     1 RES1 1

@<TRIPOS>CRYSIN
  12.6880   10.7180   20.0510  90.0000  97.7900  90.0000 231 1

