# MOL2 file generated by ConQuest
# Please check atom types

@<TRIPOS>MOLECULE
FUHTEH
   110   116     2
SMALL
NO_CHARGES
****
Generated from CSD

@<TRIPOS>ATOM
      1 O1        -0.1686    6.9663    3.8356 O.2       1 RES1    0.0000
      2 O2        -1.4593    8.7254    3.4858 O.3       1 RES1    0.0000
      3 O3         0.4454    8.1954    9.1038 O.2       1 RES1    0.0000
      4 O4         1.3460    6.3330    8.6085 O.2       1 RES1    0.0000
      5 N1         1.6647    8.7735    5.0712 N.pl3     1 RES1    0.0000
      6 N2         0.8493    7.4170    8.3065 N.pl3     1 RES1    0.0000
      7 C1         0.2596    8.9999    5.0381 C.3       1 RES1    0.0000
      8 C2        -0.2061    8.7370    6.4578 C.3       1 RES1    0.0000
      9 C3         0.7636    7.6452    6.8518 C.3       1 RES1    0.0000
     10 C4         2.1374    8.1517    6.2828 C.3       1 RES1    0.0000
     11 C5        -0.4937    8.0857    4.0492 C.2       1 RES1    0.0000
     12 C6        -2.3967    7.9504    2.6534 C.3       1 RES1    0.0000
     13 C7        -3.5564    7.7097    3.2593 C.3       1 RES1    0.0000
     14 C8        -1.6422    8.4075    6.6971 C.ar      1 RES1    0.0000
     15 C9        -2.1461    7.1382    6.8132 C.ar      1 RES1    0.0000
     16 C10       -3.4262    6.8990    7.0525 C.ar      1 RES1    0.0000
     17 C11       -4.3771    7.8824    7.1262 C.ar      1 RES1    0.0000
     18 C12       -3.9433    9.1423    7.0157 C.ar      1 RES1    0.0000
     19 C13       -2.5972    9.4290    6.8316 C.ar      1 RES1    0.0000
     20 C14        2.9123    9.0075    7.2091 C.ar      1 RES1    0.0000
     21 C15        3.7902    8.4845    8.1077 C.ar      1 RES1    0.0000
     22 C16        4.5682    9.2125    8.9786 C.ar      1 RES1    0.0000
     23 C17        4.3664   10.6162    8.9676 C.ar      1 RES1    0.0000
     24 C18        3.4684   11.1472    8.1298 C.ar      1 RES1    0.0000
     25 C19        2.7547   10.4001    7.2661 C.ar      1 RES1    0.0000
     26 C20        2.4960    9.1615    4.0640 C.ar      1 RES1    0.0000
     27 C21        3.8469    9.1221    4.2205 C.ar      1 RES1    0.0000
     28 C22        4.7149    9.5290    3.2040 C.ar      1 RES1    0.0000
     29 C23        4.2347   10.0899    2.0624 C.ar      1 RES1    0.0000
     30 C24        2.8850   10.0377    1.8966 C.ar      1 RES1    0.0000
     31 C25        2.0109    9.6813    2.8394 C.ar      1 RES1    0.0000
     32 H1         0.1549    9.8773    4.8429 H         1 RES1    0.0000
     33 H2        -0.0092    9.6716    7.0710 H         1 RES1    0.0000
     34 H3         0.5453    6.8834    6.4817 H         1 RES1    0.0000
     35 H4         2.7985    7.5468    6.1871 H         1 RES1    0.0000
     36 H5        -1.8093    7.4858    1.9519 H         1 RES1    0.0000
     37 H6        -2.8735    8.3009    2.0439 H         1 RES1    0.0000
     38 H7        -3.8457    7.7501    2.4306 H         1 RES1    0.0000
     39 H8        -3.4328    7.2996    4.3273 H         1 RES1    0.0000
     40 H9        -3.9296    8.4428    3.8669 H         1 RES1    0.0000
     41 H10       -1.5210    6.4207    6.7763 H         1 RES1    0.0000
     42 H11       -3.7461    6.0706    7.1630 H         1 RES1    0.0000
     43 H12       -5.2649    7.6912    7.2735 H         1 RES1    0.0000
     44 H13       -4.6239    9.8748    7.0894 H         1 RES1    0.0000
     45 H14       -2.2863   10.2322    6.7579 H         1 RES1    0.0000
     46 H15        3.9305    7.5125    8.1942 H         1 RES1    0.0000
     47 H16        5.2497    8.8049    9.6121 H         1 RES1    0.0000
     48 H17        4.8606   11.2064    9.5568 H         1 RES1    0.0000
     49 H18        3.2890   12.2248    8.1574 H         1 RES1    0.0000
     50 H19        2.1237   10.8246    6.6843 H         1 RES1    0.0000
     51 H20        4.2541    8.8051    5.0822 H         1 RES1    0.0000
     52 H21        5.6832    9.4808    3.3698 H         1 RES1    0.0000
     53 H22        4.9124   10.4184    1.3626 H         1 RES1    0.0000
     54 H23        2.4610   10.2765    1.0496 H         1 RES1    0.0000
     55 H24        1.1111    9.7893    2.6700 H         1 RES1    0.0000
     56 O5         2.7227    2.3141    5.3971 O.2       2 RES2    0.0000
     57 O6         3.1151    4.5041    5.6991 O.3       2 RES2    0.0000
     58 O7         1.3537    3.0259    0.1878 O.2       2 RES2    0.0000
     59 O8         1.7225    0.9936    0.6795 O.2       2 RES2    0.0000
     60 N3         0.1565    3.0889    4.2868 N.pl3     2 RES2    0.0000
     61 N4         1.4985    2.1720    1.0128 N.pl3     2 RES2    0.0000
     62 C26        1.3359    3.9472    4.2499 C.3       2 RES2    0.0000
     63 C27        1.8022    3.8892    2.8321 C.3       2 RES2    0.0000
     64 C28        1.4721    2.4564    2.4730 C.3       2 RES2    0.0000
     65 C29        0.0593    2.2733    3.0586 C.3       2 RES2    0.0000
     66 C30        2.4871    3.4759    5.1596 C.2       2 RES2    0.0000
     67 C31        4.3459    4.2212    6.4633 C.3       2 RES2    0.0000
     68 C32        5.4247    4.6323    5.8556 C.3       2 RES2    0.0000
     69 C33        3.1988    4.3303    2.4509 C.ar      2 RES2    0.0000
     70 C34        4.2672    3.4547    2.3570 C.ar      2 RES2    0.0000
     71 C35        5.5785    3.8824    2.0255 C.ar      2 RES2    0.0000
     72 C36        5.7962    5.1453    1.7862 C.ar      2 RES2    0.0000
     73 C37        4.7783    6.0258    1.8414 C.ar      2 RES2    0.0000
     74 C38        3.4508    5.6706    2.2649 C.ar      2 RES2    0.0000
     75 C39       -1.0065    2.6601    2.1176 C.ar      2 RES2    0.0000
     76 C40       -1.5879    3.9764    2.0532 C.ar      2 RES2    0.0000
     77 C41       -2.5257    4.2768    1.1417 C.ar      2 RES2    0.0000
     78 C42       -2.9936    3.3992    0.2026 C.ar      2 RES2    0.0000
     79 C43       -2.4982    2.0849    0.2817 C.ar      2 RES2    0.0000
     80 C44       -1.5656    1.7483    1.2227 C.ar      2 RES2    0.0000
     81 C45       -0.7358    3.0771    5.3308 C.ar      2 RES2    0.0000
     82 C46       -0.3882    3.6854    6.5093 C.ar      2 RES2    0.0000
     83 C47       -1.3128    3.6858    7.4945 C.ar      2 RES2    0.0000
     84 C48       -2.5397    3.0437    7.4208 C.ar      2 RES2    0.0000
     85 C49       -2.7973    2.3880    6.1871 C.ar      2 RES2    0.0000
     86 C50       -1.9917    2.4012    5.1541 C.ar      2 RES2    0.0000
     87 H25        1.1601    4.8198    4.5482 H         2 RES2    0.0000
     88 H26        1.2581    4.4087    2.2097 H         2 RES2    0.0000
     89 H27        2.0825    1.9778    2.7989 H         2 RES2    0.0000
     90 H28       -0.2168    1.4344    3.2409 H         2 RES2    0.0000
     91 H29        3.8191    4.6704    7.1998 H         2 RES2    0.0000
     92 H30        3.9957    3.5615    7.1630 H         2 RES2    0.0000
     93 H31        6.1205    4.4550    6.3344 H         2 RES2    0.0000
     94 H32        5.1389    4.2372    4.6956 H         2 RES2    0.0000
     95 H33        5.9331    5.1136    5.2480 H         2 RES2    0.0000
     96 H34        4.1149    2.5482    2.5595 H         2 RES2    0.0000
     97 H35        6.2560    3.2777    2.0071 H         2 RES2    0.0000
     98 H36        6.6986    5.4197    1.5099 H         2 RES2    0.0000
     99 H37        5.0051    6.8273    1.5284 H         2 RES2    0.0000
    100 H38        2.7767    6.3328    2.3386 H         2 RES2    0.0000
    101 H39       -1.3518    4.5727    2.6884 H         2 RES2    0.0000
    102 H40       -2.9201    5.1725    1.1601 H         2 RES2    0.0000
    103 H41       -3.5594    3.6524   -0.4603 H         2 RES2    0.0000
    104 H42       -2.8830    1.4712   -0.2578 H         2 RES2    0.0000
    105 H43       -1.3147    0.8714    1.2706 H         2 RES2    0.0000
    106 H44        0.6540    4.1809    6.5369 H         2 RES2    0.0000
    107 H45       -0.9894    3.8209    8.3599 H         2 RES2    0.0000
    108 H46       -3.1690    3.0841    8.1021 H         2 RES2    0.0000
    109 H47       -3.6303    1.9214    6.1503 H         2 RES2    0.0000
    110 H48       -2.1547    1.9876    4.3825 H         2 RES2    0.0000
@<TRIPOS>BOND
     1    1   11 2
     2    2   11 1
     3    3    6 2
     4    4    6 2
     5    5    7 1
     6    6    9 1
     7    7    8 1
     8    8    9 1
     9    9   10 1
    10   10    5 1
    11   11    7 1
    12   12    2 1
    13   13   12 1
    14   14    8 1
    15   15   14 ar
    16   16   15 ar
    17   17   16 ar
    18   18   17 ar
    19   19   14 ar
    20   20   10 1
    21   21   20 ar
    22   22   21 ar
    23   23   22 ar
    24   24   23 ar
    25   25   20 ar
    26   26    5 1
    27   27   26 ar
    28   28   27 ar
    29   29   28 ar
    30   30   29 ar
    31   31   26 ar
    32   32    7 1
    33   33    8 1
    34   34    9 1
    35   35   10 1
    36   36   12 1
    37   37   12 1
    38   38   13 1
    39   39   13 1
    40   40   13 1
    41   41   15 1
    42   42   16 1
    43   43   17 1
    44   44   18 1
    45   45   19 1
    46   46   21 1
    47   47   22 1
    48   48   23 1
    49   49   24 1
    50   50   25 1
    51   51   27 1
    52   52   28 1
    53   53   29 1
    54   54   30 1
    55   55   31 1
    56   56   66 2
    57   57   66 1
    58   58   61 2
    59   59   61 2
    60   60   62 1
    61   61   64 1
    62   62   63 1
    63   63   64 1
    64   64   65 1
    65   65   60 1
    66   66   62 1
    67   67   57 1
    68   68   67 1
    69   69   63 1
    70   70   69 ar
    71   71   70 ar
    72   72   71 ar
    73   73   72 ar
    74   74   69 ar
    75   75   65 1
    76   76   75 ar
    77   77   76 ar
    78   78   77 ar
    79   79   78 ar
    80   80   75 ar
    81   81   60 1
    82   82   81 ar
    83   83   82 ar
    84   84   83 ar
    85   85   84 ar
    86   86   81 ar
    87   87   62 1
    88   88   63 1
    89   89   64 1
    90   90   65 1
    91   91   67 1
    92   92   67 1
    93   93   68 1
    94   94   68 1
    95   95   68 1
    96   96   70 1
    97   97   71 1
    98   98   72 1
    99   99   73 1
   100  100   74 1
   101  101   76 1
   102  102   77 1
   103  103   78 1
   104  104   79 1
   105  105   80 1
   106  106   82 1
   107  107   83 1
   108  108   84 1
   109  109   85 1
   110  110   86 1
   111   18   19 ar
   112   24   25 ar
   113   30   31 ar
   114   73   74 ar
   115   79   80 ar
   116   85   86 ar
@<TRIPOS>SUBSTRUCTURE
     1 RES1 1
     2 RES2 56

@<TRIPOS>CRYSIN
  11.9980   10.3810   18.7370  80.8100  97.5200 104.8000   2 1

