# MOL2 file generated by ConQuest
# Please check atom types

@<TRIPOS>MOLECULE
FUJCIX
   118   124     2
SMALL
NO_CHARGES
****
Generated from CSD

@<TRIPOS>ATOM
      1 O1        -0.1189   -1.8835    3.8733 O.3       1 RES1    0.0000
      2 O2         1.5173   -0.8705    2.6832 O.2       1 RES1    0.0000
      3 O3         1.2618   -1.2209   -2.1980 O.2       1 RES1    0.0000
      4 O4        -0.4233   -2.1877   -3.1583 O.2       1 RES1    0.0000
      5 O5        -3.8438   -3.8936    1.7229 O.2       1 RES1    0.0000
      6 O6        -3.9470   -4.0674   -0.4401 O.2       1 RES1    0.0000
      7 O7         2.9126   -2.2696    7.6852 O.3       1 RES1    0.0000
      8 O8         6.8655    3.3137    3.3856 O.3       2 RES2    0.0000
      9 O9         6.9908    5.3370    2.3774 O.2       2 RES2    0.0000
     10 O10        6.6580    5.3795   -2.4829 O.2       2 RES2    0.0000
     11 O11        6.7988    3.5526   -3.6375 O.2       2 RES2    0.0000
     12 O12        7.2464   -0.7232    0.8398 O.2       2 RES2    0.0000
     13 O13        7.1370   -0.6934   -1.3218 O.2       2 RES2    0.0000
     14 O14        9.8601    3.5338    7.1737 O.3       2 RES2    0.0000
     15 N1         0.1982   -1.8365   -2.1698 N.pl3     1 RES1    0.0000
     16 N2        -3.3879   -3.7162    0.5991 N.pl3     1 RES1    0.0000
     17 N3         6.7832    4.1655   -2.5799 N.pl3     2 RES2    0.0000
     18 N4         7.1811   -0.1324   -0.2361 N.pl3     2 RES2    0.0000
     19 C1         0.3424   -1.2617    5.1194 C.3       1 RES1    0.0000
     20 C2         1.4522   -2.1152    5.7216 C.3       1 RES1    0.0000
     21 C3         1.9545   -1.4577    7.0061 C.3       1 RES1    0.0000
     22 C4         0.8048   -1.2565    7.9705 C.3       1 RES1    0.0000
     23 C5        -0.3739   -0.4742    7.3841 C.3       1 RES1    0.0000
     24 C6        -1.5924   -0.6297    8.3091 C.3       1 RES1    0.0000
     25 C7        -2.2926   -1.9120    7.8280 C.3       1 RES1    0.0000
     26 C8        -1.6908   -2.2900    6.4471 C.3       1 RES1    0.0000
     27 C9        -2.7613   -2.7551    5.4513 C.3       1 RES1    0.0000
     28 C10       -3.6729   -1.6301    4.9716 C.3       1 RES1    0.0000
     29 C11       -2.8401   -0.4941    4.3758 C.3       1 RES1    0.0000
     30 C12       -1.8155    0.0223    5.3869 C.3       1 RES1    0.0000
     31 C13       -0.8815   -1.0318    6.0231 C.3       1 RES1    0.0000
     32 C14        0.5176   -1.5415    2.7491 C.2       1 RES1    0.0000
     33 C15       -0.2029   -2.0460    1.5396 C.ar      1 RES1    0.0000
     34 C16        0.3333   -1.7603    0.2834 C.ar      1 RES1    0.0000
     35 C17       -0.3650   -2.1493   -0.8452 C.ar      1 RES1    0.0000
     36 C18       -1.5896   -2.7988   -0.7868 C.ar      1 RES1    0.0000
     37 C19       -2.0804   -3.0540    0.4796 C.ar      1 RES1    0.0000
     38 C20       -1.4214   -2.7121    1.6414 C.ar      1 RES1    0.0000
     39 C21        4.2197   -2.2659    7.1188 C.3       1 RES1    0.0000
     40 C22        5.1011   -3.0938    8.0146 C.3       1 RES1    0.0000
     41 C23        7.0144    3.8954    4.7295 C.3       2 RES2    0.0000
     42 C24        8.3737    3.4487    5.2234 C.3       2 RES2    0.0000
     43 C25        8.6405    4.0130    6.6073 C.3       2 RES2    0.0000
     44 C26        7.5318    3.5942    7.5555 C.3       2 RES2    0.0000
     45 C27        6.1226    3.9675    7.0665 C.3       2 RES2    0.0000
     46 C28        5.0785    3.2132    7.9058 C.3       2 RES2    0.0000
     47 C29        4.9163    1.8534    7.1933 C.3       2 RES2    0.0000
     48 C30        5.5808    1.9759    5.7970 C.3       2 RES2    0.0000
     49 C31        4.7673    1.3001    4.6839 C.3       2 RES2    0.0000
     50 C32        3.4756    2.0444    4.3645 C.3       2 RES2    0.0000
     51 C33        3.7694    3.4883    3.9887 C.3       2 RES2    0.0000
     52 C34        4.5408    4.2122    5.1020 C.3       2 RES2    0.0000
     53 C35        5.8255    3.4989    5.6085 C.3       2 RES2    0.0000
     54 C36        6.9527    4.1307    2.3355 C.2       2 RES2    0.0000
     55 C37        6.9944    3.3626    1.0551 C.ar      2 RES2    0.0000
     56 C38        6.9031    4.0826   -0.1345 C.ar      2 RES2    0.0000
     57 C39        6.9231    3.3958   -1.3320 C.ar      2 RES2    0.0000
     58 C40        7.0279    2.0174   -1.4140 C.ar      2 RES2    0.0000
     59 C41        7.1126    1.3415   -0.2071 C.ar      2 RES2    0.0000
     60 C42        7.0960    1.9731    1.0238 C.ar      2 RES2    0.0000
     61 C43       11.0263    3.8504    6.4066 C.3       2 RES2    0.0000
     62 C44       12.2301    3.6891    7.2936 C.3       2 RES2    0.0000
     63 H1         0.7206   -0.1830    4.9104 H         1 RES1    0.0000
     64 H2         1.1760   -3.1275    5.8914 H         1 RES1    0.0000
     65 H3         2.1801   -2.2332    5.0601 H         1 RES1    0.0000
     66 H4         2.4030   -0.5707    6.7671 H         1 RES1    0.0000
     67 H5         1.1655   -0.8136    8.7844 H         1 RES1    0.0000
     68 H6         0.4473   -2.1483    8.2561 H         1 RES1    0.0000
     69 H7        -0.0399    0.4862    7.3268 H         1 RES1    0.0000
     70 H8        -1.2218   -0.8007    9.2740 H         1 RES1    0.0000
     71 H9        -2.1504    0.1436    8.2431 H         1 RES1    0.0000
     72 H10       -2.1335   -2.6951    8.4260 H         1 RES1    0.0000
     73 H11       -3.2817   -1.7044    7.7443 H         1 RES1    0.0000
     74 H12       -0.9850   -3.0830    6.5749 H         1 RES1    0.0000
     75 H13       -2.3970   -3.0974    4.6315 H         1 RES1    0.0000
     76 H14       -3.2945   -3.5077    5.8748 H         1 RES1    0.0000
     77 H15       -4.3726   -1.9321    4.3008 H         1 RES1    0.0000
     78 H16       -4.2303   -1.2479    5.7436 H         1 RES1    0.0000
     79 H17       -3.4466    0.2272    4.0384 H         1 RES1    0.0000
     80 H18       -2.3620   -0.7667    3.5655 H         1 RES1    0.0000
     81 H19       -2.3385    0.4154    6.1112 H         1 RES1    0.0000
     82 H20       -1.2874    0.7384    4.9529 H         1 RES1    0.0000
     83 H21        1.2594   -1.3183    0.2549 H         1 RES1    0.0000
     84 H22       -2.1304   -3.0166   -1.5906 H         1 RES1    0.0000
     85 H23       -1.8273   -2.9345    2.5254 H         1 RES1    0.0000
     86 H24        4.5330   -1.2923    7.0922 H         1 RES1    0.0000
     87 H25        4.1812   -2.6285    6.2036 H         1 RES1    0.0000
     88 H26        5.1751   -2.7072    8.8805 H         1 RES1    0.0000
     89 H27        4.8189   -4.0495    8.0602 H         1 RES1    0.0000
     90 H28        5.9907   -3.0575    7.6926 H         1 RES1    0.0000
     91 H29        7.0614    4.8315    4.5927 H         2 RES2    0.0000
     92 H30        8.4040    2.4378    5.2522 H         2 RES2    0.0000
     93 H31        9.0237    3.8110    4.5483 H         2 RES2    0.0000
     94 H32        8.7013    4.9837    6.5287 H         2 RES2    0.0000
     95 H33        7.6978    3.9694    8.4464 H         2 RES2    0.0000
     96 H34        7.6082    2.5633    7.6520 H         2 RES2    0.0000
     97 H35        6.0538    4.9525    7.1181 H         2 RES2    0.0000
     98 H36        5.3993    3.1468    8.8657 H         2 RES2    0.0000
     99 H37        4.2005    3.6591    7.8293 H         2 RES2    0.0000
    100 H38        4.0059    1.6262    7.0682 H         2 RES2    0.0000
    101 H39        5.3714    1.1572    7.7480 H         2 RES2    0.0000
    102 H40        6.4376    1.5480    5.8748 H         2 RES2    0.0000
    103 H41        4.6667    0.3206    4.8938 H         2 RES2    0.0000
    104 H42        5.2805    1.2021    3.8555 H         2 RES2    0.0000
    105 H43        2.9296    1.6389    3.6468 H         2 RES2    0.0000
    106 H44        2.8601    2.0076    5.1155 H         2 RES2    0.0000
    107 H45        2.9772    3.9693    3.7779 H         2 RES2    0.0000
    108 H46        4.3076    3.4664    3.1461 H         2 RES2    0.0000
    109 H47        3.9381    4.3984    5.8821 H         2 RES2    0.0000
    110 H48        4.6961    5.2120    4.9067 H         2 RES2    0.0000
    111 H49        6.8221    5.0691   -0.0739 H         2 RES2    0.0000
    112 H50        7.0681    1.5355   -2.2298 H         2 RES2    0.0000
    113 H51        7.1678    1.4569    1.8068 H         2 RES2    0.0000
    114 H52       10.9643    4.7731    6.0410 H         2 RES2    0.0000
    115 H53       11.0933    3.3455    5.6401 H         2 RES2    0.0000
    116 H54       12.2906    2.8070    7.6704 H         2 RES2    0.0000
    117 H55       12.2410    4.2865    8.0916 H         2 RES2    0.0000
    118 H56       13.0306    3.7745    6.8040 H         2 RES2    0.0000
@<TRIPOS>BOND
     1    1   19 1
     2    2   32 2
     3    3   15 2
     4    4   15 2
     5    5   16 2
     6    6   16 2
     7    7   21 1
     8    8   41 1
     9    9   54 2
    10   10   17 2
    11   11   17 2
    12   12   18 2
    13   13   18 2
    14   14   43 1
    15   15   35 1
    16   16   37 1
    17   17   57 1
    18   18   59 1
    19   19   20 1
    20   20   21 1
    21   21   22 1
    22   22   23 1
    23   23   24 1
    24   24   25 1
    25   25   26 1
    26   26   27 1
    27   27   28 1
    28   28   29 1
    29   29   30 1
    30   30   31 1
    31   31   19 1
    32   32    1 1
    33   33   32 1
    34   34   33 ar
    35   35   34 ar
    36   36   35 ar
    37   37   36 ar
    38   38   33 ar
    39   39    7 1
    40   40   39 1
    41   41   42 1
    42   42   43 1
    43   43   44 1
    44   44   45 1
    45   45   46 1
    46   46   47 1
    47   47   48 1
    48   48   49 1
    49   49   50 1
    50   50   51 1
    51   51   52 1
    52   52   53 1
    53   53   41 1
    54   54    8 1
    55   55   54 1
    56   56   55 ar
    57   57   56 ar
    58   58   57 ar
    59   59   58 ar
    60   60   55 ar
    61   61   14 1
    62   62   61 1
    63   63   19 1
    64   64   20 1
    65   65   20 1
    66   66   21 1
    67   67   22 1
    68   68   22 1
    69   69   23 1
    70   70   24 1
    71   71   24 1
    72   72   25 1
    73   73   25 1
    74   74   26 1
    75   75   27 1
    76   76   27 1
    77   77   28 1
    78   78   28 1
    79   79   29 1
    80   80   29 1
    81   81   30 1
    82   82   30 1
    83   83   34 1
    84   84   36 1
    85   85   38 1
    86   86   39 1
    87   87   39 1
    88   88   40 1
    89   89   40 1
    90   90   40 1
    91   91   41 1
    92   92   42 1
    93   93   42 1
    94   94   43 1
    95   95   44 1
    96   96   44 1
    97   97   45 1
    98   98   46 1
    99   99   46 1
   100  100   47 1
   101  101   47 1
   102  102   48 1
   103  103   49 1
   104  104   49 1
   105  105   50 1
   106  106   50 1
   107  107   51 1
   108  108   51 1
   109  109   52 1
   110  110   52 1
   111  111   56 1
   112  112   58 1
   113  113   60 1
   114  114   61 1
   115  115   61 1
   116  116   62 1
   117  117   62 1
   118  118   62 1
   119   23   31 1
   120   26   31 1
   121   37   38 ar
   122   45   53 1
   123   48   53 1
   124   59   60 ar
@<TRIPOS>SUBSTRUCTURE
     1 RES1 1
     2 RES2 8

@<TRIPOS>CRYSIN
  11.2136   11.4312   19.1419  85.8770  75.2020  61.3440   2 1

