# MOL2 file generated by ConQuest
# Please check atom types

@<TRIPOS>MOLECULE
FUJHAU
    79    75     2
SMALL
NO_CHARGES
****
Generated from CSD

@<TRIPOS>ATOM
      1 C1        -1.8072    1.6756   28.6268 C.3       1 RES1    0.0000
      2 C2        -0.7916    2.3933   29.5032 C.3       1 RES1    0.0000
      3 H1         0.0868    1.9475   29.4033 H         1 RES1    0.0000
      4 H2        -1.0676    2.3030   30.4494 H         1 RES1    0.0000
      5 C3        -0.6260    3.8900   29.1775 C.3       1 RES1    0.0000
      6 H3        -1.4985    4.3552   29.3279 H         1 RES1    0.0000
      7 C4        -0.2492    3.9978   27.7020 C.3       1 RES1    0.0000
      8 H4         0.6304    3.5426   27.5593 H         1 RES1    0.0000
      9 C5        -1.2853    3.3750   26.7536 C.3       1 RES1    0.0000
     10 H5        -2.1615    3.8410   26.8745 H         1 RES1    0.0000
     11 C6        -1.4529    1.8716   27.1268 C.3       1 RES1    0.0000
     12 H6        -0.5858    1.4062   26.9468 H         1 RES1    0.0000
     13 C7        -1.8344    0.1887   28.9871 C.ar      1 RES1    0.0000
     14 C8        -0.7747   -0.6530   28.6554 C.ar      1 RES1    0.0000
     15 H7        -0.0297   -0.3063   28.1782 H         1 RES1    0.0000
     16 C9        -0.7985   -1.9913   29.0151 C.ar      1 RES1    0.0000
     17 H8        -0.0712   -2.5553   28.7782 H         1 RES1    0.0000
     18 C10       -1.8650   -2.5114   29.7106 C.ar      1 RES1    0.0000
     19 H9        -1.8830   -3.4330   29.9405 H         1 RES1    0.0000
     20 C11       -2.8987   -1.6921   30.0668 C.ar      1 RES1    0.0000
     21 H10       -3.6272   -2.0443   30.5625 H         1 RES1    0.0000
     22 C12       -2.8972   -0.3484   29.7106 C.ar      1 RES1    0.0000
     23 H11       -3.6255    0.2079   29.9625 H         1 RES1    0.0000
     24 C13        0.4133    4.4915   30.0797 C.2       1 RES1    0.0000
     25 H12        1.2849    4.1139   30.0662 H         1 RES1    0.0000
     26 C14        0.1943    5.5134   30.8927 C.2       1 RES1    0.0000
     27 H13       -0.6493    5.9424   30.8138 H         1 RES1    0.0000
     28 C15        1.1197    6.0582   31.9070 C.ar      1 RES1    0.0000
     29 C16        0.7537    7.2005   32.6185 C.ar      1 RES1    0.0000
     30 H14       -0.0780    7.6200   32.4316 H         1 RES1    0.0000
     31 C17        1.5779    7.7367   33.5939 C.ar      1 RES1    0.0000
     32 H15        1.3162    8.5199   34.0651 H         1 RES1    0.0000
     33 C18        2.7822    7.1251   33.8773 C.ar      1 RES1    0.0000
     34 H16        3.3532    7.4899   34.5426 H         1 RES1    0.0000
     35 C19        3.1603    5.9855   33.1965 C.ar      1 RES1    0.0000
     36 H17        3.9871    5.5630   33.3992 H         1 RES1    0.0000
     37 C20        2.3340    5.4554   32.2161 C.ar      1 RES1    0.0000
     38 H18        2.6013    4.6710   31.7499 H         1 RES1    0.0000
     39 C21       -0.8558    3.5000   25.3217 C.2       1 RES1    0.0000
     40 H19       -0.0160    3.1220   25.0871 H         1 RES1    0.0000
     41 C22       -1.5323    4.0806   24.3711 C.2       1 RES1    0.0000
     42 H20       -2.3237    4.5409   24.6221 H         1 RES1    0.0000
     43 C23       -1.1761    4.0849   22.9387 C.ar      1 RES1    0.0000
     44 C24       -0.5127    2.9601   22.3600 C.ar      1 RES1    0.0000
     45 H21       -0.2552    2.2300   22.9132 H         1 RES1    0.0000
     46 C25       -0.2434    2.9204   21.0086 C.ar      1 RES1    0.0000
     47 H22        0.1811    2.1617   20.6263 H         1 RES1    0.0000
     48 C26       -1.0288    5.1377   20.7595 C.ar      1 RES1    0.0000
     49 H23       -1.1390    5.9138   20.2242 H         1 RES1    0.0000
     50 C27       -1.3164    5.1694   22.1285 C.ar      1 RES1    0.0000
     51 H24       -1.6230    5.9836   22.5080 H         1 RES1    0.0000
     52 C28       -0.5931    3.9870   20.2198 C.ar      1 RES1    0.0000
     53 H25       -0.5260    3.9108   19.2755 H         1 RES1    0.0000
     54 C29       -2.5106    1.2859   26.1944 C.2       1 RES1    0.0000
     55 C30       -2.1266    0.6522   24.9080 C.ar      1 RES1    0.0000
     56 C31       -3.0285    0.7242   23.8506 C.ar      1 RES1    0.0000
     57 H26       -3.8684    1.1491   23.9782 H         1 RES1    0.0000
     58 C32       -2.7184    0.1851   22.6148 C.ar      1 RES1    0.0000
     59 H27       -3.3349    0.2587   21.8954 H         1 RES1    0.0000
     60 C33       -1.5199   -0.4550   22.4298 C.ar      1 RES1    0.0000
     61 H28       -1.3078   -0.8285   21.5813 H         1 RES1    0.0000
     62 C34       -0.6215   -0.5571   23.4715 C.ar      1 RES1    0.0000
     63 H29        0.2009   -1.0142   23.3405 H         1 RES1    0.0000
     64 C35       -0.9106    0.0035   24.7088 C.ar      1 RES1    0.0000
     65 H30       -0.2807   -0.0556   25.4169 H         1 RES1    0.0000
     66 O1        -3.0600    2.2976   28.9114 O.3       1 RES1    0.0000
     67 H31       -3.6149    2.0951   28.3133 H         1 RES1    0.0000
     68 O2        -1.0801    6.1809   27.4682 O.2       1 RES1    0.0000
     69 O3         0.9728    5.8246   26.8946 O.2       1 RES1    0.0000
     70 O4        -3.7057    1.4185   26.4718 O.2       1 RES1    0.0000
     71 N1        -0.1089    5.4518   27.3269 N.pl3     1 RES1    0.0000
     72 C36        0.0038    4.0520   22.4929 Du        2 SUP2    0.0000
     73 C37        0.2980    3.9711   21.1289 Du        2 SUP2    0.0000
     74 C38       -2.0565    4.0013   20.6505 Du        2 SUP2    0.0000
     75 C39       -2.3590    4.0759   22.0069 Du        2 SUP2    0.0000
     76 H32        0.7242    4.0822   23.1111 Du        2 SUP2    0.0000
     77 H33        1.2086    3.8997   20.8682 Du        2 SUP2    0.0000
     78 H34       -2.7504    3.9584   20.0043 Du        2 SUP2    0.0000
     79 H35       -3.2532    4.1187   22.3227 Du        2 SUP2    0.0000
@<TRIPOS>BOND
     1    1    2 1
     2    2    3 1
     3    4    2 1
     4    5    2 1
     5    6    5 1
     6    7    5 1
     7    8    7 1
     8    9    7 1
     9   10    9 1
    10   11    1 1
    11   12   11 1
    12   13    1 1
    13   14   13 ar
    14   15   14 1
    15   16   14 ar
    16   17   16 1
    17   18   16 ar
    18   19   18 1
    19   20   18 ar
    20   21   20 1
    21   22   13 ar
    22   23   22 1
    23   24    5 1
    24   25   24 1
    25   26   24 2
    26   27   26 1
    27   28   26 1
    28   29   28 ar
    29   30   29 1
    30   31   29 ar
    31   32   31 1
    32   33   31 ar
    33   34   33 1
    34   35   33 ar
    35   36   35 1
    36   37   28 ar
    37   38   37 1
    38   39    9 1
    39   40   39 1
    40   41   39 2
    41   42   41 1
    42   43   41 1
    43   44   43 ar
    44   45   44 1
    45   46   44 ar
    46   47   46 1
    47   48   49 1
    48   50   43 ar
    49   51   50 1
    50   52   46 ar
    51   53   52 1
    52   54   11 1
    53   55   54 1
    54   56   55 ar
    55   57   56 1
    56   58   56 ar
    57   59   58 1
    58   60   58 ar
    59   61   60 1
    60   62   60 ar
    61   63   62 1
    62   64   55 ar
    63   65   64 1
    64   66    1 1
    65   67   66 1
    66   68   71 2
    67   69   71 2
    68   70   54 2
    69   71    7 1
    70    9   11 1
    71   20   22 ar
    72   35   37 ar
    73   48   50 ar
    74   48   52 ar
    75   62   64 ar
@<TRIPOS>SUBSTRUCTURE
     1 RES1 1
     2 SUP2 72

@<TRIPOS>CRYSIN
   5.6904   15.8717   31.4292  90.0000  91.7930  90.0000 231 1

