# MOL2 file generated by ConQuest
# Please check atom types

@<TRIPOS>MOLECULE
FUJRUX
    50    52     1
SMALL
NO_CHARGES
****
Generated from CSD

@<TRIPOS>ATOM
      1 N1         9.1928    2.8926    0.8504 N.3       1 RES1    0.0000
      2 C1         8.7937    1.5040    1.1844 C.3       1 RES1    0.0000
      3 C2         7.8412    1.6450    2.3667 C.3       1 RES1    0.0000
      4 C3         7.3485    3.0927    2.2647 C.3       1 RES1    0.0000
      5 O1         7.9885    3.6378    1.0760 O.3       1 RES1    0.0000
      6 C4        10.2895    3.4561    1.5814 C.ar      1 RES1    0.0000
      7 C5        10.1932    4.6414    2.2691 C.ar      1 RES1    0.0000
      8 C6        11.2971    5.1621    2.9220 C.ar      1 RES1    0.0000
      9 C7        12.5066    4.5248    2.8830 C.ar      1 RES1    0.0000
     10 C8        12.6132    3.3612    2.1714 C.ar      1 RES1    0.0000
     11 C9        11.5229    2.8269    1.5185 C.ar      1 RES1    0.0000
     12 C10        8.1709    0.8306   -0.0369 C.3       1 RES1    0.0000
     13 C11        9.0995    0.6896   -1.2235 C.3       1 RES1    0.0000
     14 C12       10.2082   -0.3045   -1.0261 C.3       1 RES1    0.0000
     15 C13        8.5016    1.3683    3.7225 C.3       1 RES1    0.0000
     16 C14        7.5500    1.4531    4.8917 C.3       1 RES1    0.0000
     17 N2         5.9381    3.3564    2.0912 N.3       1 RES1    0.0000
     18 O2         5.3301    2.2865    1.3623 O.3       1 RES1    0.0000
     19 C15        5.2041    3.6521    3.2734 C.ar      1 RES1    0.0000
     20 C16        4.1518    2.8967    3.7160 C.ar      1 RES1    0.0000
     21 C17        3.4828    3.2588    4.8722 C.ar      1 RES1    0.0000
     22 C18        3.8510    4.3451    5.5880 C.ar      1 RES1    0.0000
     23 C19        4.8847    5.1167    5.1390 C.ar      1 RES1    0.0000
     24 C20        5.5512    4.7912    3.9828 C.ar      1 RES1    0.0000
     25 H1         9.5758    1.0422    1.4144 H         1 RES1    0.0000
     26 H2         7.0701    1.0429    2.2604 H         1 RES1    0.0000
     27 H3         7.6317    3.6378    3.0370 H         1 RES1    0.0000
     28 H4         9.3959    5.0781    2.2734 H         1 RES1    0.0000
     29 H5        11.2252    5.9962    3.4014 H         1 RES1    0.0000
     30 H6        13.2949    4.9214    3.3081 H         1 RES1    0.0000
     31 H7        13.4746    2.8757    2.0955 H         1 RES1    0.0000
     32 H8        11.5966    2.0437    1.0065 H         1 RES1    0.0000
     33 H9         7.8433   -0.0800    0.2690 H         1 RES1    0.0000
     34 H10        7.3541    1.3900   -0.2950 H         1 RES1    0.0000
     35 H11        9.4537    1.5921   -1.4686 H         1 RES1    0.0000
     36 H12        8.6508    0.3323   -2.0326 H         1 RES1    0.0000
     37 H13        9.8731   -1.1765   -0.8287 H         1 RES1    0.0000
     38 H14       10.8487    0.0068   -0.2994 H         1 RES1    0.0000
     39 H15       10.6416   -0.3594   -1.9523 H         1 RES1    0.0000
     40 H16        9.2416    2.0064    3.8439 H         1 RES1    0.0000
     41 H17        8.8533    0.5052    3.6878 H         1 RES1    0.0000
     42 H18        6.7351    0.8395    4.7529 H         1 RES1    0.0000
     43 H19        7.1325    2.3726    4.9937 H         1 RES1    0.0000
     44 H20        7.9411    1.2090    5.7052 H         1 RES1    0.0000
     45 H21        5.1384    2.6309    0.6399 H         1 RES1    0.0000
     46 H22        3.9439    2.1468    3.2257 H         1 RES1    0.0000
     47 H23        2.7905    2.6377    5.1585 H         1 RES1    0.0000
     48 H24        3.3962    4.5892    6.4080 H         1 RES1    0.0000
     49 H25        5.1204    5.8863    5.5815 H         1 RES1    0.0000
     50 H26        6.2374    5.3242    3.6162 H         1 RES1    0.0000
@<TRIPOS>BOND
     1    1    2 1
     2    2    3 1
     3    3    4 1
     4    4    5 1
     5    5    1 1
     6    6    1 1
     7    7    6 ar
     8    8    7 ar
     9    9    8 ar
    10   10    9 ar
    11   11    6 ar
    12   12    2 1
    13   13   12 1
    14   14   13 1
    15   15    3 1
    16   16   15 1
    17   17    4 1
    18   18   17 1
    19   19   17 1
    20   20   19 ar
    21   21   20 ar
    22   22   21 ar
    23   23   22 ar
    24   24   19 ar
    25   25    2 1
    26   26    3 1
    27   27    4 1
    28   28    7 1
    29   29    8 1
    30   30    9 1
    31   31   10 1
    32   32   11 1
    33   33   12 1
    34   34   12 1
    35   35   13 1
    36   36   13 1
    37   37   14 1
    38   38   14 1
    39   39   14 1
    40   40   15 1
    41   41   15 1
    42   42   16 1
    43   43   16 1
    44   44   16 1
    45   45   18 1
    46   46   20 1
    47   47   21 1
    48   48   22 1
    49   49   23 1
    50   50   24 1
    51   10   11 ar
    52   23   24 ar
@<TRIPOS>SUBSTRUCTURE
     1 RES1 1

@<TRIPOS>CRYSIN
  12.3500    6.7807   22.0060  90.0000  99.6800  90.0000 231 1

