# MOL2 file generated by ConQuest
# Please check atom types

@<TRIPOS>MOLECULE
FUJRIL
    65    57     2
SMALL
NO_CHARGES
****
Generated from CSD

@<TRIPOS>ATOM
      1 C1       -12.9196    3.4979    6.7866 C.2       1 RES1    0.0000
      2 C2       -12.0116    0.8966   11.0890 C.ar      1 RES1    0.0000
      3 C3       -12.8696    1.9614   11.0712 C.ar      1 RES1    0.0000
      4 C4       -12.8617    2.8217    9.9949 C.ar      1 RES1    0.0000
      5 C5       -14.3524    3.1802    6.9702 C.ar      1 RES1    0.0000
      6 C6       -14.8008    1.8819    6.7273 C.ar      1 RES1    0.0000
      7 C7       -16.1533    1.6113    6.8979 C.ar      1 RES1    0.0000
      8 C8       -17.0580    2.5877    7.2830 C.ar      1 RES1    0.0000
      9 C9       -16.5827    3.8601    7.5235 C.ar      1 RES1    0.0000
     10 C10      -15.2489    4.1819    7.3755 C.ar      1 RES1    0.0000
     11 C11      -13.8528    0.7898    6.2901 C.3       1 RES1    0.0000
     12 C12      -18.5254    2.2639    7.4183 C.3       1 RES1    0.0000
     13 C13      -14.7803    5.5870    7.6482 C.3       1 RES1    0.0000
     14 C14      -10.4011   -0.2571    7.3000 C.3       1 RES1    0.0000
     15 C15      -10.7829    4.0915    7.2807 C.3       1 RES1    0.0000
     16 C16      -10.5059    5.5544    7.5690 C.3       1 RES1    0.0000
     17 C17       -9.0301    5.7302    7.1853 C.3       1 RES1    0.0000
     18 C18       -8.4057    4.3273    7.1709 C.3       1 RES1    0.0000
     19 C19       -9.5025    3.3913    7.6924 C.3       1 RES1    0.0000
     20 C20       -9.4824    1.9814    7.1924 C.2       1 RES1    0.0000
     21 C21      -11.1873    1.4766    8.9120 C.ar      1 RES1    0.0000
     22 C22      -12.0147    2.5978    8.9158 C.ar      1 RES1    0.0000
     23 C23      -11.1755    0.6492   10.0231 C.ar      1 RES1    0.0000
     24 N1       -12.0164    3.5470    7.8394 N.3       1 RES1    0.0000
     25 N2       -12.4176    3.7817    5.6434 N.2       1 RES1    0.0000
     26 N3       -10.3784    1.1324    7.7750 N.am      1 RES1    0.0000
     27 O1        -8.7338    1.5947    6.3011 O.2       1 RES1    0.0000
     28 O2       -10.9933    3.9247    5.8566 O.3       1 RES1    0.0000
     29 H1       -12.0019    0.3061   11.8467 H         1 RES1    0.0000
     30 H2       -13.4582    2.1217   11.8125 H         1 RES1    0.0000
     31 H3       -13.4509    3.5792    9.9768 H         1 RES1    0.0000
     32 H4       -16.4703    0.7170    6.7467 H         1 RES1    0.0000
     33 H5       -17.1942    4.5485    7.7980 H         1 RES1    0.0000
     34 H6       -12.9678    1.1538    6.2178 H         1 RES1    0.0000
     35 H7       -14.1214    0.4334    5.4404 H         1 RES1    0.0000
     36 H8       -13.8586    0.0892    6.9475 H         1 RES1    0.0000
     37 H9       -18.6592    1.3355    7.2124 H         1 RES1    0.0000
     38 H10      -19.0385    2.8034    6.8130 H         1 RES1    0.0000
     39 H11      -18.8089    2.4355    8.3193 H         1 RES1    0.0000
     40 H12      -13.8330    5.6363    7.5016 H         1 RES1    0.0000
     41 H13      -14.9764    5.8219    8.5584 H         1 RES1    0.0000
     42 H14      -15.2272    6.1981    7.0570 H         1 RES1    0.0000
     43 H15      -11.0677   -0.7488    7.7855 H         1 RES1    0.0000
     44 H16       -9.5396   -0.6611    7.4411 H         1 RES1    0.0000
     45 H17      -10.6106   -0.2729    6.3629 H         1 RES1    0.0000
     46 H18      -10.6090    5.7636    8.5001 H         1 RES1    0.0000
     47 H19      -11.0579    6.1415    7.0463 H         1 RES1    0.0000
     48 H20       -8.5667    6.2852    7.8172 H         1 RES1    0.0000
     49 H21       -8.9612    6.1182    6.3092 H         1 RES1    0.0000
     50 H22       -9.4699    3.3507    8.6514 H         1 RES1    0.0000
     51 H23       -8.1578    4.0944    6.2735 H         1 RES1    0.0000
     52 H24       -7.6254    4.3222    7.7305 H         1 RES1    0.0000
     53 H25      -10.5858   -0.1083   10.0477 H         1 RES1    0.0000
     54 H26      -14.4594   -0.1234    6.2728 Du        2 SUP2    0.0000
     55 H27      -13.2490    0.6038    7.0650 Du        2 SUP2    0.0000
     56 H28      -13.3951    1.0914    5.4535 Du        2 SUP2    0.0000
     57 H29      -18.8179    2.0073    6.4970 Du        2 SUP2    0.0000
     58 H30      -19.1628    2.9709    7.7250 Du        2 SUP2    0.0000
     59 H31      -18.5995    1.3693    7.9495 Du        2 SUP2    0.0000
     60 H32      -14.0626    5.6024    8.3444 Du        2 SUP2    0.0000
     61 H33      -14.2367    6.0044    6.9339 Du        2 SUP2    0.0000
     62 H34      -15.5653    6.1650    7.8708 Du        2 SUP2    0.0000
     63 H35      -11.3255   -0.5644    7.0735 Du        2 SUP2    0.0000
     64 H36      -10.2862   -0.5318    8.2547 Du        2 SUP2    0.0000
     65 H37       -9.9018   -0.2353    6.4339 Du        2 SUP2    0.0000
@<TRIPOS>BOND
     1    1    5 1
     2    2    3 ar
     3    3    4 ar
     4    4   22 ar
     5    5    6 ar
     6    6    7 ar
     7    7    8 ar
     8    8    9 ar
     9    9   10 ar
    10   10    5 ar
    11   11    6 1
    12   12    8 1
    13   13   10 1
    14   14   26 1
    15   15   16 1
    16   16   17 1
    17   17   18 1
    18   18   19 1
    19   19   15 1
    20   20   19 1
    21   21   22 ar
    22   22   24 1
    23   23    2 ar
    24   24    1 1
    25   25    1 2
    26   26   20 1
    27   27   20 2
    28   28   15 1
    29   29    2 1
    30   30    3 1
    31   31    4 1
    32   32    7 1
    33   33    9 1
    34   34   11 1
    35   35   11 1
    36   36   11 1
    37   37   12 1
    38   38   12 1
    39   39   12 1
    40   40   13 1
    41   41   13 1
    42   42   13 1
    43   43   14 1
    44   44   14 1
    45   45   14 1
    46   46   16 1
    47   47   16 1
    48   48   17 1
    49   49   17 1
    50   50   19 1
    51   51   18 1
    52   52   18 1
    53   53   23 1
    54   15   24 1
    55   21   23 ar
    56   21   26 1
    57   25   28 1
@<TRIPOS>SUBSTRUCTURE
     1 RES1 1
     2 SUP2 54

@<TRIPOS>CRYSIN
  14.4861   16.8720   17.9161  90.0000 152.6980  90.0000  14 1

