# MOL2 file generated by ConQuest
# Please check atom types

@<TRIPOS>MOLECULE
FUJSOS
    27    27     1
SMALL
NO_CHARGES
****
Generated from CSD

@<TRIPOS>ATOM
      1 N1         2.1451    4.2987    1.2690 N.3       1 RES1    0.0000
      2 C1         3.3264    3.6613    1.7899 C.3       1 RES1    0.0000
      3 C2         3.0755    2.1617    1.9550 C.3       1 RES1    0.0000
      4 N2         1.8034    1.9616    2.6522 N.3       1 RES1    0.0000
      5 C3         0.6188    2.6070    2.0875 C.3       1 RES1    0.0000
      6 C4         0.8820    4.0840    1.9713 C.3       1 RES1    0.0000
      7 N3         2.3342    5.5647    0.7461 N.pl3     1 RES1    0.0000
      8 O1         3.4870    5.9379    0.5555 O.2       1 RES1    0.0000
      9 O2         1.3366    6.2166    0.4780 O.2       1 RES1    0.0000
     10 O3         3.6116    4.2339    3.0772 O.3       1 RES1    0.0000
     11 C5         4.9034    4.6115    3.3015 C.2       1 RES1    0.0000
     12 O4         5.7909    4.3438    2.5554 O.2       1 RES1    0.0000
     13 C6         5.0143    5.3813    4.5746 C.3       1 RES1    0.0000
     14 O5         3.0672    1.6284    0.6574 O.3       1 RES1    0.0000
     15 N4         1.5992    0.6694    3.1150 N.pl3     1 RES1    0.0000
     16 O6         0.4510    0.3005    3.2893 O.2       1 RES1    0.0000
     17 O7         2.5941    0.0029    3.3565 O.2       1 RES1    0.0000
     18 H1         4.1139    3.8126    1.1824 H         1 RES1    0.0000
     19 H2         3.7839    1.7826    2.5177 H         1 RES1    0.0000
     20 H3         0.4503    2.2046    1.2435 H         1 RES1    0.0000
     21 H4        -0.1347    2.4229    2.7215 H         1 RES1    0.0000
     22 H5         0.1697    4.4966    1.4576 H         1 RES1    0.0000
     23 H6         0.9544    4.4529    2.9050 H         1 RES1    0.0000
     24 H7         4.3308    5.1587    5.1576 H         1 RES1    0.0000
     25 H8         5.9269    5.2533    4.9130 H         1 RES1    0.0000
     26 H9         4.9779    6.3010    4.3014 H         1 RES1    0.0000
     27 H10        3.2913    0.7931    0.6727 H         1 RES1    0.0000
@<TRIPOS>BOND
     1    1    2 1
     2    2    3 1
     3    3    4 1
     4    4    5 1
     5    5    6 1
     6    6    1 1
     7    7    1 1
     8    8    7 2
     9    9    7 2
    10   10    2 1
    11   11   10 1
    12   12   11 2
    13   13   11 1
    14   14    3 1
    15   15    4 1
    16   16   15 2
    17   17   15 2
    18   18    2 1
    19   19    3 1
    20   20    5 1
    21   21    5 1
    22   22    6 1
    23   23    6 1
    24   24   13 1
    25   25   13 1
    26   26   13 1
    27   27   14 1
@<TRIPOS>SUBSTRUCTURE
     1 RES1 1

@<TRIPOS>CRYSIN
  13.5880    7.2760   10.8300  90.0000 109.7500  90.0000  14 1

