# MOL2 file generated by ConQuest
# Please check atom types

@<TRIPOS>MOLECULE
FUJTEJ
    38    39     1
SMALL
NO_CHARGES
****
Generated from CSD

@<TRIPOS>ATOM
      1 C1        -0.7188    1.0445   13.3344 C.2       1 RES1    0.0000
      2 C2        -1.0413    0.5930   11.9531 C.3       1 RES1    0.0000
      3 C3        -1.8682   -0.6788   11.9462 C.3       1 RES1    0.0000
      4 C4        -1.2826   -1.7415   12.8497 C.3       1 RES1    0.0000
      5 C5        -1.0565   -1.2300   14.2513 C.2       1 RES1    0.0000
      6 C6        -0.8095    0.0836   14.4245 C.2       1 RES1    0.0000
      7 C7         0.2515    4.3012   12.8388 C.2       1 RES1    0.0000
      8 C8         0.0650    5.2127   11.6730 C.3       1 RES1    0.0000
      9 C9        -1.3151    1.4391   16.2792 C.2       1 RES1    0.0000
     10 C10       -0.6170    2.2048   17.3629 C.3       1 RES1    0.0000
     11 C11       -1.1064   -2.2005   15.3658 C.ar      1 RES1    0.0000
     12 C12       -0.4399   -3.4165   15.2453 C.ar      1 RES1    0.0000
     13 C13       -0.5083   -4.3645   16.2454 C.ar      1 RES1    0.0000
     14 C14       -1.2644   -4.1318   17.3682 C.ar      1 RES1    0.0000
     15 C15       -1.9362   -2.9275   17.4949 C.ar      1 RES1    0.0000
     16 C16       -1.8554   -1.9731   16.5011 C.ar      1 RES1    0.0000
     17 N1        -0.3200    2.2165   13.6952 N.2       1 RES1    0.0000
     18 O1        -0.3094    3.0739   12.5470 O.3       1 RES1    0.0000
     19 O2         0.7958    4.5450   13.8649 O.2       1 RES1    0.0000
     20 O3        -0.4391    0.5687   15.6858 O.3       1 RES1    0.0000
     21 O4        -2.4475    1.5467   15.9360 O.2       1 RES1    0.0000
     22 H1        -0.1755    0.3646   11.4910 H         1 RES1    0.0000
     23 H2        -1.4763    1.3083   11.4575 H         1 RES1    0.0000
     24 H3        -1.9780   -1.0509   10.9609 H         1 RES1    0.0000
     25 H4        -2.7841   -0.4504   12.2844 H         1 RES1    0.0000
     26 H5        -0.3728   -2.0804   12.3869 H         1 RES1    0.0000
     27 H6        -1.8796   -2.6273   12.8411 H         1 RES1    0.0000
     28 H7         0.5462    5.9623   11.8391 H         1 RES1    0.0000
     29 H8        -0.7872    5.5012   11.6448 H         1 RES1    0.0000
     30 H9         0.0056    4.7505   10.7613 H         1 RES1    0.0000
     31 H10       -1.2623    2.6165   17.8471 H         1 RES1    0.0000
     32 H11       -0.1281    1.5656   17.9178 H         1 RES1    0.0000
     33 H12       -0.1837    2.9811   16.8045 H         1 RES1    0.0000
     34 H13        0.0626   -3.5495   14.4614 H         1 RES1    0.0000
     35 H14       -0.0833   -5.2545   16.0800 H         1 RES1    0.0000
     36 H15       -1.2647   -4.8363   18.1068 H         1 RES1    0.0000
     37 H16       -2.4477   -2.7774   18.2888 H         1 RES1    0.0000
     38 H17       -2.3769   -1.0723   16.6048 H         1 RES1    0.0000
@<TRIPOS>BOND
     1    1    2 1
     2    2    3 1
     3    3    4 1
     4    4    5 1
     5    5    6 2
     6    6    1 1
     7    7    8 1
     8    8   28 1
     9    9   10 1
    10   10   31 1
    11   11    5 1
    12   12   11 ar
    13   13   12 ar
    14   14   13 ar
    15   15   14 ar
    16   16   11 ar
    17   17    1 2
    18   18    7 1
    19   19    7 2
    20   20    6 1
    21   21    9 2
    22   22    2 1
    23   23    2 1
    24   24    3 1
    25   25    3 1
    26   26    4 1
    27   27    4 1
    28   29    8 1
    29   30    8 1
    30   32   10 1
    31   33   10 1
    32   34   12 1
    33   35   13 1
    34   36   14 1
    35   37   15 1
    36   38   16 1
    37    9   20 1
    38   15   16 ar
    39   17   18 1
@<TRIPOS>SUBSTRUCTURE
     1 RES1 1

@<TRIPOS>CRYSIN
   7.9709   10.7235   17.9983  90.0000 100.9540  90.0000  14 1

