# MOL2 file generated by ConQuest
# Please check atom types

@<TRIPOS>MOLECULE
FUJTUZ
    36    36     3
SMALL
NO_CHARGES
****
Generated from CSD

@<TRIPOS>ATOM
      1 C1         1.7460    4.7459    5.2502 C.2       1 RES1    0.0000
      2 C2         2.0757    5.4845    6.3588 C.2       1 RES1    0.0000
      3 C3         2.6054    4.5435    7.1397 C.2       1 RES1    0.0000
      4 N1         2.0451    3.4939    5.3203 N.2       1 RES1    0.0000
      5 N2         1.0856    5.2150    4.0417 N.pl3     1 RES1    0.0000
      6 N3         3.0838    4.6149    8.4914 N.pl3     1 RES1    0.0000
      7 O1         2.6116    3.3487    6.5772 O.3       1 RES1    0.0000
      8 O2         0.8562    4.4063    3.1897 O.2       1 RES1    0.0000
      9 O3         0.8541    6.3679    3.9912 O.2       1 RES1    0.0000
     10 O4         3.0714    5.7064    8.9973 O.2       1 RES1    0.0000
     11 O5         3.4548    3.5840    9.0334 O.2       1 RES1    0.0000
     12 H1         1.9775    6.4182    6.5010 H         1 RES1    0.0000
     13 C4         8.0119    6.3492    1.9204 C.2       2 RES2    0.0000
     14 C5         7.2452    5.2423    2.1522 C.2       2 RES2    0.0000
     15 C6         6.2693    5.7448    2.9115 C.2       2 RES2    0.0000
     16 N4         7.5771    7.4238    2.4871 N.2       2 RES2    0.0000
     17 N5         9.2093    6.4549    1.0983 N.pl3     2 RES2    0.0000
     18 N6         5.0702    5.1447    3.4483 N.pl3     2 RES2    0.0000
     19 O6         6.4183    7.0395    3.1372 O.3       2 RES2    0.0000
     20 O7         9.7904    7.5070    1.0993 O.2       2 RES2    0.0000
     21 O8         9.4913    5.4523    0.4688 O.2       2 RES2    0.0000
     22 O9         4.9763    3.9553    3.3082 O.2       2 RES2    0.0000
     23 O10        4.2614    5.8720    3.9902 O.2       2 RES2    0.0000
     24 H2         7.3742    4.3884    1.8648 H         2 RES2    0.0000
     25 C7         1.7299    2.0736    1.0560 C.2       3 RES3    0.0000
     26 C8         3.0115    1.9824    1.5392 C.2       3 RES3    0.0000
     27 C9         2.8102    1.4135    2.6993 C.2       3 RES3    0.0000
     28 N7         0.8318    1.6207    1.8452 N.2       3 RES3    0.0000
     29 N8         1.2705    2.6403   -0.2215 N.pl3     3 RES3    0.0000
     30 N9         3.7441    0.9589    3.7275 N.pl3     3 RES3    0.0000
     31 O11        1.5376    1.1822    2.9414 O.3       3 RES3    0.0000
     32 O12        0.1503    2.4329   -0.5265 O.2       3 RES3    0.0000
     33 O13        2.0869    3.2589   -0.8428 O.2       3 RES3    0.0000
     34 O14        4.9029    1.0253    3.4256 O.2       3 RES3    0.0000
     35 O15        3.2608    0.5608    4.7578 O.2       3 RES3    0.0000
     36 H3         3.7772    2.1932    1.1642 H         3 RES3    0.0000
@<TRIPOS>BOND
     1    1    2 1
     2    2    3 2
     3    3    6 1
     4    4    1 2
     5    5    1 1
     6    6   10 2
     7    7    3 1
     8    8    5 2
     9    9    5 2
    10   11    6 2
    11   12    2 1
    12   13   14 1
    13   14   15 2
    14   15   18 1
    15   16   13 2
    16   17   13 1
    17   18   22 2
    18   19   15 1
    19   20   17 2
    20   21   17 2
    21   23   18 2
    22   24   14 1
    23   25   26 1
    24   26   27 2
    25   27   30 1
    26   28   25 2
    27   29   25 1
    28   30   34 2
    29   31   27 1
    30   32   29 2
    31   33   29 2
    32   35   30 2
    33   36   26 1
    34    4    7 1
    35   16   19 1
    36   28   31 1
@<TRIPOS>SUBSTRUCTURE
     1 RES1 1
     2 RES2 13
     3 RES3 25

@<TRIPOS>CRYSIN
   9.8580   10.3820   11.6750 115.9200 111.3700  60.9100   2 1

