# MOL2 file generated by ConQuest
# Please check atom types

@<TRIPOS>MOLECULE
FUJXEO
    16    15     1
SMALL
NO_CHARGES
****
Generated from CSD

@<TRIPOS>ATOM
      1 N1         0.3958    3.1477    7.8114 N.pl3     1 RES1    0.0000
      2 O1         0.9274    4.1573    7.3215 O.2       1 RES1    0.0000
      3 O2        -0.5127    3.2418    8.6543 O.2       1 RES1    0.0000
      4 C1         0.8740    1.9283    7.3680 C.2       1 RES1    0.0000
      5 C2         1.9603    1.9283    6.3721 C.2       1 RES1    0.0000
      6 N2         1.6179    1.9283    5.1158 N.3       1 RES1    0.0000
      7 H1         0.7860    1.9283    4.8973 H         1 RES1    0.0000
      8 N3         2.5974    1.9283    4.1236 N.3       1 RES1    0.0000
      9 H2         3.4293    1.9283    4.3422 H         1 RES1    0.0000
     10 H3         2.3699    1.9283    3.2947 H         1 RES1    0.0000
     11 N4         3.1905    1.9283    6.7454 N.3       1 RES1    0.0000
     12 H4         3.8176    1.9283    6.1572 H         1 RES1    0.0000
     13 H5         3.3859    1.9283    7.5829 H         1 RES1    0.0000
     14 N1F        0.3958    0.7088    7.8114 N.pl3     1 RES1    0.0000
     15 O1F        0.9274   -0.3008    7.3215 O.2       1 RES1    0.0000
     16 O2F       -0.5127    0.6147    8.6543 O.2       1 RES1    0.0000
@<TRIPOS>BOND
     1    1    2 2
     2    3    1 2
     3    4    1 1
     4    5    4 2
     5    6    5 1
     6    7    6 1
     7    8    6 1
     8    9    8 1
     9   10    8 1
    10   11    5 1
    11   12   11 1
    12   13   11 1
    13   14    4 1
    14   15   14 2
    15   16   14 2
@<TRIPOS>SUBSTRUCTURE
     1 RES1 1

@<TRIPOS>CRYSIN
   6.2830    7.7130   12.2800  90.0000  90.0000  90.0000  62 1

