# MOL2 file generated by ConQuest
# Please check atom types

@<TRIPOS>MOLECULE
FULJEB
    51    52     1
SMALL
NO_CHARGES
****
Generated from CSD

@<TRIPOS>ATOM
      1 N1         2.2730    3.3817    6.8872 N.pl3     1 RES1    0.0000
      2 O1         0.1175    3.4164    8.5294 O.3       1 RES1    0.0000
      3 O2        -1.8323    2.5885    7.8008 O.2       1 RES1    0.0000
      4 O3        -0.7103    5.7828    8.9254 O.3       1 RES1    0.0000
      5 O4         2.5710    0.3579    7.1368 O.3       1 RES1    0.0000
      6 O5        -0.4559    7.9966    8.9927 O.2       1 RES1    0.0000
      7 O6         2.9252    4.4058    6.9707 O.2       1 RES1    0.0000
      8 O7         1.6697    3.0178    5.8993 O.2       1 RES1    0.0000
      9 O8         3.7428   -1.2254    8.2138 O.2       1 RES1    0.0000
     10 C1        -1.1653    3.4957    8.1907 C.2       1 RES1    0.0000
     11 C2         3.1844    1.3493    8.0138 C.3       1 RES1    0.0000
     12 C3        -2.9754    5.0760    9.1394 C.3       1 RES1    0.0000
     13 C4         2.2120    2.5122    8.1445 C.3       1 RES1    0.0000
     14 C5        -1.0617    7.0627    8.5917 C.2       1 RES1    0.0000
     15 C6        -1.7059    4.9025    8.3003 C.3       1 RES1    0.0000
     16 C7        -1.9950    5.6480    6.9616 C.3       1 RES1    0.0000
     17 C8        -0.7675    5.7323    6.0511 C.3       1 RES1    0.0000
     18 C9         0.7695    2.1206    8.3877 C.3       1 RES1    0.0000
     19 C10        0.5970    1.2977    9.6530 C.3       1 RES1    0.0000
     20 C11        2.9553   -0.9240    7.3817 C.2       1 RES1    0.0000
     21 C12       -2.3155    6.9606    7.7314 C.3       1 RES1    0.0000
     22 C13       -3.3999    6.5185    8.7595 C.3       1 RES1    0.0000
     23 C14       -3.1760    5.0799    6.1636 C.3       1 RES1    0.0000
     24 C15       -2.5978    8.2375    6.9355 C.3       1 RES1    0.0000
     25 C16        4.5581    1.7211    7.4732 C.3       1 RES1    0.0000
     26 C17        2.2335   -1.8470    6.4360 C.3       1 RES1    0.0000
     27 H1         3.3531    0.9626    9.0078 H         1 RES1    0.0000
     28 H2        -3.7337    4.3651    8.8490 H         1 RES1    0.0000
     29 H3        -2.7692    4.9729   10.1947 H         1 RES1    0.0000
     30 H4         2.5451    3.0634    9.0118 H         1 RES1    0.0000
     31 H5         0.0704    6.1298    6.6048 H         1 RES1    0.0000
     32 H6        -0.9916    6.3836    5.2200 H         1 RES1    0.0000
     33 H7        -0.5196    4.7478    5.6812 H         1 RES1    0.0000
     34 H8         0.3689    1.4950    7.6028 H         1 RES1    0.0000
     35 H9         1.0733    0.3361    9.5364 H         1 RES1    0.0000
     36 H10       -0.4531    1.1570    9.8620 H         1 RES1    0.0000
     37 H11        1.0587    1.8321   10.4700 H         1 RES1    0.0000
     38 H12       -4.3903    6.5432    8.3284 H         1 RES1    0.0000
     39 H13       -3.3707    7.1549    9.6309 H         1 RES1    0.0000
     40 H14       -4.0324    5.0175    6.8179 H         1 RES1    0.0000
     41 H15       -2.9329    4.0945    5.7938 H         1 RES1    0.0000
     42 H16       -3.4913    5.7303    5.3315 H         1 RES1    0.0000
     43 H17       -3.4908    8.1037    6.3425 H         1 RES1    0.0000
     44 H18       -1.7620    8.4467    6.2852 H         1 RES1    0.0000
     45 H19       -2.7393    9.0624    7.6179 H         1 RES1    0.0000
     46 H20        5.0179    2.4458    8.1284 H         1 RES1    0.0000
     47 H21        4.4530    2.1454    6.4852 H         1 RES1    0.0000
     48 H22        5.1776    0.8387    7.4219 H         1 RES1    0.0000
     49 H23        2.5121   -2.8741    6.6249 H         1 RES1    0.0000
     50 H24        2.4949   -1.5833    5.4230 H         1 RES1    0.0000
     51 H25        1.1680   -1.7320    6.5747 H         1 RES1    0.0000
@<TRIPOS>BOND
     1    1    7 2
     2    2   10 1
     3    3   10 2
     4    4   14 1
     5    5   11 1
     6    6   14 2
     7    8    1 2
     8    9   20 2
     9   10   15 1
    10   11   13 1
    11   12   15 1
    12   13    1 1
    13   14   21 1
    14   15    4 1
    15   16   15 1
    16   17   16 1
    17   18    2 1
    18   19   18 1
    19   20    5 1
    20   21   16 1
    21   22   12 1
    22   23   16 1
    23   24   21 1
    24   25   11 1
    25   26   20 1
    26   27   11 1
    27   28   12 1
    28   29   12 1
    29   30   13 1
    30   31   17 1
    31   32   17 1
    32   33   17 1
    33   34   18 1
    34   35   19 1
    35   36   19 1
    36   37   19 1
    37   38   22 1
    38   39   22 1
    39   40   23 1
    40   41   23 1
    41   42   23 1
    42   43   24 1
    43   44   24 1
    44   45   24 1
    45   46   25 1
    46   47   25 1
    47   48   25 1
    48   49   26 1
    49   50   26 1
    50   51   26 1
    51   13   18 1
    52   21   22 1
@<TRIPOS>SUBSTRUCTURE
     1 RES1 1

@<TRIPOS>CRYSIN
   9.6380    9.9140   10.5400  90.0000 107.5400  90.0000   4 1

