# MOL2 file generated by ConQuest
# Please check atom types

@<TRIPOS>MOLECULE
FULKEE
    64    69     1
SMALL
NO_CHARGES
****
Generated from CSD

@<TRIPOS>ATOM
      1 O1        -3.9528    6.7982    4.5584 O.2       1 RES1    0.0000
      2 O2        -2.3952    4.5553    2.3473 O.3       1 RES1    0.0000
      3 O3        -2.6350    3.0792    4.5388 O.2       1 RES1    0.0000
      4 O4        -0.0969    2.4693    4.4084 O.3       1 RES1    0.0000
      5 N1        -3.3580    5.4489    2.8864 N.am      1 RES1    0.0000
      6 N2        -0.6420    2.9741    5.5914 N.am      1 RES1    0.0000
      7 C1        -1.1801    6.1856    5.6296 C.ar      1 RES1    0.0000
      8 C2        -1.6029    6.3494    4.3153 C.ar      1 RES1    0.0000
      9 C3        -0.6962    6.8064    3.3392 C.ar      1 RES1    0.0000
     10 C4         0.6093    7.0738    3.6547 C.ar      1 RES1    0.0000
     11 C5         1.0770    6.9155    4.9798 C.ar      1 RES1    0.0000
     12 C6         2.4390    7.1352    5.3209 C.ar      1 RES1    0.0000
     13 C7         2.8666    7.0097    6.6028 C.ar      1 RES1    0.0000
     14 C8         1.9504    6.6113    7.6035 C.ar      1 RES1    0.0000
     15 C9         0.6502    6.3589    7.3065 C.ar      1 RES1    0.0000
     16 C10        0.1553    6.4694    5.9922 C.ar      1 RES1    0.0000
     17 C11       -2.1183    5.6017    6.6450 C.ar      1 RES1    0.0000
     18 C12       -2.4672    4.2702    6.5793 C.ar      1 RES1    0.0000
     19 C13       -3.4315    3.7095    7.4732 C.ar      1 RES1    0.0000
     20 C14       -4.0231    4.5049    8.4131 C.ar      1 RES1    0.0000
     21 C15       -3.7206    5.8691    8.5189 C.ar      1 RES1    0.0000
     22 C16       -4.3819    6.7355    9.4353 C.ar      1 RES1    0.0000
     23 C17       -4.1303    8.0574    9.4588 C.ar      1 RES1    0.0000
     24 C18       -3.1793    8.6263    8.5895 C.ar      1 RES1    0.0000
     25 C19       -2.4831    7.8241    7.7074 C.ar      1 RES1    0.0000
     26 C20       -2.7664    6.4476    7.6290 C.ar      1 RES1    0.0000
     27 C21       -3.0515    6.1979    3.9468 C.2       1 RES1    0.0000
     28 C22       -1.9250    3.3807    5.5061 C.2       1 RES1    0.0000
     29 C23       -4.7301    5.1965    2.4620 C.ar      1 RES1    0.0000
     30 C24       -5.3189    6.0847    1.5819 C.ar      1 RES1    0.0000
     31 C25       -6.6160    5.8910    1.1575 C.ar      1 RES1    0.0000
     32 C26       -7.3157    4.7654    1.6309 C.ar      1 RES1    0.0000
     33 C27       -6.7016    3.8732    2.4953 C.ar      1 RES1    0.0000
     34 C28       -5.3890    4.0915    2.9118 C.ar      1 RES1    0.0000
     35 C29        0.2538    3.0410    6.6901 C.ar      1 RES1    0.0000
     36 C30        1.6201    3.2088    6.4107 C.ar      1 RES1    0.0000
     37 C31        2.5292    3.1979    7.4800 C.ar      1 RES1    0.0000
     38 C32        2.0775    3.0478    8.7747 C.ar      1 RES1    0.0000
     39 C33        0.7595    2.8773    9.0384 C.ar      1 RES1    0.0000
     40 C34       -0.1693    2.8159    7.9877 C.ar      1 RES1    0.0000
     41 H1        -0.9963    6.9305    2.4463 H         1 RES1    0.0000
     42 H2         1.2064    7.3685    2.9765 H         1 RES1    0.0000
     43 H3         3.0587    7.3726    4.6417 H         1 RES1    0.0000
     44 H4         3.7733    7.1898    6.8253 H         1 RES1    0.0000
     45 H5         2.2504    6.5172    8.4993 H         1 RES1    0.0000
     46 H6         0.0594    6.1011    8.0034 H         1 RES1    0.0000
     47 H7        -3.6594    2.7886    7.4134 H         1 RES1    0.0000
     48 H8        -4.6564    4.1242    9.0109 H         1 RES1    0.0000
     49 H9        -5.0147    6.3726   10.0439 H         1 RES1    0.0000
     50 H10       -4.6003    8.6141   10.0694 H         1 RES1    0.0000
     51 H11       -3.0176    9.5622    8.6091 H         1 RES1    0.0000
     52 H12       -1.8107    8.2007    7.1527 H         1 RES1    0.0000
     53 H13       -4.8259    6.8337    1.2673 H         1 RES1    0.0000
     54 H14       -7.0289    6.5035    0.5586 H         1 RES1    0.0000
     55 H15       -8.2126    4.6154    1.3555 H         1 RES1    0.0000
     56 H16       -7.1768    3.1119    2.8060 H         1 RES1    0.0000
     57 H17       -4.9609    3.4789    3.4989 H         1 RES1    0.0000
     58 H18        1.9222    3.3288    5.5179 H         1 RES1    0.0000
     59 H19        3.4593    3.2920    7.3114 H         1 RES1    0.0000
     60 H20        2.6994    3.0655    9.4921 H         1 RES1    0.0000
     61 H21        0.4629    2.7981    9.9371 H         1 RES1    0.0000
     62 H22       -1.0820    2.6221    8.1661 H         1 RES1    0.0000
     63 H23       -2.4481    3.9155    3.1951 H         1 RES1    0.0000
     64 H24       -0.1398    1.6099    4.4398 H         1 RES1    0.0000
@<TRIPOS>BOND
     1    1   27 2
     2    2    5 1
     3    3   28 2
     4    4    6 1
     5    5   27 1
     6    6   28 1
     7    7    8 ar
     8    8    9 ar
     9    9   10 ar
    10   10   11 ar
    11   11   12 ar
    12   12   13 ar
    13   13   14 ar
    14   14   15 ar
    15   15   16 ar
    16   16    7 ar
    17   17    7 1
    18   18   17 ar
    19   19   18 ar
    20   20   19 ar
    21   21   20 ar
    22   22   21 ar
    23   23   22 ar
    24   24   23 ar
    25   25   24 ar
    26   26   17 ar
    27   27    8 1
    28   28   18 1
    29   29    5 1
    30   30   29 ar
    31   31   30 ar
    32   32   31 ar
    33   33   32 ar
    34   34   29 ar
    35   35    6 1
    36   36   35 ar
    37   37   36 ar
    38   38   37 ar
    39   39   38 ar
    40   40   35 ar
    41   41    9 1
    42   42   10 1
    43   43   12 1
    44   44   13 1
    45   45   14 1
    46   46   15 1
    47   47   19 1
    48   48   20 1
    49   49   22 1
    50   50   23 1
    51   51   24 1
    52   52   25 1
    53   53   30 1
    54   54   31 1
    55   55   32 1
    56   56   33 1
    57   57   34 1
    58   58   36 1
    59   59   37 1
    60   60   38 1
    61   61   39 1
    62   62   40 1
    63   63    2 1
    64   64    4 1
    65   11   16 ar
    66   21   26 ar
    67   25   26 ar
    68   33   34 ar
    69   39   40 ar
@<TRIPOS>SUBSTRUCTURE
     1 RES1 1

@<TRIPOS>CRYSIN
   9.6199   13.6428   10.5086  90.0000 111.1480  90.0000   4 1

