# MOL2 file generated by ConQuest
# Please check atom types

@<TRIPOS>MOLECULE
FULPEH02
    52    53     1
SMALL
NO_CHARGES
****
Generated from CSD

@<TRIPOS>ATOM
      1 N1         9.6185    6.6823    4.0027 N.pl3     1 RES1    0.0000
      2 N2         7.9612    5.5155   11.0366 N.pl3     1 RES1    0.0000
      3 H1         7.6105    5.9491   11.6922 H         1 RES1    0.0000
      4 C1         8.8278    6.6418    5.2399 C.ar      1 RES1    0.0000
      5 C2         9.1519    5.7008    6.1988 C.ar      1 RES1    0.0000
      6 H2         9.8317    5.0860    6.0411 H         1 RES1    0.0000
      7 C3         8.4572    5.6804    7.3996 C.ar      1 RES1    0.0000
      8 C4         7.4311    6.6094    7.5657 C.ar      1 RES1    0.0000
      9 H3         6.9446    6.6131    8.3584 H         1 RES1    0.0000
     10 C5         7.1225    7.5196    6.5830 C.ar      1 RES1    0.0000
     11 H4         6.4330    8.1269    6.7247 H         1 RES1    0.0000
     12 C6         7.8122    7.5511    5.3964 C.ar      1 RES1    0.0000
     13 H5         7.5995    8.1618    4.7270 H         1 RES1    0.0000
     14 C7         8.8378    4.6936    8.5035 C.3       1 RES1    0.0000
     15 H6         9.3300    3.9556    8.0881 H         1 RES1    0.0000
     16 C8         7.5998    4.1073    9.1799 C.2       1 RES1    0.0000
     17 C9         7.1705    4.5858   10.3726 C.2       1 RES1    0.0000
     18 C10        9.2708    5.7866   10.7103 C.2       1 RES1    0.0000
     19 C11        9.7594    5.3474    9.5281 C.2       1 RES1    0.0000
     20 C12        5.9222    4.2494   11.1205 C.3       1 RES1    0.0000
     21 H7         5.4191    3.5987   10.6264 H         1 RES1    0.0000
     22 H8         5.3944    5.0428   11.2347 H         1 RES1    0.0000
     23 H9         6.1522    3.8908   11.9807 H         1 RES1    0.0000
     24 C13       10.0038    6.5284   11.7910 C.3       1 RES1    0.0000
     25 H10       10.9109    6.6811   11.5167 H         1 RES1    0.0000
     26 H11        9.9960    6.0089   12.5981 H         1 RES1    0.0000
     27 H12        9.5715    7.3717   11.9495 H         1 RES1    0.0000
     28 C14        6.9651    3.0383    8.4247 C.2       1 RES1    0.0000
     29 C15        5.2098    1.4360    8.2688 C.3       1 RES1    0.0000
     30 H13        5.7591    0.6357    8.2896 H         1 RES1    0.0000
     31 H14        5.0691    1.6881    7.3434 H         1 RES1    0.0000
     32 C16        3.9070    1.1797    8.9342 C.3       1 RES1    0.0000
     33 H15        3.3826    2.0068    8.9212 H         1 RES1    0.0000
     34 C17        4.0715    0.7420   10.3613 C.3       1 RES1    0.0000
     35 H16        4.5393    1.4209   10.8526 H         1 RES1    0.0000
     36 H17        4.5722   -0.0764   10.3899 H         1 RES1    0.0000
     37 H18        3.2067    0.6025   10.7551 H         1 RES1    0.0000
     38 C18       11.1661    5.5039    9.1864 C.2       1 RES1    0.0000
     39 C19        3.1530    0.1179    8.1505 C.3       1 RES1    0.0000
     40 H19        3.0406    0.4117    7.2433 H         1 RES1    0.0000
     41 H20        2.2927   -0.0232    8.5508 H         1 RES1    0.0000
     42 H21        3.6514   -0.7021    8.1622 H         1 RES1    0.0000
     43 C20       12.8491    5.0677    7.5305 C.3       1 RES1    0.0000
     44 H22       12.9366    4.6013    6.6961 H         1 RES1    0.0000
     45 H23       13.4618    4.6975    8.1700 H         1 RES1    0.0000
     46 H24       13.0490    5.9973    7.3980 H         1 RES1    0.0000
     47 O1         9.2464    7.4203    3.0968 O.2       1 RES1    0.0000
     48 O2        10.5889    5.9651    3.9325 O.2       1 RES1    0.0000
     49 O3         7.3807    2.6235    7.3620 O.2       1 RES1    0.0000
     50 O4         5.8714    2.5181    8.9902 O.3       1 RES1    0.0000
     51 O5        12.0023    6.1151    9.8206 O.2       1 RES1    0.0000
     52 O6        11.4839    4.9291    8.0253 O.3       1 RES1    0.0000
@<TRIPOS>BOND
     1    1    4 1
     2    2    3 1
     3    4    5 ar
     4    5    6 1
     5    7    5 ar
     6    8    7 ar
     7    9    8 1
     8   10    8 ar
     9   11   10 1
    10   12    4 ar
    11   13   12 1
    12   14    7 1
    13   15   14 1
    14   16   14 1
    15   17    2 1
    16   18    2 1
    17   19   14 1
    18   20   17 1
    19   21   20 1
    20   22   20 1
    21   23   20 1
    22   24   18 1
    23   25   24 1
    24   26   24 1
    25   27   24 1
    26   28   16 1
    27   29   30 1
    28   31   29 1
    29   32   29 1
    30   33   32 1
    31   34   32 1
    32   35   34 1
    33   36   34 1
    34   37   34 1
    35   38   19 1
    36   39   32 1
    37   40   39 1
    38   41   39 1
    39   42   39 1
    40   43   44 1
    41   45   43 1
    42   46   43 1
    43   47    1 2
    44   48    1 2
    45   49   28 2
    46   50   28 1
    47   51   38 2
    48   52   38 1
    49   10   12 ar
    50   16   17 2
    51   18   19 2
    52   29   50 1
    53   43   52 1
@<TRIPOS>SUBSTRUCTURE
     1 RES1 1

@<TRIPOS>CRYSIN
   9.3045   16.5991   13.0018  90.0000  91.5390  90.0000  14 1

