# MOL2 file generated by ConQuest
# Please check atom types

@<TRIPOS>MOLECULE
FULPEH01
    52    53     1
SMALL
NO_CHARGES
****
Generated from CSD

@<TRIPOS>ATOM
      1 C1         1.0130   11.8000   10.3137 C.ar      1 RES1    0.0000
      2 C2         1.2013   11.0443    9.1648 C.ar      1 RES1    0.0000
      3 H1         0.5005   10.9206    8.5674 H         1 RES1    0.0000
      4 C3         2.4307   10.4802    8.9172 C.ar      1 RES1    0.0000
      5 C4         3.4522   10.7033    9.8459 C.ar      1 RES1    0.0000
      6 H2         4.2940   10.3387    9.6934 H         1 RES1    0.0000
      7 C5         3.2358   11.4549   10.9845 C.ar      1 RES1    0.0000
      8 H3         3.9329   11.5897   11.5842 H         1 RES1    0.0000
      9 C6         2.0060   12.0027   11.2425 C.ar      1 RES1    0.0000
     10 H4         1.8487   12.4927   12.0164 H         1 RES1    0.0000
     11 C7         2.6837    9.6348    7.6697 C.3       1 RES1    0.0000
     12 H5         1.8581    9.6244    7.1422 H         1 RES1    0.0000
     13 C8         3.0158    8.2097    8.0354 C.2       1 RES1    0.0000
     14 C9         4.3146    7.8102    8.1317 C.2       1 RES1    0.0000
     15 C10        5.0512    9.7839    6.8900 C.2       1 RES1    0.0000
     16 C11        3.7745   10.2537    6.8131 C.2       1 RES1    0.0000
     17 C12        4.8595    6.5242    8.6764 C.3       1 RES1    0.0000
     18 H6         4.1348    5.9689    8.9722 H         1 RES1    0.0000
     19 H7         5.4427    6.7119    9.4159 H         1 RES1    0.0000
     20 H8         5.3511    6.0688    7.9884 H         1 RES1    0.0000
     21 C13        6.2735   10.3139    6.2100 C.3       1 RES1    0.0000
     22 H9         6.0391   11.0807    5.6814 H         1 RES1    0.0000
     23 H10        6.6444    9.6345    5.6425 H         1 RES1    0.0000
     24 H11        6.9219   10.5679    6.8716 H         1 RES1    0.0000
     25 C14        1.8508    7.3645    8.3301 C.2       1 RES1    0.0000
     26 C15        0.9610    5.2750    8.9997 C.3       1 RES1    0.0000
     27 H12        0.3829    5.1880    8.2258 H         1 RES1    0.0000
     28 H13        0.4526    5.6921    9.7141 H         1 RES1    0.0000
     29 C16        1.4323    3.9164    9.4377 C.3       1 RES1    0.0000
     30 H14        0.6328    3.4122    9.6969 H         1 RES1    0.0000
     31 C17        2.0765    3.1511    8.3129 C.3       1 RES1    0.0000
     32 H15        1.4856    3.1362    7.5573 H         1 RES1    0.0000
     33 H16        2.2549    2.2522    8.5984 H         1 RES1    0.0000
     34 H17        2.9006    3.5786    8.0664 H         1 RES1    0.0000
     35 C18        2.3205    3.9837   10.6646 C.3       1 RES1    0.0000
     36 H18        1.8722    4.4755   11.3583 H         1 RES1    0.0000
     37 H19        3.1430    4.4261   10.4410 H         1 RES1    0.0000
     38 H20        2.5087    3.0952   10.9730 H         1 RES1    0.0000
     39 C19        3.3096   11.3660    5.9922 C.2       1 RES1    0.0000
     40 C20        3.8130   13.1841    4.5727 C.3       1 RES1    0.0000
     41 H21        4.5714   13.6290    4.1863 H         1 RES1    0.0000
     42 H22        3.3234   13.8047    5.1185 H         1 RES1    0.0000
     43 H23        3.2435   12.8551    3.8744 H         1 RES1    0.0000
     44 N1        -0.3047   12.3938   10.5476 N.pl3     1 RES1    0.0000
     45 N2         5.3008    8.6774    7.6718 N.pl3     1 RES1    0.0000
     46 H24        6.1158    8.5132    7.8898 H         1 RES1    0.0000
     47 O1        -0.4809   13.0586   11.5440 O.2       1 RES1    0.0000
     48 O2        -1.1813   12.1950    9.7244 O.2       1 RES1    0.0000
     49 O3         0.7065    7.7961    8.2569 O.2       1 RES1    0.0000
     50 O4         2.1082    6.1021    8.6669 O.3       1 RES1    0.0000
     51 O5         4.2636   12.0846    5.3832 O.3       1 RES1    0.0000
     52 O6         2.1370   11.6451    5.8649 O.2       1 RES1    0.0000
@<TRIPOS>BOND
     1    1    2 ar
     2    2    3 1
     3    4    2 ar
     4    5    4 ar
     5    6    5 1
     6    7    5 ar
     7    8    7 1
     8    9    1 ar
     9   10    9 1
    10   11    4 1
    11   12   11 1
    12   13   11 1
    13   14   13 2
    14   15   16 2
    15   16   11 1
    16   17   14 1
    17   18   17 1
    18   19   17 1
    19   20   17 1
    20   21   15 1
    21   22   21 1
    22   23   21 1
    23   24   21 1
    24   25   13 1
    25   26   27 1
    26   28   26 1
    27   29   26 1
    28   30   29 1
    29   31   29 1
    30   32   31 1
    31   33   31 1
    32   34   31 1
    33   35   29 1
    34   36   35 1
    35   37   35 1
    36   38   35 1
    37   39   16 1
    38   40   41 1
    39   42   40 1
    40   43   40 1
    41   44    1 1
    42   45   14 1
    43   46   45 1
    44   47   44 2
    45   48   44 2
    46   49   25 2
    47   50   25 1
    48   51   39 1
    49   52   39 2
    50    7    9 ar
    51   15   45 1
    52   26   50 1
    53   40   51 1
@<TRIPOS>SUBSTRUCTURE
     1 RES1 1

@<TRIPOS>CRYSIN
   7.4965   11.4692   12.3648  68.0930  88.6550  81.8530   2 1

