# MOL2 file generated by ConQuest
# Please check atom types

@<TRIPOS>MOLECULE
FULPEH
    52    53     1
SMALL
NO_CHARGES
****
Generated from CSD

@<TRIPOS>ATOM
      1 O1         2.9426   13.6481    0.8934 O.2       1 RES1    0.0000
      2 O2         1.3842   13.6593    2.5071 O.3       1 RES1    0.0000
      3 O3         7.6038   10.1542    3.3274 O.2       1 RES1    0.0000
      4 O4         7.0831   11.3868    1.5484 O.3       1 RES1    0.0000
      5 O5         6.3499   10.2361   -2.4904 O.2       1 RES1    0.0000
      6 O6         4.9672    8.8141   -3.3864 O.2       1 RES1    0.0000
      7 N1         3.5163   10.6854    4.5207 N.3       1 RES1    0.0000
      8 N2         5.3338    9.5540   -2.4674 N.pl3     1 RES1    0.0000
      9 C1         2.7275   11.6163    3.8709 C.2       1 RES1    0.0000
     10 C2         3.1632   12.1106    2.6904 C.2       1 RES1    0.0000
     11 C3         4.4134   11.5489    2.0098 C.3       1 RES1    0.0000
     12 C4         5.3379   10.8989    3.0339 C.2       1 RES1    0.0000
     13 C5         4.8448   10.4543    4.2118 C.2       1 RES1    0.0000
     14 C6         4.0549   10.5667    0.8934 C.ar      1 RES1    0.0000
     15 C7         3.0020    9.6711    1.0408 C.ar      1 RES1    0.0000
     16 C8         2.6827    8.7547    0.0154 C.ar      1 RES1    0.0000
     17 C9         3.4309    8.7258   -1.1446 C.ar      1 RES1    0.0000
     18 C10        4.4779    9.6021   -1.2638 C.ar      1 RES1    0.0000
     19 C11        4.8001   10.5281   -0.2833 C.ar      1 RES1    0.0000
     20 C12        1.4583   11.9421    4.6156 C.3       1 RES1    0.0000
     21 C13        2.5148   13.1939    1.9431 C.2       1 RES1    0.0000
     22 C14        0.6987   14.7314    1.7893 C.3       1 RES1    0.0000
     23 C15       -0.6434   14.9416    2.4545 C.3       1 RES1    0.0000
     24 C16       -0.4711   15.3477    3.9247 C.3       1 RES1    0.0000
     25 C17       -1.4041   16.0217    1.6676 C.3       1 RES1    0.0000
     26 C18        6.7658   10.7625    2.6994 C.2       1 RES1    0.0000
     27 C19        8.4545   11.2423    1.0651 C.3       1 RES1    0.0000
     28 C20        5.5900    9.7177    5.2949 C.3       1 RES1    0.0000
     29 H1         3.2893   10.5121    5.2680 H         1 RES1    0.0000
     30 H2         4.8345   12.2935    1.6406 H         1 RES1    0.0000
     31 H3         2.4539    9.6615    1.8714 H         1 RES1    0.0000
     32 H4         1.8719    8.1850    0.1538 H         1 RES1    0.0000
     33 H5         3.2231    8.0887   -1.9226 H         1 RES1    0.0000
     34 H6         5.5029   11.1380   -0.3717 H         1 RES1    0.0000
     35 H7         1.3254   11.4108    5.4731 H         1 RES1    0.0000
     36 H8         0.6472   11.8442    3.9991 H         1 RES1    0.0000
     37 H9         1.4965   12.9034    5.0373 H         1 RES1    0.0000
     38 H10        0.6227   14.4120    0.8331 H         1 RES1    0.0000
     39 H11        1.3392   15.5996    1.8842 H         1 RES1    0.0000
     40 H12       -1.3293   14.0268    2.4225 H         1 RES1    0.0000
     41 H13        0.1333   14.5725    4.4989 H         1 RES1    0.0000
     42 H14       -1.3220   15.5836    4.3195 H         1 RES1    0.0000
     43 H15        0.1509   16.1934    3.9093 H         1 RES1    0.0000
     44 H16       -1.4540   15.7441    0.6152 H         1 RES1    0.0000
     45 H17       -0.8555   16.9959    1.7688 H         1 RES1    0.0000
     46 H18       -2.2499   16.1613    2.1149 H         1 RES1    0.0000
     47 H19        8.5557   11.8442    0.1794 H         1 RES1    0.0000
     48 H20        8.7115   10.3516    0.6921 H         1 RES1    0.0000
     49 H21        8.9400   11.5071    1.8842 H         1 RES1    0.0000
     50 H22        5.1743    9.7738    6.1652 H         1 RES1    0.0000
     51 H23        6.4713   10.2072    5.4731 H         1 RES1    0.0000
     52 H24        5.6474    8.9232    5.1142 H         1 RES1    0.0000
@<TRIPOS>BOND
     1    1   21 2
     2    2   21 1
     3    3   26 2
     4    4   26 1
     5    5    8 2
     6    6    8 2
     7    7    9 1
     8    8   18 1
     9    9   10 2
    10   10   11 1
    11   11   12 1
    12   12   13 2
    13   13    7 1
    14   14   11 1
    15   15   14 ar
    16   16   15 ar
    17   17   16 ar
    18   18   17 ar
    19   19   14 ar
    20   20    9 1
    21   21   10 1
    22   22    2 1
    23   23   22 1
    24   24   23 1
    25   25   23 1
    26   26   12 1
    27   27    4 1
    28   28   13 1
    29   29    7 1
    30   30   11 1
    31   31   15 1
    32   32   16 1
    33   33   17 1
    34   34   19 1
    35   35   20 1
    36   36   20 1
    37   37   20 1
    38   38   22 1
    39   39   22 1
    40   40   23 1
    41   41   24 1
    42   42   24 1
    43   43   24 1
    44   44   25 1
    45   45   25 1
    46   46   25 1
    47   47   27 1
    48   48   27 1
    49   49   27 1
    50   50   28 1
    51   51   28 1
    52   52   28 1
    53   18   19 ar
@<TRIPOS>SUBSTRUCTURE
     1 RES1 1

@<TRIPOS>CRYSIN
   9.4420   16.0490   12.8310  90.0000  92.6300  90.0000  14 1

