# MOL2 file generated by ConQuest
# Please check atom types

@<TRIPOS>MOLECULE
FULPAD
    52    53     1
SMALL
NO_CHARGES
****
Generated from CSD

@<TRIPOS>ATOM
      1 O1        -3.4024    4.6343    9.9322 O.2       1 RES1    0.0000
      2 O2        -1.4843    5.5686   10.6091 O.3       1 RES1    0.0000
      3 O3        -3.7090   -0.7403   13.3027 O.2       1 RES1    0.0000
      4 O4        -4.8871    0.4429   11.7905 O.3       1 RES1    0.0000
      5 O5        -5.6261    2.6200    9.8355 O.2       1 RES1    0.0000
      6 O6        -7.4750    1.9924   10.7675 O.2       1 RES1    0.0000
      7 N1        -1.3328    2.7827   13.7385 N.3       1 RES1    0.0000
      8 N2        -6.3873    2.6043   10.7862 N.pl3     1 RES1    0.0000
      9 C1        -1.3724    3.7562   12.7645 C.2       1 RES1    0.0000
     10 C2        -2.3615    3.7375   11.8347 C.2       1 RES1    0.0000
     11 C3        -3.5066    2.7248   11.9384 C.3       1 RES1    0.0000
     12 C4        -3.1025    1.5401   12.8111 C.2       1 RES1    0.0000
     13 C5        -2.0997    1.6402   13.7035 C.2       1 RES1    0.0000
     14 C6        -4.7553    3.3963   12.5384 C.ar      1 RES1    0.0000
     15 C7        -4.6290    4.0599   13.7536 C.ar      1 RES1    0.0000
     16 C8        -5.7051    4.6421   14.4072 C.ar      1 RES1    0.0000
     17 C9        -6.9712    4.5920   13.8457 C.ar      1 RES1    0.0000
     18 C10       -7.1528    3.9237   12.6654 C.ar      1 RES1    0.0000
     19 C11       -6.0625    3.3337   12.0258 C.ar      1 RES1    0.0000
     20 C12       -0.2202    4.7360   12.8670 C.3       1 RES1    0.0000
     21 C13       -2.4736    4.6577   10.7256 C.2       1 RES1    0.0000
     22 C14       -1.5996    6.5077    9.5046 C.3       1 RES1    0.0000
     23 C15       -0.5590    7.5907    9.7062 C.3       1 RES1    0.0000
     24 C16       -0.8536    8.4030   10.9563 C.3       1 RES1    0.0000
     25 C17        0.8488    7.0257    9.7120 C.3       1 RES1    0.0000
     26 C18       -3.8804    0.2958   12.6946 C.2       1 RES1    0.0000
     27 C19       -5.7839   -0.6839   11.6600 C.3       1 RES1    0.0000
     28 C20       -1.6755    0.5963   14.6996 C.3       1 RES1    0.0000
     29 H1        -0.6791    2.8485   14.3420 H         1 RES1    0.0000
     30 H2        -3.6836    2.4416   11.0099 H         1 RES1    0.0000
     31 H3        -3.7066    4.1162   14.2255 H         1 RES1    0.0000
     32 H4        -5.5442    5.0396   15.2624 H         1 RES1    0.0000
     33 H5        -7.7416    5.0396   14.2255 H         1 RES1    0.0000
     34 H6        -8.0095    3.8658   12.1749 H         1 RES1    0.0000
     35 H7         0.2990    4.5857   13.6779 H         1 RES1    0.0000
     36 H8        -0.6098    5.6813   12.8623 H         1 RES1    0.0000
     37 H9         0.3152    4.7266   12.0002 H         1 RES1    0.0000
     38 H10       -2.5733    6.8864    9.5069 H         1 RES1    0.0000
     39 H11       -1.4537    6.0256    8.6914 H         1 RES1    0.0000
     40 H12       -0.6371    8.2168    8.9011 H         1 RES1    0.0000
     41 H13       -1.7912    8.8115   10.8934 H         1 RES1    0.0000
     42 H14       -0.1866    9.1089   11.1497 H         1 RES1    0.0000
     43 H15       -0.8872    7.7785   11.7788 H         1 RES1    0.0000
     44 H16        1.0261    6.4952    8.7963 H         1 RES1    0.0000
     45 H17        0.9870    6.5421   10.6254 H         1 RES1    0.0000
     46 H18        1.5672    7.8098    9.8099 H         1 RES1    0.0000
     47 H19       -6.3554   -0.4852   10.8468 H         1 RES1    0.0000
     48 H20       -6.4122   -0.7199   12.5128 H         1 RES1    0.0000
     49 H21       -5.2832   -1.5338   11.5575 H         1 RES1    0.0000
     50 H22       -1.0607    0.9704   15.3323 H         1 RES1    0.0000
     51 H23       -1.2096   -0.1252   14.1556 H         1 RES1    0.0000
     52 H24       -2.4137    0.2504   15.1575 H         1 RES1    0.0000
@<TRIPOS>BOND
     1    1   21 2
     2    2   21 1
     3    3   26 2
     4    4   26 1
     5    5    8 2
     6    6    8 2
     7    7    9 1
     8    8   19 1
     9    9   10 2
    10   10   11 1
    11   11   12 1
    12   12   13 2
    13   13    7 1
    14   14   11 1
    15   15   14 ar
    16   16   15 ar
    17   17   16 ar
    18   18   17 ar
    19   19   14 ar
    20   20    9 1
    21   21   10 1
    22   22    2 1
    23   23   22 1
    24   24   23 1
    25   25   23 1
    26   26   12 1
    27   27    4 1
    28   28   13 1
    29   29    7 1
    30   30   11 1
    31   31   15 1
    32   32   16 1
    33   33   17 1
    34   34   18 1
    35   35   20 1
    36   36   20 1
    37   37   20 1
    38   38   22 1
    39   39   22 1
    40   40   23 1
    41   41   24 1
    42   42   24 1
    43   43   24 1
    44   44   25 1
    45   45   25 1
    46   46   25 1
    47   47   27 1
    48   48   27 1
    49   49   27 1
    50   50   28 1
    51   51   28 1
    52   52   28 1
    53   18   19 ar
@<TRIPOS>SUBSTRUCTURE
     1 RES1 1

@<TRIPOS>CRYSIN
  10.7890   15.6510   11.9340  90.0000 102.5100  90.0000 231 1

