# MOL2 file generated by ConQuest
# Please check atom types

@<TRIPOS>MOLECULE
FULWEQ
    23    22     1
SMALL
NO_CHARGES
****
Generated from CSD

@<TRIPOS>ATOM
      1 O1         1.8572    3.3163   -2.9905 O.2       1 RES1    0.0000
      2 O2         1.3045    5.3817   -3.2456 O.2       1 RES1    0.0000
      3 O3         3.2298    6.4321    0.0246 O.2       1 RES1    0.0000
      4 O4         3.0638    6.8363   -2.0975 O.2       1 RES1    0.0000
      5 N1         2.9793    3.0671    1.8710 N.2       1 RES1    0.0000
      6 N2         2.8546    4.0914    0.9384 N.pl3     1 RES1    0.0000
      7 H1         3.0155    4.9150    1.0782 H         1 RES1    0.0000
      8 N3         2.2194    2.4994   -0.5519 N.pl3     1 RES1    0.0000
      9 H2         2.0322    2.2248   -1.3452 H         1 RES1    0.0000
     10 H3         2.2957    1.9253    0.1286 H         1 RES1    0.0000
     11 N4         1.8320    4.4956   -2.5981 N.pl3     1 RES1    0.0000
     12 N5         2.9009    6.0726   -1.1417 N.pl3     1 RES1    0.0000
     13 C1         3.3856    4.8817    3.4820 C.3       1 RES1    0.0000
     14 H4         4.1784    5.2648    3.0515 H         1 RES1    0.0000
     15 H5         3.4869    4.9288    4.4551 H         1 RES1    0.0000
     16 H6         2.5908    5.3866    3.2118 H         1 RES1    0.0000
     17 C2         3.2345    3.4561    3.0669 C.2       1 RES1    0.0000
     18 C3         3.3994    2.3773    4.0949 C.3       1 RES1    0.0000
     19 H7         3.3726    1.5012    3.6569 H         1 RES1    0.0000
     20 H8         2.6740    2.4372    4.7509 H         1 RES1    0.0000
     21 H9         4.2609    2.4885    4.5491 H         1 RES1    0.0000
     22 C4         2.4973    3.7616   -0.3060 C.2       1 RES1    0.0000
     23 C5         2.4067    4.7868   -1.3221 C.2       1 RES1    0.0000
@<TRIPOS>BOND
     1    1   11 2
     2    2   11 2
     3    3   12 2
     4    4   12 2
     5    5    6 1
     6    6    7 1
     7    8    9 1
     8   10    8 1
     9   11   23 1
    10   12   23 1
    11   13   14 1
    12   15   13 1
    13   16   13 1
    14   17    5 2
    15   18   17 1
    16   19   18 1
    17   20   18 1
    18   21   18 1
    19   22    6 1
    20   23   22 2
    21    8   22 1
    22   13   17 1
@<TRIPOS>SUBSTRUCTURE
     1 RES1 1

@<TRIPOS>CRYSIN
   6.6857    6.8993   10.2681  76.7114  79.0212  75.8661   2 1

