# MOL2 file generated by ConQuest
# Please check atom types

@<TRIPOS>MOLECULE
FULZUH
    20    22     1
SMALL
NO_CHARGES
****
Generated from CSD

@<TRIPOS>ATOM
      1 O1         5.1098    5.1614    1.3778 O.2       1 RES1    0.0000
      2 O2         3.3426    6.5019    1.6784 O.3       1 RES1    0.0000
      3 N1         3.8870    6.0016   -0.3961 N.am      1 RES1    0.0000
      4 N2         2.5595    7.3616    0.7595 N.3       1 RES1    0.0000
      5 C1         4.2166    5.8149    0.9025 C.2       1 RES1    0.0000
      6 C2         2.5329    6.5600   -0.4685 C.3       1 RES1    0.0000
      7 C3         1.2265    7.4761    1.3554 C.3       1 RES1    0.0000
      8 C4         2.2565    7.4162   -1.6672 C.ar      1 RES1    0.0000
      9 C5         2.9946    8.5682   -1.9117 C.ar      1 RES1    0.0000
     10 C6         2.6752    9.3627   -3.0036 C.ar      1 RES1    0.0000
     11 C7         1.6415    8.9963   -3.8510 C.ar      1 RES1    0.0000
     12 C8         0.9235    7.8495   -3.6202 C.ar      1 RES1    0.0000
     13 C9         1.2283    7.0568   -2.5231 C.ar      1 RES1    0.0000
     14 C10        4.5094    5.3393   -1.5035 C.ar      1 RES1    0.0000
     15 C11        5.8231    5.6299   -1.8291 C.ar      1 RES1    0.0000
     16 C12        6.3629    5.0293   -2.9589 C.ar      1 RES1    0.0000
     17 C13        5.6111    4.1819   -3.7545 C.ar      1 RES1    0.0000
     18 C14        4.3111    3.9054   -3.4153 C.ar      1 RES1    0.0000
     19 C15        3.7566    4.4761   -2.2803 C.ar      1 RES1    0.0000
     20 C16        6.6806    6.6059   -1.0110 C.3       1 RES1    0.0000
@<TRIPOS>BOND
     1    1    5 2
     2    2    4 1
     3    3    5 1
     4    4    6 1
     5    5    2 1
     6    6    3 1
     7    7    4 1
     8    8    6 1
     9    9    8 ar
    10   10    9 ar
    11   11   10 ar
    12   12   11 ar
    13   13    8 ar
    14   14    3 1
    15   15   14 ar
    16   16   15 ar
    17   17   16 ar
    18   18   17 ar
    19   19   14 ar
    20   20   15 1
    21   12   13 ar
    22   18   19 ar
@<TRIPOS>SUBSTRUCTURE
     1 RES1 1

@<TRIPOS>CRYSIN
   9.1804   17.6156   17.2227  90.0000  90.0000  90.0000  61 1

