# MOL2 file generated by ConQuest
# Please check atom types

@<TRIPOS>MOLECULE
FUMLEF
   120   130     2
SMALL
NO_CHARGES
****
Generated from CSD

@<TRIPOS>ATOM
      1 N1        19.4906    4.6248   12.0828 N.pl3     1 RES1    0.0000
      2 O1        18.9296    3.8317   11.2166 O.2       1 RES1    0.0000
      3 C1        18.7800    5.6778   12.5949 C.ar      1 RES1    0.0000
      4 C2        19.3837    6.5359   13.4914 C.ar      1 RES1    0.0000
      5 H1        18.9068    7.2935   13.8100 H         1 RES1    0.0000
      6 C3        20.6747    6.3055   13.9316 C.ar      1 RES1    0.0000
      7 H2        21.0728    6.8816   14.5727 H         1 RES1    0.0000
      8 C4        21.3805    5.2219   13.4255 C.ar      1 RES1    0.0000
      9 C5        22.7835    4.9050   13.9027 C.3       1 RES1    0.0000
     10 H3        22.8768    5.1811   14.8484 H         1 RES1    0.0000
     11 H4        23.4370    5.4240   13.3679 H         1 RES1    0.0000
     12 C6        23.1004    3.4216   13.7785 C.3       1 RES1    0.0000
     13 H5        24.0461    3.2646   14.0258 H         1 RES1    0.0000
     14 H6        22.5291    2.9086   14.4049 H         1 RES1    0.0000
     15 C7        22.8600    2.9369   12.3629 C.3       1 RES1    0.0000
     16 H7        23.0633    1.9597   12.2995 H         1 RES1    0.0000
     17 O2        23.7048    3.6651   11.4710 O.3       1 RES1    0.0000
     18 C8        21.4556    3.2087   11.8294 C.3       1 RES1    0.0000
     19 H8        20.8863    2.3981   11.9638 H         1 RES1    0.0000
     20 O3        21.6784    3.4107   10.4288 O.3       1 RES1    0.0000
     21 C9        20.7973    4.3981   12.4717 C.ar      1 RES1    0.0000
     22 C10       23.0219    3.8545   10.2199 C.3       1 RES1    0.0000
     23 C11       23.6253    2.9970    9.1401 C.3       1 RES1    0.0000
     24 H9        24.5398    3.3001    8.9549 H         1 RES1    0.0000
     25 H10       23.0837    3.0692    8.3255 H         1 RES1    0.0000
     26 H11       23.6461    2.0632    9.4374 H         1 RES1    0.0000
     27 C12       23.0554    5.3242    9.8955 C.3       1 RES1    0.0000
     28 H12       22.6512    5.8305   10.6302 H         1 RES1    0.0000
     29 H13       22.5540    5.4883    9.0703 H         1 RES1    0.0000
     30 H14       23.9835    5.6104    9.7731 H         1 RES1    0.0000
     31 N2        16.5469    4.8034   12.6458 N.pl3     1 RES1    0.0000
     32 O4        17.0386    3.8629   13.3946 O.2       1 RES1    0.0000
     33 C13       17.3751    5.8040   12.1855 C.ar      1 RES1    0.0000
     34 C14       16.8422    6.8504   11.4668 C.ar      1 RES1    0.0000
     35 H15       17.4040    7.5647   11.1876 H         1 RES1    0.0000
     36 C15       15.4956    6.8684   11.1475 C.ar      1 RES1    0.0000
     37 H16       15.1399    7.5762   10.6242 H         1 RES1    0.0000
     38 C16       14.6686    5.8497   11.5942 C.ar      1 RES1    0.0000
     39 C17       13.1936    5.7848   11.2919 C.3       1 RES1    0.0000
     40 H17       12.9966    6.3146   10.4789 H         1 RES1    0.0000
     41 H18       12.6835    6.1769   12.0448 H         1 RES1    0.0000
     42 C18       12.7562    4.3422   11.0773 C.3       1 RES1    0.0000
     43 H19       11.7922    4.3206   10.8580 H         1 RES1    0.0000
     44 H20       13.2524    3.9580   10.3125 H         1 RES1    0.0000
     45 C19       13.0099    3.5076   12.3110 C.3       1 RES1    0.0000
     46 H21       12.8683    2.5418   12.0957 H         1 RES1    0.0000
     47 O5        12.1155    3.9014   13.3625 O.3       1 RES1    0.0000
     48 C20       14.4144    3.6982   12.9367 C.3       1 RES1    0.0000
     49 H22       14.9334    2.8449   12.8779 H         1 RES1    0.0000
     50 O6        14.1510    4.0205   14.3180 O.3       1 RES1    0.0000
     51 C21       15.2072    4.8185   12.3529 C.ar      1 RES1    0.0000
     52 C22       12.8057    3.6465   14.5887 C.3       1 RES1    0.0000
     53 C23       12.7224    2.1744   14.9523 C.3       1 RES1    0.0000
     54 H23       11.7830    1.9206   15.0732 H         1 RES1    0.0000
     55 H24       13.2115    2.0157   15.7850 H         1 RES1    0.0000
     56 H25       13.1171    1.6374   14.2340 H         1 RES1    0.0000
     57 C24       12.2831    4.5473   15.6690 C.3       1 RES1    0.0000
     58 H26       12.2632    5.4709   15.3429 H         1 RES1    0.0000
     59 H27       12.8664    4.4889   16.4533 H         1 RES1    0.0000
     60 H28       11.3745    4.2688   15.9153 H         1 RES1    0.0000
     61 N3        31.0795    5.6381    7.9560 N.pl3     2 RES2    0.0000
     62 O7        31.7004    4.7691    8.7011 O.2       2 RES2    0.0000
     63 C25       31.8023    6.6543    7.3784 C.ar      2 RES2    0.0000
     64 C26       31.1455    7.6327    6.6588 C.ar      2 RES2    0.0000
     65 H29       31.6385    8.3609    6.2966 H         2 RES2    0.0000
     66 C27       29.7771    7.5611    6.4604 C.ar      2 RES2    0.0000
     67 H30       29.3357    8.2190    5.9370 H         2 RES2    0.0000
     68 C28       29.0573    6.5262    7.0295 C.ar      2 RES2    0.0000
     69 C29       27.5706    6.3753    6.8513 C.3       2 RES2    0.0000
     70 H31       27.2841    6.8630    6.0389 H         2 RES2    0.0000
     71 H32       27.1006    6.7692    7.6288 H         2 RES2    0.0000
     72 C30       27.2006    4.9075    6.7225 C.3       2 RES2    0.0000
     73 H33       26.2246    4.8239    6.5828 H         2 RES2    0.0000
     74 H34       27.6577    4.5196    5.9340 H         2 RES2    0.0000
     75 C31       27.5997    4.1438    7.9640 C.3       2 RES2    0.0000
     76 H35       27.4930    3.1618    7.8071 H         2 RES2    0.0000
     77 O8        26.7509    4.5575    9.0423 O.3       2 RES2    0.0000
     78 C32       29.0299    4.4426    8.4874 C.3       2 RES2    0.0000
     79 H36       29.5902    3.6158    8.4409 H         2 RES2    0.0000
     80 O9        28.8291    4.8269    9.8664 O.3       2 RES2    0.0000
     81 C33       29.7194    5.5671    7.7891 C.ar      2 RES2    0.0000
     82 C34       27.5092    4.4324   10.2382 C.3       2 RES2    0.0000
     83 C35       27.4878    3.0006   10.7340 C.3       2 RES2    0.0000
     84 H37       27.8376    2.4083   10.0353 H         2 RES2    0.0000
     85 H38       26.5663    2.7445   10.9509 H         2 RES2    0.0000
     86 H39       28.0453    2.9243   11.5353 H         2 RES2    0.0000
     87 C36       26.9812    5.3999   11.2564 C.3       2 RES2    0.0000
     88 H40       27.5929    5.4342   12.0223 H         2 RES2    0.0000
     89 H41       26.0962    5.1071   11.5578 H         2 RES2    0.0000
     90 H42       26.9097    6.2911   10.8550 H         2 RES2    0.0000
     91 N3A       33.9709    5.6381    7.0288 N.pl3     2 RES2    0.0000
     92 O7A       33.3501    4.7691    6.2837 O.2       2 RES2    0.0000
     93 C25A      33.2482    6.6543    7.6064 C.ar      2 RES2    0.0000
     94 C26A      33.9049    7.6327    8.3260 C.ar      2 RES2    0.0000
     95 H29A      33.4119    8.3609    8.6882 H         2 RES2    0.0000
     96 C27A      35.2733    7.5611    8.5244 C.ar      2 RES2    0.0000
     97 H30A      35.7148    8.2190    9.0478 H         2 RES2    0.0000
     98 C28A      35.9932    6.5262    7.9553 C.ar      2 RES2    0.0000
     99 C29A      37.4799    6.3753    8.1334 C.3       2 RES2    0.0000
    100 H31A      37.7663    6.8630    8.9459 H         2 RES2    0.0000
    101 H32A      37.9499    6.7692    7.3560 H         2 RES2    0.0000
    102 C30A      37.8499    4.9075    8.2623 C.3       2 RES2    0.0000
    103 H33A      38.8259    4.8239    8.4020 H         2 RES2    0.0000
    104 H34A      37.3928    4.5196    9.0508 H         2 RES2    0.0000
    105 C31A      37.4508    4.1438    7.0208 C.3       2 RES2    0.0000
    106 H35A      37.5575    3.1618    7.1777 H         2 RES2    0.0000
    107 O8A       38.2996    4.5575    5.9425 O.3       2 RES2    0.0000
    108 C32A      36.0205    4.4426    6.4974 C.3       2 RES2    0.0000
    109 H36A      35.4602    3.6158    6.5439 H         2 RES2    0.0000
    110 O9A       36.2214    4.8269    5.1184 O.3       2 RES2    0.0000
    111 C33A      35.3311    5.5671    7.1957 C.ar      2 RES2    0.0000
    112 C34A      37.5413    4.4324    4.7466 C.3       2 RES2    0.0000
    113 C35A      37.5627    3.0006    4.2507 C.3       2 RES2    0.0000
    114 H37A      37.2129    2.4083    4.9495 H         2 RES2    0.0000
    115 H38A      38.4842    2.7445    4.0339 H         2 RES2    0.0000
    116 H39A      37.0051    2.9243    3.4495 H         2 RES2    0.0000
    117 C36A      38.0692    5.3999    3.7284 C.3       2 RES2    0.0000
    118 H40A      37.4576    5.4342    2.9625 H         2 RES2    0.0000
    119 H41A      38.9543    5.1071    3.4270 H         2 RES2    0.0000
    120 H42A      38.1407    6.2911    4.1298 H         2 RES2    0.0000
@<TRIPOS>BOND
     1    1    2 1
     2    3    1 ar
     3    4    3 ar
     4    5    4 1
     5    6    4 ar
     6    7    6 1
     7    8    6 ar
     8    9    8 1
     9   10    9 1
    10   11    9 1
    11   12    9 1
    12   13   12 1
    13   14   12 1
    14   15   12 1
    15   16   15 1
    16   17   15 1
    17   18   15 1
    18   19   18 1
    19   20   18 1
    20   21    1 ar
    21   22   17 1
    22   23   22 1
    23   24   23 1
    24   25   23 1
    25   26   23 1
    26   27   22 1
    27   28   27 1
    28   29   27 1
    29   30   27 1
    30   31   32 1
    31   33    3 1
    32   34   33 ar
    33   35   34 1
    34   36   34 ar
    35   37   36 1
    36   38   36 ar
    37   39   38 1
    38   40   39 1
    39   41   39 1
    40   42   39 1
    41   43   42 1
    42   44   42 1
    43   45   42 1
    44   46   45 1
    45   47   45 1
    46   48   45 1
    47   49   48 1
    48   50   48 1
    49   51   31 ar
    50   52   47 1
    51   53   52 1
    52   54   53 1
    53   55   53 1
    54   56   53 1
    55   57   52 1
    56   58   57 1
    57   59   57 1
    58   60   57 1
    59   61   62 1
    60   63   61 ar
    61   64   63 ar
    62   65   64 1
    63   66   64 ar
    64   67   66 1
    65   68   66 ar
    66   69   68 1
    67   70   69 1
    68   71   69 1
    69   72   69 1
    70   73   72 1
    71   74   72 1
    72   75   72 1
    73   76   75 1
    74   77   75 1
    75   78   75 1
    76   79   78 1
    77   80   78 1
    78   81   61 ar
    79   82   77 1
    80   83   82 1
    81   84   83 1
    82   85   83 1
    83   86   83 1
    84   87   82 1
    85   88   87 1
    86   89   87 1
    87   90   87 1
    88   91   92 1
    89   93   63 1
    90   94   93 ar
    91   95   94 1
    92   96   94 ar
    93   97   96 1
    94   98   96 ar
    95   99   98 1
    96  100   99 1
    97  101   99 1
    98  102   99 1
    99  103  102 1
   100  104  102 1
   101  105  102 1
   102  106  105 1
   103  107  105 1
   104  108  105 1
   105  109  108 1
   106  110  108 1
   107  111   91 ar
   108  112  107 1
   109  113  112 1
   110  114  113 1
   111  115  113 1
   112  116  113 1
   113  117  112 1
   114  118  117 1
   115  119  117 1
   116  120  117 1
   117    8   21 ar
   118   18   21 1
   119   20   22 1
   120   31   33 ar
   121   38   51 ar
   122   48   51 1
   123   50   52 1
   124   68   81 ar
   125   78   81 1
   126   80   82 1
   127   91   93 ar
   128   98  111 ar
   129  108  111 1
   130  110  112 1
@<TRIPOS>SUBSTRUCTURE
     1 RES1 1
     2 RES2 61

@<TRIPOS>CRYSIN
  36.3540    6.0133   16.8280  90.0000 117.0680  90.0000   5 1

