# MOL2 file generated by ConQuest
# Please check atom types

@<TRIPOS>MOLECULE
FUMLIJ
   130   140     2
SMALL
NO_CHARGES
****
Generated from CSD

@<TRIPOS>ATOM
      1 N1         4.7691   -9.7877   20.8070 N.pl3     1 RES1    0.0000
      2 O1         4.4128  -10.3137   19.6710 O.2       1 RES1    0.0000
      3 C1         4.7244  -10.5377   21.9446 C.ar      1 RES1    0.0000
      4 C2         5.1385  -10.0069   23.1669 C.ar      1 RES1    0.0000
      5 C3         5.0714  -10.8381   24.4228 C.3       1 RES1    0.0000
      6 H1         5.7822  -11.5123   24.4065 H         1 RES1    0.0000
      7 H2         4.2005  -11.2834   24.4729 H         1 RES1    0.0000
      8 H3         5.1883  -10.2583   25.2054 H         1 RES1    0.0000
      9 C4         5.5621   -8.6794   23.2088 C.ar      1 RES1    0.0000
     10 H4         5.8497   -8.3005   24.0312 H         1 RES1    0.0000
     11 C5         5.5663   -7.9076   22.0542 C.ar      1 RES1    0.0000
     12 C6         5.9634   -6.4496   22.0671 C.3       1 RES1    0.0000
     13 H5         6.5308   -6.2701   22.8570 H         1 RES1    0.0000
     14 H6         5.1518   -5.8877   22.1382 H         1 RES1    0.0000
     15 C7         6.7249   -6.0827   20.8018 C.3       1 RES1    0.0000
     16 H7         6.9642   -5.1227   20.8290 H         1 RES1    0.0000
     17 H8         7.5637   -6.6057   20.7603 H         1 RES1    0.0000
     18 C8         5.9014   -6.3580   19.5632 C.3       1 RES1    0.0000
     19 H9         6.4872   -6.3085   18.7530 H         1 RES1    0.0000
     20 O2         4.8721   -5.3686   19.4717 O.3       1 RES1    0.0000
     21 C9         5.1200   -7.7096   19.5621 C.3       1 RES1    0.0000
     22 H10        5.4332   -8.2863   18.8079 H         1 RES1    0.0000
     23 O3         3.7551   -7.3167   19.3504 O.3       1 RES1    0.0000
     24 C10        5.1784   -8.4725   20.8526 C.ar      1 RES1    0.0000
     25 C11        3.7574   -5.9876   18.8322 C.3       1 RES1    0.0000
     26 C12        3.9192   -5.9967   17.3187 C.3       1 RES1    0.0000
     27 H11        3.9303   -5.0758   16.9859 H         1 RES1    0.0000
     28 H12        3.1704   -6.4820   16.9127 H         1 RES1    0.0000
     29 H13        4.7620   -6.4393   17.0821 H         1 RES1    0.0000
     30 C13        2.4865   -5.3154   19.2583 C.3       1 RES1    0.0000
     31 H14        2.4640   -5.2479   20.2362 H         1 RES1    0.0000
     32 H15        1.7196   -5.8408   18.9498 H         1 RES1    0.0000
     33 H16        2.4457   -4.4175   18.8674 H         1 RES1    0.0000
     34 N2         4.9936  -12.9182   22.1174 N.ar      1 RES1    0.0000
     35 C14        4.1508  -11.9134   21.8448 C.ar      1 RES1    0.0000
     36 C15        2.7832  -12.1137   21.6090 C.ar      1 RES1    0.0000
     37 C16        1.8488  -10.9595   21.3737 C.3       1 RES1    0.0000
     38 H17        2.1474  -10.4517   20.5909 H         1 RES1    0.0000
     39 H18        1.8462  -10.3749   22.1611 H         1 RES1    0.0000
     40 H19        0.9428  -11.2990   21.2158 H         1 RES1    0.0000
     41 C17        2.3334  -13.4198   21.5997 C.ar      1 RES1    0.0000
     42 H20        1.4241  -13.5967   21.3921 H         1 RES1    0.0000
     43 C18        3.1846  -14.4802   21.8894 C.ar      1 RES1    0.0000
     44 C19        2.6728  -15.9080   21.9235 C.3       1 RES1    0.0000
     45 H21        2.0292  -16.0407   21.1838 H         1 RES1    0.0000
     46 H22        2.1924  -16.0607   22.7746 H         1 RES1    0.0000
     47 C20        3.7952  -16.9218   21.7958 C.3       1 RES1    0.0000
     48 H23        3.4406  -17.8294   21.9689 H         1 RES1    0.0000
     49 H24        4.1526  -16.9024   20.8725 H         1 RES1    0.0000
     50 C21        4.9124  -16.6216   22.7778 C.3       1 RES1    0.0000
     51 H25        5.6274  -17.3189   22.7150 H         1 RES1    0.0000
     52 O4         4.3715  -16.5829   24.1060 O.3       1 RES1    0.0000
     53 C22        5.5150  -15.2289   22.6178 C.3       1 RES1    0.0000
     54 H26        6.2860  -15.2588   21.9826 H         1 RES1    0.0000
     55 O5         5.9841  -14.9677   23.9481 O.3       1 RES1    0.0000
     56 C23        4.5070  -14.1761   22.1696 C.ar      1 RES1    0.0000
     57 C24        5.1270  -15.6381   24.8971 C.3       1 RES1    0.0000
     58 C25        5.9496  -16.3510   25.8877 C.3       1 RES1    0.0000
     59 H27        6.5294  -16.9934   25.4297 H         1 RES1    0.0000
     60 H28        5.3671  -16.8270   26.5146 H         1 RES1    0.0000
     61 H29        6.5013  -15.7066   26.3796 H         1 RES1    0.0000
     62 C26        4.1574  -14.6495   25.5192 C.3       1 RES1    0.0000
     63 H30        4.6592  -13.9578   25.9973 H         1 RES1    0.0000
     64 H31        3.5687  -15.1194   26.1461 H         1 RES1    0.0000
     65 H32        3.6179  -14.2336   24.8140 H         1 RES1    0.0000
     66 N3        -1.0768  -15.5256   19.3309 N.pl3     2 RES2    0.0000
     67 O6        -0.5056  -15.1449   20.4346 O.2       2 RES2    0.0000
     68 C27       -0.3584  -15.5071   18.1695 C.ar      2 RES2    0.0000
     69 C28       -0.9382  -15.9269   16.9754 C.ar      2 RES2    0.0000
     70 C29       -0.1507  -15.8531   15.6911 C.3       2 RES2    0.0000
     71 H33       -0.7149  -16.1445   14.9442 H         2 RES2    0.0000
     72 H34        0.6332  -16.4374   15.7545 H         2 RES2    0.0000
     73 H35        0.1407  -14.9303   15.5393 H         2 RES2    0.0000
     74 C30       -2.2586  -16.3538   16.9777 C.ar      2 RES2    0.0000
     75 H36       -2.6582  -16.6621   16.1734 H         2 RES2    0.0000
     76 C31       -2.9992  -16.3319   18.1594 C.ar      2 RES2    0.0000
     77 C32       -4.4493  -16.7248   18.1849 C.3       2 RES2    0.0000
     78 H37       -4.6353  -17.3431   17.4346 H         2 RES2    0.0000
     79 H38       -5.0110  -15.9185   18.0640 H         2 RES2    0.0000
     80 C33       -4.8153  -17.4010   19.4980 C.3       2 RES2    0.0000
     81 H39       -5.7822  -17.6104   19.4991 H         2 RES2    0.0000
     82 H40       -4.3187  -18.2531   19.5770 H         2 RES2    0.0000
     83 C34       -4.4940  -16.5250   20.6871 C.3       2 RES2    0.0000
     84 H41       -4.6015  -17.0531   21.5294 H         2 RES2    0.0000
     85 O7        -5.3861  -15.4035   20.7081 O.3       2 RES2    0.0000
     86 C35       -3.0882  -15.8728   20.6624 C.3       2 RES2    0.0000
     87 H42       -2.5119  -16.2910   21.3646 H         2 RES2    0.0000
     88 O8        -3.3348  -14.4975   20.9956 O.3       2 RES2    0.0000
     89 C36       -2.3898  -15.9269   19.3373 C.ar      2 RES2    0.0000
     90 C37       -4.7010  -14.3676   21.4046 C.3       2 RES2    0.0000
     91 C38       -4.8178  -14.5325   22.9064 C.3       2 RES2    0.0000
     92 H43       -5.7554  -14.4384   23.1728 H         2 RES2    0.0000
     93 H44       -4.2807  -13.8455   23.3536 H         2 RES2    0.0000
     94 H45       -4.4918  -15.4208   23.1637 H         2 RES2    0.0000
     95 C39       -5.2095  -13.0366   20.9366 C.3       2 RES2    0.0000
     96 H46       -5.0898  -12.9640   19.9661 H         2 RES2    0.0000
     97 H47       -4.7113  -12.3213   21.3829 H         2 RES2    0.0000
     98 H48       -6.1621  -12.9554   21.1540 H         2 RES2    0.0000
     99 N4         2.0449  -15.7433   18.1324 N.ar      2 RES2    0.0000
    100 C40        1.0056  -14.9030   18.2158 C.ar      2 RES2    0.0000
    101 C41        1.1376  -13.5071   18.2370 C.ar      2 RES2    0.0000
    102 C42       -0.0574  -12.6011   18.3503 C.3       2 RES2    0.0000
    103 H49        0.2378  -11.6673   18.3295 H         2 RES2    0.0000
    104 H50       -0.5221  -12.7777   19.1947 H         2 RES2    0.0000
    105 H51       -0.6656  -12.7678   17.6016 H         2 RES2    0.0000
    106 C43        2.4269  -12.9998   18.1620 C.ar      2 RES2    0.0000
    107 H52        2.5597  -12.0597   18.1762 H         2 RES2    0.0000
    108 C44        3.5195  -13.8395   18.0656 C.ar      2 RES2    0.0000
    109 C45        4.9255  -13.2893   17.9837 C.3       2 RES2    0.0000
    110 H53        4.9632  -12.4095   18.4348 H         2 RES2    0.0000
    111 H54        5.1743  -13.1588   17.0340 H         2 RES2    0.0000
    112 C46        5.9133  -14.2379   18.6415 C.3       2 RES2    0.0000
    113 H55        6.8320  -13.8881   18.5241 H         2 RES2    0.0000
    114 H56        5.7259  -14.2862   19.6113 H         2 RES2    0.0000
    115 C47        5.8247  -15.6153   18.0473 C.3       2 RES2    0.0000
    116 H57        6.4084  -16.2370   18.5698 H         2 RES2    0.0000
    117 O9         6.2730  -15.5733   16.7003 O.3       2 RES2    0.0000
    118 C48        4.4097  -16.2209   17.9315 C.3       2 RES2    0.0000
    119 H58        4.2948  -16.9407   18.6156 H         2 RES2    0.0000
    120 O10        4.3746  -16.7966   16.6112 O.3       2 RES2    0.0000
    121 C49        3.2840  -15.2162   18.0532 C.ar      2 RES2    0.0000
    122 C50        5.6916  -16.7089   16.0633 C.3       2 RES2    0.0000
    123 C51        6.5113  -17.9569   16.3514 C.3       2 RES2    0.0000
    124 H59        7.4300  -17.8251   16.0360 H         2 RES2    0.0000
    125 H60        6.1129  -18.7237   15.8873 H         2 RES2    0.0000
    126 H61        6.5196  -18.1265   17.3155 H         2 RES2    0.0000
    127 C52        5.5542  -16.4509   14.5894 C.3       2 RES2    0.0000
    128 H62        5.1236  -15.5815   14.4498 H         2 RES2    0.0000
    129 H63        5.0082  -17.1554   14.1843 H         2 RES2    0.0000
    130 H64        6.4422  -16.4460   14.1752 H         2 RES2    0.0000
@<TRIPOS>BOND
     1    1    2 1
     2    3    1 ar
     3    4    3 ar
     4    5    4 1
     5    6    5 1
     6    7    5 1
     7    8    5 1
     8    9    4 ar
     9   10    9 1
    10   11    9 ar
    11   12   11 1
    12   13   12 1
    13   14   12 1
    14   15   12 1
    15   16   15 1
    16   17   15 1
    17   18   15 1
    18   19   18 1
    19   20   18 1
    20   21   18 1
    21   22   21 1
    22   23   21 1
    23   24    1 ar
    24   25   20 1
    25   26   25 1
    26   27   26 1
    27   28   26 1
    28   29   26 1
    29   30   25 1
    30   31   30 1
    31   32   30 1
    32   33   30 1
    33   34   35 ar
    34   35    3 1
    35   36   35 ar
    36   37   36 1
    37   38   37 1
    38   39   37 1
    39   40   37 1
    40   41   36 ar
    41   42   41 1
    42   43   41 ar
    43   44   43 1
    44   45   44 1
    45   46   44 1
    46   47   44 1
    47   48   47 1
    48   49   47 1
    49   50   47 1
    50   51   50 1
    51   52   50 1
    52   53   50 1
    53   54   53 1
    54   55   53 1
    55   56   34 ar
    56   57   52 1
    57   58   57 1
    58   59   58 1
    59   60   58 1
    60   61   58 1
    61   62   57 1
    62   63   62 1
    63   64   62 1
    64   65   62 1
    65   66   67 1
    66   68   66 ar
    67   69   68 ar
    68   70   69 1
    69   71   70 1
    70   72   70 1
    71   73   70 1
    72   74   69 ar
    73   75   74 1
    74   76   74 ar
    75   77   76 1
    76   78   77 1
    77   79   77 1
    78   80   77 1
    79   81   80 1
    80   82   80 1
    81   83   80 1
    82   84   83 1
    83   85   83 1
    84   86   83 1
    85   87   86 1
    86   88   86 1
    87   89   66 ar
    88   90   85 1
    89   91   90 1
    90   92   91 1
    91   93   91 1
    92   94   91 1
    93   95   90 1
    94   96   95 1
    95   97   95 1
    96   98   95 1
    97   99  100 ar
    98  100   68 1
    99  101  100 ar
   100  102  101 1
   101  103  102 1
   102  104  102 1
   103  105  102 1
   104  106  101 ar
   105  107  106 1
   106  108  106 ar
   107  109  108 1
   108  110  109 1
   109  111  109 1
   110  112  109 1
   111  113  112 1
   112  114  112 1
   113  115  112 1
   114  116  115 1
   115  117  115 1
   116  118  115 1
   117  119  118 1
   118  120  118 1
   119  121   99 ar
   120  122  117 1
   121  123  122 1
   122  124  123 1
   123  125  123 1
   124  126  123 1
   125  127  122 1
   126  128  127 1
   127  129  127 1
   128  130  127 1
   129   11   24 ar
   130   21   24 1
   131   23   25 1
   132   43   56 ar
   133   53   56 1
   134   55   57 1
   135   76   89 ar
   136   86   89 1
   137   88   90 1
   138  108  121 ar
   139  118  121 1
   140  120  122 1
@<TRIPOS>SUBSTRUCTURE
     1 RES1 1
     2 RES2 66

@<TRIPOS>CRYSIN
  14.0720   14.2180   22.8890  90.0000  90.0000  90.0000  19 1

