# MOL2 file generated by ConQuest
# Please check atom types

@<TRIPOS>MOLECULE
FUMLUW
    29    29     1
SMALL
NO_CHARGES
****
Generated from CSD

@<TRIPOS>ATOM
      1 H1         0.8846    2.0043   13.9620 H         1 RES1    0.0000
      2 H2        -3.3550    6.6048    9.6557 H         1 RES1    0.0000
      3 H3         1.9169    1.6052   10.8445 H         1 RES1    0.0000
      4 O1         2.6302    0.9703   10.6713 O.3       1 RES1    0.0000
      5 N1         0.8590    2.3316   11.9966 N.2       1 RES1    0.0000
      6 N2        -2.1675    5.2973   10.2051 N.2       1 RES1    0.0000
      7 O2        -3.1840    6.2259   10.4636 O.3       1 RES1    0.0000
      8 C1        -1.6880    4.7897   11.2931 C.2       1 RES1    0.0000
      9 C2         1.2704    1.7761   13.0831 C.2       1 RES1    0.0000
     10 C3         3.0025    0.4417   11.8678 C.ar      1 RES1    0.0000
     11 C4         2.3484    0.8058   13.0650 C.ar      1 RES1    0.0000
     12 C5        -0.5855    3.8158   11.1071 C.2       1 RES1    0.0000
     13 C6         3.8121   -0.6941   14.2875 C.ar      1 RES1    0.0000
     14 H4         4.0817   -1.0806   15.0889 H         1 RES1    0.0000
     15 C7         4.4553   -1.0286   13.0946 C.ar      1 RES1    0.0000
     16 H5         5.1610   -1.6335   13.1068 H         1 RES1    0.0000
     17 C8         4.0508   -0.4668   11.8925 C.ar      1 RES1    0.0000
     18 H6         4.4817   -0.6995   11.1028 H         1 RES1    0.0000
     19 C9        -2.1884    5.1139   12.6644 C.3       1 RES1    0.0000
     20 H7        -2.8970    5.7578   12.6022 H         1 RES1    0.0000
     21 H8        -1.4717    5.4771   13.1893 H         1 RES1    0.0000
     22 H9        -2.5170    4.3149   13.0825 H         1 RES1    0.0000
     23 N3        -0.1714    3.2508   12.1972 N.2       1 RES1    0.0000
     24 C10        2.7708    0.2161   14.2680 C.ar      1 RES1    0.0000
     25 H10        2.3439    0.4412   15.0634 H         1 RES1    0.0000
     26 C11       -0.0252    3.5548    9.7346 C.3       1 RES1    0.0000
     27 H11        0.6756    2.9015    9.7940 H         1 RES1    0.0000
     28 H12        0.3275    4.3709    9.3731 H         1 RES1    0.0000
     29 H13       -0.7213    3.2257    9.1620 H         1 RES1    0.0000
@<TRIPOS>BOND
     1    1    9 1
     2    2    7 1
     3    3    4 1
     4    4   10 1
     5    5    9 2
     6    6    7 1
     7    8    6 2
     8    9   11 1
     9   10   11 ar
    10   11   24 ar
    11   12    8 1
    12   13   14 1
    13   15   13 ar
    14   16   15 1
    15   17   10 ar
    16   18   17 1
    17   19    8 1
    18   20   19 1
    19   21   19 1
    20   22   19 1
    21   23    5 1
    22   24   13 ar
    23   25   24 1
    24   26   12 1
    25   27   26 1
    26   28   26 1
    27   29   26 1
    28   12   23 2
    29   15   17 ar
@<TRIPOS>SUBSTRUCTURE
     1 RES1 1

@<TRIPOS>CRYSIN
  19.7074    4.4839   12.7541  90.0000 107.9940  90.0000  14 1

