# MOL2 file generated by ConQuest
# Please check atom types

@<TRIPOS>MOLECULE
FUMLOP
   141   142     3
SMALL
NO_CHARGES
****
Generated from CSD

@<TRIPOS>ATOM
      1 N1         4.7849   -9.8230   20.8377 N.pl3     1 RES1    0.0000
      2 O1         4.4255  -10.3424   19.6959 O.2       1 RES1    0.0000
      3 C1         4.7196  -10.5786   21.9795 C.ar      1 RES1    0.0000
      4 C2         5.1307  -10.0617   23.1998 C.ar      1 RES1    0.0000
      5 C3         5.0826  -10.9286   24.4302 C.3       1 RES1    0.0000
      6 H1         5.2823  -10.3853   25.2208 H         1 RES1    0.0000
      7 H2         5.7468  -11.6448   24.3512 H         1 RES1    0.0000
      8 H3         4.1890  -11.3203   24.5206 H         1 RES1    0.0000
      9 C4         5.5712   -8.7457   23.2595 C.ar      1 RES1    0.0000
     10 H4         5.8643   -8.3823   24.0858 H         1 RES1    0.0000
     11 C5         5.5834   -7.9567   22.1088 C.ar      1 RES1    0.0000
     12 C6         5.9734   -6.5035   22.1333 C.3       1 RES1    0.0000
     13 H5         6.5497   -6.3321   22.9188 H         1 RES1    0.0000
     14 H6         5.1591   -5.9489   22.2255 H         1 RES1    0.0000
     15 C7         6.7142   -6.1005   20.8674 C.3       1 RES1    0.0000
     16 H7         6.9392   -5.1369   20.9098 H         1 RES1    0.0000
     17 H8         7.5609   -6.6095   20.8045 H         1 RES1    0.0000
     18 C8         5.8710   -6.3668   19.6384 C.3       1 RES1    0.0000
     19 H9         6.4280   -6.2435   18.8160 H         1 RES1    0.0000
     20 O2         4.7750   -5.4438   19.6190 O.3       1 RES1    0.0000
     21 C9         5.1785   -7.7638   19.5961 C.3       1 RES1    0.0000
     22 H10        5.5783   -8.3222   18.8687 H         1 RES1    0.0000
     23 O3         3.8171   -7.4596   19.2858 O.3       1 RES1    0.0000
     24 C10        5.2013   -8.5117   20.8876 C.ar      1 RES1    0.0000
     25 C11        3.7203   -6.0812   18.9096 C.3       1 RES1    0.0000
     26 C12        3.8746   -5.9203   17.4088 C.3       1 RES1    0.0000
     27 H11        3.8350   -4.9696   17.1754 H         1 RES1    0.0000
     28 H12        3.1510   -6.3979   16.9534 H         1 RES1    0.0000
     29 H13        4.7385   -6.2892   17.1273 H         1 RES1    0.0000
     30 C13        2.3933   -5.5715   19.4027 C.3       1 RES1    0.0000
     31 H14        2.3607   -5.6358   20.3812 H         1 RES1    0.0000
     32 H15        1.6725   -6.1105   19.0151 H         1 RES1    0.0000
     33 H16        2.2814   -4.6365   19.1341 H         1 RES1    0.0000
     34 N2         4.9346  -12.9853   22.0173 N.pl3     1 RES1    0.0000
     35 O4         6.2114  -12.7933   22.1262 O.2       1 RES1    0.0000
     36 C14        4.1040  -11.9266   21.8550 C.ar      1 RES1    0.0000
     37 C15        2.7333  -12.1166   21.6864 C.ar      1 RES1    0.0000
     38 C16        1.8183  -10.9371   21.5184 C.3       1 RES1    0.0000
     39 H17        0.9078  -11.2531   21.3399 H         1 RES1    0.0000
     40 H18        2.1271  -10.3896   20.7656 H         1 RES1    0.0000
     41 H19        1.8240  -10.3996   22.3376 H         1 RES1    0.0000
     42 C17        2.2389  -13.4205   21.6775 C.ar      1 RES1    0.0000
     43 H20        1.3170  -13.5749   21.5116 H         1 RES1    0.0000
     44 C18        3.0816  -14.4942   21.9092 C.ar      1 RES1    0.0000
     45 C19        2.5392  -15.9024   21.9623 C.3       1 RES1    0.0000
     46 H21        1.8127  -15.9954   21.2965 H         1 RES1    0.0000
     47 H22        2.1526  -16.0669   22.8593 H         1 RES1    0.0000
     48 C20        3.5999  -16.9433   21.6832 C.3       1 RES1    0.0000
     49 H23        3.8817  -16.8818   20.7358 H         1 RES1    0.0000
     50 H24        3.2232  -17.8468   21.8342 H         1 RES1    0.0000
     51 C21        4.8050  -16.7431   22.5824 C.3       1 RES1    0.0000
     52 H25        5.4919  -17.4494   22.4085 H         1 RES1    0.0000
     53 O5         4.3858  -16.7831   23.9371 O.3       1 RES1    0.0000
     54 C22        5.4381  -15.3377   22.4715 C.3       1 RES1    0.0000
     55 H26        6.1844  -15.3463   21.8067 H         1 RES1    0.0000
     56 O6         5.9523  -15.1433   23.7883 O.3       1 RES1    0.0000
     57 C23        4.4322  -14.2739   22.1092 C.ar      1 RES1    0.0000
     58 C24        5.1053  -15.7881   24.8180 C.3       1 RES1    0.0000
     59 C25        5.9762  -16.5429   25.7997 C.3       1 RES1    0.0000
     60 H27        6.5087  -17.2106   25.3192 H         1 RES1    0.0000
     61 H28        5.4097  -16.9919   26.4610 H         1 RES1    0.0000
     62 H29        6.5752  -15.9139   26.2550 H         1 RES1    0.0000
     63 C26        4.1522  -14.8044   25.4953 C.3       1 RES1    0.0000
     64 H30        3.6480  -15.2691   26.1955 H         1 RES1    0.0000
     65 H31        3.5305  -14.4413   24.8295 H         1 RES1    0.0000
     66 H32        4.6677  -14.0724   25.8935 H         1 RES1    0.0000
     67 N3        -1.0481  -15.5256   19.2339 N.pl3     2 RES2    0.0000
     68 O7        -0.4835  -15.1464   20.3491 O.2       2 RES2    0.0000
     69 C27       -0.3338  -15.4727   18.0614 C.ar      2 RES2    0.0000
     70 C28       -0.8885  -15.9122   16.8674 C.ar      2 RES2    0.0000
     71 C29       -0.0566  -15.8667   15.6057 C.3       2 RES2    0.0000
     72 H33        0.3130  -14.9674   15.4890 H         2 RES2    0.0000
     73 H34       -0.6203  -16.0912   14.8345 H         2 RES2    0.0000
     74 H35        0.6755  -16.5143   15.6743 H         2 RES2    0.0000
     75 C30       -2.1965  -16.3715   16.8678 C.ar      2 RES2    0.0000
     76 H36       -2.5873  -16.6888   16.0610 H         2 RES2    0.0000
     77 C31       -2.9408  -16.3688   18.0449 C.ar      2 RES2    0.0000
     78 C32       -4.3857  -16.7828   18.0474 C.3       2 RES2    0.0000
     79 H37       -4.5459  -17.4165   17.3035 H         2 RES2    0.0000
     80 H38       -4.9537  -15.9868   17.8985 H         2 RES2    0.0000
     81 C33       -4.7804  -17.4419   19.3609 C.3       2 RES2    0.0000
     82 H39       -5.7496  -17.6424   19.3492 H         2 RES2    0.0000
     83 H40       -4.2924  -18.2986   19.4567 H         2 RES2    0.0000
     84 C34       -4.4678  -16.5525   20.5416 C.3       2 RES2    0.0000
     85 H41       -4.6337  -17.0548   21.3903 H         2 RES2    0.0000
     86 O8        -5.3117  -15.3979   20.4976 O.3       2 RES2    0.0000
     87 C35       -3.0428  -15.9498   20.5679 C.3       2 RES2    0.0000
     88 H42       -2.4825  -16.4314   21.2415 H         2 RES2    0.0000
     89 O9        -3.2426  -14.5953   20.9832 O.3       2 RES2    0.0000
     90 C36       -2.3545  -15.9579   19.2329 C.ar      2 RES2    0.0000
     91 C37       -4.6413  -14.3830   21.2399 C.3       2 RES2    0.0000
     92 C38       -4.9246  -14.5071   22.7277 C.3       2 RES2    0.0000
     93 H43       -5.8841  -14.3884   22.8891 H         2 RES2    0.0000
     94 H44       -4.4227  -13.8208   23.2140 H         2 RES2    0.0000
     95 H45       -4.6493  -15.3949   23.0401 H         2 RES2    0.0000
     96 C39       -5.0146  -13.0288   20.6919 C.3       2 RES2    0.0000
     97 H46       -4.7512  -12.9730   19.7496 H         2 RES2    0.0000
     98 H47       -4.5530  -12.3311   21.2026 H         2 RES2    0.0000
     99 H48       -5.9833  -12.9015   20.7679 H         2 RES2    0.0000
    100 N4         2.0822  -15.6943   18.0678 N.pl3     2 RES2    0.0000
    101 O10        1.8741  -16.9737   18.0346 O.2       2 RES2    0.0000
    102 C40        1.0080  -14.8428   18.1433 C.ar      2 RES2    0.0000
    103 C41        1.2008  -13.4673   18.1946 C.ar      2 RES2    0.0000
    104 C42        0.0057  -12.5470   18.2904 C.3       2 RES2    0.0000
    105 H49        0.3101  -11.6305   18.4545 H         2 RES2    0.0000
    106 H50       -0.5707  -12.8358   19.0288 H         2 RES2    0.0000
    107 H51       -0.4985  -12.5770   17.4500 H         2 RES2    0.0000
    108 C43        2.4896  -12.9694   18.1513 C.ar      2 RES2    0.0000
    109 H52        2.6326  -12.0308   18.1891 H         2 RES2    0.0000
    110 C44        3.5759  -13.8314   18.0529 C.ar      2 RES2    0.0000
    111 C45        4.9910  -13.2984   18.0021 C.3       2 RES2    0.0000
    112 H53        5.2455  -13.1317   17.0587 H         2 RES2    0.0000
    113 H54        5.0330  -12.4354   18.4865 H         2 RES2    0.0000
    114 C46        5.9649  -14.2626   18.6165 C.3       2 RES2    0.0000
    115 H55        5.7907  -14.3241   19.5895 H         2 RES2    0.0000
    116 H56        6.8854  -13.9152   18.4957 H         2 RES2    0.0000
    117 C47        5.8718  -15.6379   18.0083 C.3       2 RES2    0.0000
    118 H57        6.4534  -16.2699   18.5186 H         2 RES2    0.0000
    119 O11        6.3087  -15.5728   16.6681 O.3       2 RES2    0.0000
    120 C48        4.4473  -16.2331   17.8813 C.3       2 RES2    0.0000
    121 H58        4.3165  -16.9461   18.5712 H         2 RES2    0.0000
    122 O12        4.4139  -16.8156   16.5656 O.3       2 RES2    0.0000
    123 C49        3.3634  -15.2020   18.0051 C.ar      2 RES2    0.0000
    124 C50        5.7383  -16.7217   16.0292 C.3       2 RES2    0.0000
    125 C51        6.5540  -17.9655   16.3056 C.3       2 RES2    0.0000
    126 H59        7.4660  -17.8397   15.9672 H         2 RES2    0.0000
    127 H60        6.1433  -18.7332   15.8574 H         2 RES2    0.0000
    128 H61        6.5837  -18.1299   17.2715 H         2 RES2    0.0000
    129 C52        5.5896  -16.4643   14.5444 C.3       2 RES2    0.0000
    130 H62        5.1307  -15.6108   14.4043 H         2 RES2    0.0000
    131 H63        5.0670  -17.1863   14.1389 H         2 RES2    0.0000
    132 H64        6.4775  -16.4314   14.1298 H         2 RES2    0.0000
    133 C53        5.5004  -16.2441   25.6212 Du        3 SUP3    0.0000
    134 C54        7.0482  -17.3736   23.9325 Du        3 SUP3    0.0000
    135 C55        5.8204  -16.5286   24.1636 Du        3 SUP3    0.0000
    136 H65        6.2339  -15.7323   26.0216 Du        3 SUP3    0.0000
    137 H66        5.3913  -17.0905   26.1040 Du        3 SUP3    0.0000
    138 H67        4.6705  -15.7252   25.6784 Du        3 SUP3    0.0000
    139 H68        7.3371  -17.2792   22.9989 Du        3 SUP3    0.0000
    140 H69        6.8386  -18.3129   24.1156 Du        3 SUP3    0.0000
    141 H70        7.7676  -17.0762   24.5274 Du        3 SUP3    0.0000
@<TRIPOS>BOND
     1    1    2 1
     2    3    1 ar
     3    4    3 ar
     4    5    4 1
     5    6    5 1
     6    7    5 1
     7    8    5 1
     8    9    4 ar
     9   10    9 1
    10   11    9 ar
    11   12   11 1
    12   13   12 1
    13   14   12 1
    14   15   12 1
    15   16   15 1
    16   17   15 1
    17   18   15 1
    18   19   18 1
    19   20   18 1
    20   21   18 1
    21   22   21 1
    22   23   21 1
    23   24    1 ar
    24   25   20 1
    25   26   25 1
    26   27   26 1
    27   28   26 1
    28   29   26 1
    29   30   25 1
    30   31   30 1
    31   32   30 1
    32   33   30 1
    33   34   35 1
    34   36    3 1
    35   37   36 ar
    36   38   37 1
    37   39   38 1
    38   40   38 1
    39   41   38 1
    40   42   37 ar
    41   43   42 1
    42   44   42 ar
    43   45   44 1
    44   46   45 1
    45   47   45 1
    46   48   45 1
    47   49   48 1
    48   50   48 1
    49   51   48 1
    50   52   51 1
    51   53   51 1
    52   54   51 1
    53   55   54 1
    54   56   54 1
    55   57   34 ar
    56   58   53 1
    57   59   58 1
    58   60   59 1
    59   61   59 1
    60   62   59 1
    61   63   58 1
    62   64   63 1
    63   65   63 1
    64   66   63 1
    65   67   68 1
    66   69   67 ar
    67   70   69 ar
    68   71   70 1
    69   72   71 1
    70   73   71 1
    71   74   71 1
    72   75   70 ar
    73   76   75 1
    74   77   75 ar
    75   78   77 1
    76   79   78 1
    77   80   78 1
    78   81   78 1
    79   82   81 1
    80   83   81 1
    81   84   81 1
    82   85   84 1
    83   86   84 1
    84   87   84 1
    85   88   87 1
    86   89   87 1
    87   90   67 ar
    88   91   86 1
    89   92   91 1
    90   93   92 1
    91   94   92 1
    92   95   92 1
    93   96   91 1
    94   97   96 1
    95   98   96 1
    96   99   96 1
    97  100  101 1
    98  102   69 1
    99  103  102 ar
   100  104  103 1
   101  105  104 1
   102  106  104 1
   103  107  104 1
   104  108  103 ar
   105  109  108 1
   106  110  108 ar
   107  111  110 1
   108  112  111 1
   109  113  111 1
   110  114  111 1
   111  115  114 1
   112  116  114 1
   113  117  114 1
   114  118  117 1
   115  119  117 1
   116  120  117 1
   117  121  120 1
   118  122  120 1
   119  123  100 ar
   120  124  119 1
   121  125  124 1
   122  126  125 1
   123  127  125 1
   124  128  125 1
   125  129  124 1
   126  130  129 1
   127  131  129 1
   128  132  129 1
   129   11   24 ar
   130   21   24 1
   131   23   25 1
   132   34   36 ar
   133   44   57 ar
   134   54   57 1
   135   56   58 1
   136   77   90 ar
   137   87   90 1
   138   89   91 1
   139  100  102 ar
   140  110  123 ar
   141  120  123 1
   142  122  124 1
@<TRIPOS>SUBSTRUCTURE
     1 RES1 1
     2 RES2 67
     3 SUP3 133

@<TRIPOS>CRYSIN
  14.1616   14.2969   22.8822  90.0000  90.0000  90.0000  19 1

