# MOL2 file generated by ConQuest
# Please check atom types

@<TRIPOS>MOLECULE
FUPKEG
    35    37     1
SMALL
NO_CHARGES
****
Generated from CSD

@<TRIPOS>ATOM
      1 O1         9.3394    5.0364    1.6161 O.2       1 RES1    0.0000
      2 N1         9.9933    3.9792    1.8992 N.pl3     1 RES1    0.0000
      3 N2         9.5500    3.1083    2.7602 N.2       1 RES1    0.0000
      4 N3        10.5180    2.1319    2.8006 N.am      1 RES1    0.0000
      5 C1        11.5735    2.4236    1.9420 C.ar      1 RES1    0.0000
      6 C2        12.7550    1.7823    1.6260 C.ar      1 RES1    0.0000
      7 C3        13.5511    2.4143    0.6901 C.ar      1 RES1    0.0000
      8 C4        13.1873    3.6214    0.0922 C.ar      1 RES1    0.0000
      9 C5        12.0130    4.2575    0.4089 C.ar      1 RES1    0.0000
     10 C6        11.2320    3.6226    1.3538 C.ar      1 RES1    0.0000
     11 C7        10.3914    1.0209    3.6384 C.2       1 RES1    0.0000
     12 O2        11.2607    0.2097    3.7398 O.2       1 RES1    0.0000
     13 O3         9.2341    1.0601    4.2716 O.3       1 RES1    0.0000
     14 C8         8.9829   -0.0281    5.2255 C.3       1 RES1    0.0000
     15 C9         7.9423    0.4557    6.1543 C.2       1 RES1    0.0000
     16 C10        6.8279   -0.1740    6.4190 C.2       1 RES1    0.0000
     17 C11        5.7598    0.2718    7.3187 C.ar      1 RES1    0.0000
     18 C12        5.8010    1.4742    8.0095 C.ar      1 RES1    0.0000
     19 C13        4.7377    1.8719    8.8036 C.ar      1 RES1    0.0000
     20 C14        3.6209    1.0789    8.9218 C.ar      1 RES1    0.0000
     21 C15        3.5736   -0.1113    8.2482 C.ar      1 RES1    0.0000
     22 C16        4.6258   -0.5172    7.4683 C.ar      1 RES1    0.0000
     23 H1        13.0260    0.9412    2.0420 H         1 RES1    0.0000
     24 H2        14.3962    2.0142    0.4349 H         1 RES1    0.0000
     25 H3        13.7602    4.0097   -0.5767 H         1 RES1    0.0000
     26 H4        11.7455    5.0839   -0.0142 H         1 RES1    0.0000
     27 H5         8.6694   -0.8229    4.7693 H         1 RES1    0.0000
     28 H6         9.7799   -0.2718    5.7005 H         1 RES1    0.0000
     29 H7         8.0908    1.3032    6.5891 H         1 RES1    0.0000
     30 H8         6.6996   -1.0297    5.9747 H         1 RES1    0.0000
     31 H9         6.5873    2.0500    7.9386 H         1 RES1    0.0000
     32 H10        4.7905    2.7089    9.2999 H         1 RES1    0.0000
     33 H11        2.8502    1.3752    9.4299 H         1 RES1    0.0000
     34 H12        2.7981   -0.6835    8.3499 H         1 RES1    0.0000
     35 H13        4.5720   -1.3582    6.9885 H         1 RES1    0.0000
@<TRIPOS>BOND
     1    1    2 1
     2    2    3 2
     3    3    4 1
     4    4    5 1
     5    5    6 ar
     6    6    7 ar
     7    7    8 ar
     8    8    9 ar
     9    9   10 ar
    10   10    2 1
    11   11    4 1
    12   12   11 2
    13   13   11 1
    14   14   13 1
    15   15   14 1
    16   16   15 2
    17   17   16 1
    18   18   17 ar
    19   19   18 ar
    20   20   19 ar
    21   21   20 ar
    22   22   17 ar
    23   23    6 1
    24   24    7 1
    25   25    8 1
    26   26    9 1
    27   27   14 1
    28   28   14 1
    29   29   15 1
    30   30   16 1
    31   31   18 1
    32   32   19 1
    33   33   20 1
    34   34   21 1
    35   35   22 1
    36    5   10 ar
    37   21   22 ar
@<TRIPOS>SUBSTRUCTURE
     1 RES1 1

@<TRIPOS>CRYSIN
  10.3770    5.8570   23.6690  90.0000  93.1200  90.0000  14 1

