# MOL2 file generated by ConQuest
# Please check atom types

@<TRIPOS>MOLECULE
FUPLEJ
   106   112     2
SMALL
NO_CHARGES
****
Generated from CSD

@<TRIPOS>ATOM
      1 O1         7.0465    1.1236    6.2806 O.2       1 RES1    0.0000
      2 O2         6.4272   -0.8039    5.5585 O.2       1 RES1    0.0000
      3 O3        -1.4044   -1.8897    2.5928 O.3       1 RES1    0.0000
      4 O4         2.1426    6.3236   10.5416 O.3       1 RES1    0.0000
      5 N1         2.6768    0.1917    5.6561 N.pl3     1 RES1    0.0000
      6 H1         2.4324    0.7882    6.2546 H         1 RES1    0.0000
      7 N2         3.9342   -0.0841    5.4986 N.2       1 RES1    0.0000
      8 N3         4.6258    1.7411    7.0078 N.2       1 RES1    0.0000
      9 N4         3.3892    2.0348    7.2668 N.2       1 RES1    0.0000
     10 N5         6.1882    0.3050    5.9971 N.pl3     1 RES1    0.0000
     11 C1         4.7782    0.6802    6.1906 C.2       1 RES1    0.0000
     12 C2         1.7064   -0.4496    4.8839 C.ar      1 RES1    0.0000
     13 C3         1.9730   -1.4380    3.9527 C.ar      1 RES1    0.0000
     14 H2         2.8625   -1.7440    3.8263 H         1 RES1    0.0000
     15 C4         0.9449   -1.9778    3.2093 C.ar      1 RES1    0.0000
     16 H3         1.1223   -2.6674    2.5800 H         1 RES1    0.0000
     17 C5        -0.3412   -1.5124    3.3812 C.ar      1 RES1    0.0000
     18 C6        -0.6175   -0.5586    4.3428 C.ar      1 RES1    0.0000
     19 H4        -1.5119   -0.2725    4.4892 H         1 RES1    0.0000
     20 C7         0.4064   -0.0283    5.0859 C.ar      1 RES1    0.0000
     21 H5         0.2199    0.6320    5.7432 H         1 RES1    0.0000
     22 C8        -1.4477   -3.1307    1.9740 C.ar      1 RES1    0.0000
     23 C9        -1.2264   -4.2773    2.6681 C.ar      1 RES1    0.0000
     24 H6        -0.9611   -4.2490    3.5796 H         1 RES1    0.0000
     25 C10       -1.3950   -5.4784    2.0221 C.ar      1 RES1    0.0000
     26 H7        -1.2604   -6.2907    2.4977 H         1 RES1    0.0000
     27 C11       -1.7569   -5.5182    0.6894 C.ar      1 RES1    0.0000
     28 H8        -1.8568   -6.3546    0.2518 H         1 RES1    0.0000
     29 C12       -1.9723   -4.3570   -0.0015 C.ar      1 RES1    0.0000
     30 H9        -2.2229   -4.3832   -0.9174 H         1 RES1    0.0000
     31 C13       -1.8256   -3.1412    0.6470 C.ar      1 RES1    0.0000
     32 H10       -1.9834   -2.3268    0.1850 H         1 RES1    0.0000
     33 C14        3.1385    3.1401    8.0991 C.ar      1 RES1    0.0000
     34 C15        1.8340    3.2418    8.5768 C.ar      1 RES1    0.0000
     35 H11        1.1864    2.5930    8.3258 H         1 RES1    0.0000
     36 C16        1.4759    4.2825    9.4166 C.ar      1 RES1    0.0000
     37 H12        0.5943    4.3381    9.7648 H         1 RES1    0.0000
     38 C17        2.4173    5.2374    9.7414 C.ar      1 RES1    0.0000
     39 C18        3.7160    5.1577    9.2457 C.ar      1 RES1    0.0000
     40 H13        4.3499    5.8306    9.4642 H         1 RES1    0.0000
     41 C19        4.0818    4.1054    8.4396 C.ar      1 RES1    0.0000
     42 H14        4.9724    4.0373    8.1176 H         1 RES1    0.0000
     43 C20        0.9401    6.2750   11.2647 C.ar      1 RES1    0.0000
     44 C21       -0.2002    6.8284   10.7405 C.ar      1 RES1    0.0000
     45 H15       -0.1877    7.2434    9.8856 H         1 RES1    0.0000
     46 C22       -1.3727    6.7728   11.4808 C.ar      1 RES1    0.0000
     47 H16       -2.1779    7.1250   11.1190 H         1 RES1    0.0000
     48 C23       -1.3722    6.2089   12.7333 C.ar      1 RES1    0.0000
     49 H17       -2.1730    6.1911   13.2442 H         1 RES1    0.0000
     50 C24       -0.2270    5.6755   13.2462 C.ar      1 RES1    0.0000
     51 H18       -0.2316    5.2908   14.1153 H         1 RES1    0.0000
     52 C25        0.9431    5.6933   12.5025 C.ar      1 RES1    0.0000
     53 H19        1.7379    5.3055   12.8484 H         1 RES1    0.0000
     54 O5        -1.6291    7.1742    5.8573 O.2       2 RES2    0.0000
     55 O6        -1.4677    8.2213    7.7350 O.2       2 RES2    0.0000
     56 O7         3.7373    1.8141    2.8696 O.3       2 RES2    0.0000
     57 O8         5.0934   11.5626   11.0381 O.3       2 RES2    0.0000
     58 N6        -0.9797    7.6008    6.7996 N.pl3     2 RES2    0.0000
     59 N7         0.8356    6.3585    6.0318 N.2       2 RES2    0.0000
     60 N8         2.1024    6.0858    5.9884 N.pl3     2 RES2    0.0000
     61 H20        2.6875    6.5590    6.4448 H         2 RES2    0.0000
     62 N9         2.3988    8.0398    7.7160 N.2       2 RES2    0.0000
     63 N10        1.1144    8.1675    7.6710 N.2       2 RES2    0.0000
     64 C26        0.4672    7.3514    6.8310 C.2       2 RES2    0.0000
     65 C27        2.5057    5.0047    5.1849 C.ar      2 RES2    0.0000
     66 C28        1.5883    4.1599    4.5589 C.ar      2 RES2    0.0000
     67 H21        0.6559    4.3014    4.6717 H         2 RES2    0.0000
     68 C29        2.0398    3.1265    3.7813 C.ar      2 RES2    0.0000
     69 H22        1.4167    2.5542    3.3483 H         2 RES2    0.0000
     70 C30        3.3984    2.9095    3.6233 C.ar      2 RES2    0.0000
     71 C31        4.3220    3.7197    4.2721 C.ar      2 RES2    0.0000
     72 H23        5.2539    3.5541    4.1834 H         2 RES2    0.0000
     73 C32        3.8701    4.7689    5.0481 C.ar      2 RES2    0.0000
     74 H24        4.4933    5.3327    5.4914 H         2 RES2    0.0000
     75 C33        5.0154    1.7241    2.3053 C.ar      2 RES2    0.0000
     76 C34        5.7031    0.5607    2.5201 C.ar      2 RES2    0.0000
     77 H25        5.3519   -0.1101    3.0939 H         2 RES2    0.0000
     78 C35        6.9142    0.3815    1.8887 C.ar      2 RES2    0.0000
     79 H26        7.3995   -0.4234    2.0249 H         2 RES2    0.0000
     80 C36        7.4276    1.3531    1.0641 C.ar      2 RES2    0.0000
     81 H27        8.2657    1.2210    0.6347 H         2 RES2    0.0000
     82 C37        6.7218    2.5228    0.8611 C.ar      2 RES2    0.0000
     83 H28        7.0768    3.1967    0.2955 H         2 RES2    0.0000
     84 C38        5.4960    2.7198    1.4781 C.ar      2 RES2    0.0000
     85 H29        5.0006    3.5185    1.3362 H         2 RES2    0.0000
     86 C39        3.0598    8.9288    8.5910 C.ar      2 RES2    0.0000
     87 C40        4.4499    8.8648    8.6257 C.ar      2 RES2    0.0000
     88 H30        4.9076    8.2244    8.0945 H         2 RES2    0.0000
     89 C41        5.1653    9.7316    9.4320 C.ar      2 RES2    0.0000
     90 H31        6.1145    9.6855    9.4616 H         2 RES2    0.0000
     91 C42        4.4860   10.6686   10.1947 C.ar      2 RES2    0.0000
     92 C43        3.0975   10.7200   10.1788 C.ar      2 RES2    0.0000
     93 H32        2.6404   11.3551   10.7182 H         2 RES2    0.0000
     94 C44        2.3864    9.8553    9.3883 C.ar      2 RES2    0.0000
     95 H33        1.4365    9.8878    9.3819 H         2 RES2    0.0000
     96 C45        6.4624   11.8110   10.9374 C.ar      2 RES2    0.0000
     97 C46        7.0128   12.2774    9.7643 C.ar      2 RES2    0.0000
     98 H34        6.4788   12.3896    8.9862 H         2 RES2    0.0000
     99 C47        8.3577   12.5772    9.7435 C.ar      2 RES2    0.0000
    100 H35        8.7619   12.8927    8.9425 H         2 RES2    0.0000
    101 C48        9.1206   12.4210   10.8852 C.ar      2 RES2    0.0000
    102 H36       10.0490   12.6244   10.8621 H         2 RES2    0.0000
    103 C49        8.5495   11.9745   12.0559 C.ar      2 RES2    0.0000
    104 H37        9.0778   11.8792   12.8407 H         2 RES2    0.0000
    105 C50        7.2057   11.6674   12.0839 C.ar      2 RES2    0.0000
    106 H38        6.7998   11.3593   12.8844 H         2 RES2    0.0000
@<TRIPOS>BOND
     1    1   10 2
     2    2   10 2
     3    3   17 1
     4    4   38 1
     5    5    6 1
     6    7    5 1
     7    8    9 2
     8    9   33 1
     9   10   11 1
    10   11    7 2
    11   12    5 1
    12   13   12 ar
    13   14   13 1
    14   15   13 ar
    15   16   15 1
    16   17   15 ar
    17   18   17 ar
    18   19   18 1
    19   20   12 ar
    20   21   20 1
    21   22    3 1
    22   23   22 ar
    23   24   23 1
    24   25   23 ar
    25   26   25 1
    26   27   25 ar
    27   28   27 1
    28   29   27 ar
    29   30   29 1
    30   31   22 ar
    31   32   31 1
    32   33   34 ar
    33   34   35 1
    34   36   34 ar
    35   37   36 1
    36   38   36 ar
    37   39   38 ar
    38   40   39 1
    39   41   33 ar
    40   42   41 1
    41   43    4 1
    42   44   43 ar
    43   45   44 1
    44   46   44 ar
    45   47   46 1
    46   48   46 ar
    47   49   48 1
    48   50   48 ar
    49   51   50 1
    50   52   43 ar
    51   53   52 1
    52   54   58 2
    53   55   58 2
    54   56   70 1
    55   57   91 1
    56   58   64 1
    57   59   60 1
    58   60   61 1
    59   62   63 2
    60   63   64 1
    61   64   59 2
    62   65   60 1
    63   66   65 ar
    64   67   66 1
    65   68   66 ar
    66   69   68 1
    67   70   68 ar
    68   71   70 ar
    69   72   71 1
    70   73   65 ar
    71   74   73 1
    72   75   56 1
    73   76   75 ar
    74   77   76 1
    75   78   76 ar
    76   79   78 1
    77   80   78 ar
    78   81   80 1
    79   82   80 ar
    80   83   82 1
    81   84   75 ar
    82   85   84 1
    83   86   62 1
    84   87   86 ar
    85   88   87 1
    86   89   87 ar
    87   90   89 1
    88   91   89 ar
    89   92   91 ar
    90   93   92 1
    91   94   86 ar
    92   95   94 1
    93   96   57 1
    94   97   96 ar
    95   98   97 1
    96   99   97 ar
    97  100   99 1
    98  101   99 ar
    99  102  101 1
   100  103  101 ar
   101  104  103 1
   102  105   96 ar
   103  106  105 1
   104    8   11 1
   105   18   20 ar
   106   29   31 ar
   107   39   41 ar
   108   50   52 ar
   109   71   73 ar
   110   82   84 ar
   111   92   94 ar
   112  103  105 ar
@<TRIPOS>SUBSTRUCTURE
     1 RES1 1
     2 RES2 54

@<TRIPOS>CRYSIN
  16.6890   10.4810   26.3640  90.0000 102.9170  90.0000  14 1

