# MOL2 file generated by ConQuest
# Please check atom types

@<TRIPOS>MOLECULE
FUPWAO
    45    48     1
SMALL
NO_CHARGES
****
Generated from CSD

@<TRIPOS>ATOM
      1 C1         1.4478    2.1315   12.3171 C.3       1 RES1    0.0000
      2 C2         2.3936    2.6256   11.2570 C.2       1 RES1    0.0000
      3 O1         3.4140    3.2605   11.8397 O.3       1 RES1    0.0000
      4 O2         2.3104    2.4426   10.0742 O.2       1 RES1    0.0000
      5 C3         4.6075    3.4164   11.0527 C.3       1 RES1    0.0000
      6 C4         0.0844    1.6796   11.8225 C.3       1 RES1    0.0000
      7 O3        -0.0872    0.3071   12.2700 O.3       1 RES1    0.0000
      8 N1         1.2198   -0.2769   12.3965 N.3       1 RES1    0.0000
      9 C5         1.6742   -0.6564   11.0261 C.3       1 RES1    0.0000
     10 C6         0.6469   -1.6605   10.5254 C.2       1 RES1    0.0000
     11 O4         0.0536   -1.1895    9.4210 O.3       1 RES1    0.0000
     12 O5         0.3891   -2.6924   11.0620 O.2       1 RES1    0.0000
     13 C7        -1.0536   -1.9588    8.8711 C.3       1 RES1    0.0000
     14 C8        -0.5831   -3.0337    7.9680 C.3       1 RES1    0.0000
     15 C9         3.0700   -1.2698   11.1156 C.3       1 RES1    0.0000
     16 C10        3.9554   -0.4145   11.9715 C.2       1 RES1    0.0000
     17 C11        5.3742   -0.4280   12.1689 C.ar      1 RES1    0.0000
     18 C12        6.4461   -1.1441   11.6023 C.ar      1 RES1    0.0000
     19 C13        7.7195   -0.8967   12.0631 C.ar      1 RES1    0.0000
     20 C14        7.9615    0.0398   13.0716 C.ar      1 RES1    0.0000
     21 C15        6.9388    0.7678   13.6378 C.ar      1 RES1    0.0000
     22 C16        5.6491    0.5267   13.1735 C.ar      1 RES1    0.0000
     23 N2         4.4565    1.0916   13.5638 N.pl3     1 RES1    0.0000
     24 C17        3.4509    0.5195   12.8236 C.2       1 RES1    0.0000
     25 C18        2.0002    0.8267   12.9846 C.3       1 RES1    0.0000
     26 H1         1.3500    2.7847   12.8976 H         1 RES1    0.0000
     27 H2         5.2249    3.8429   11.6393 H         1 RES1    0.0000
     28 H3         4.4795    4.0895   10.3995 H         1 RES1    0.0000
     29 H4         4.8895    2.5540   10.7326 H         1 RES1    0.0000
     30 H5        -0.0589    1.7186   10.8991 H         1 RES1    0.0000
     31 H6        -0.6547    2.1800   12.2685 H         1 RES1    0.0000
     32 H7         1.7220    0.1512   10.3625 H         1 RES1    0.0000
     33 H8        -1.6749   -1.2810    8.3085 H         1 RES1    0.0000
     34 H9        -1.6457   -2.4267    9.5853 H         1 RES1    0.0000
     35 H10       -0.0155   -3.4610    8.6231 H         1 RES1    0.0000
     36 H11       -1.4008   -3.5008    7.3833 H         1 RES1    0.0000
     37 H12       -0.0746   -2.6335    7.2167 H         1 RES1    0.0000
     38 H13        3.0236   -2.1800   11.5653 H         1 RES1    0.0000
     39 H14        3.4899   -1.2412   10.2145 H         1 RES1    0.0000
     40 H15        6.3021   -1.7902   10.8621 H         1 RES1    0.0000
     41 H16        8.5306   -1.3128   11.7318 H         1 RES1    0.0000
     42 H17        8.8706    0.1114   13.3787 H         1 RES1    0.0000
     43 H18        7.1108    1.4321   14.3595 H         1 RES1    0.0000
     44 H19        4.3885    1.8140   14.1004 H         1 RES1    0.0000
     45 H20        1.7530    0.8434   14.0264 H         1 RES1    0.0000
@<TRIPOS>BOND
     1    1    2 1
     2    2    3 1
     3    3    5 1
     4    4    2 2
     5    5   27 1
     6    6    1 1
     7    7    6 1
     8    8    7 1
     9    9    8 1
    10   10    9 1
    11   11   10 1
    12   12   10 2
    13   13   11 1
    14   14   13 1
    15   15    9 1
    16   16   15 1
    17   17   16 1
    18   18   17 ar
    19   19   18 ar
    20   20   19 ar
    21   21   20 ar
    22   22   17 ar
    23   23   22 1
    24   24   16 2
    25   25    1 1
    26   26    1 1
    27   28    5 1
    28   29    5 1
    29   30    6 1
    30   31    6 1
    31   32    9 1
    32   33   13 1
    33   34   13 1
    34   35   14 1
    35   36   14 1
    36   37   14 1
    37   38   15 1
    38   39   15 1
    39   40   18 1
    40   41   19 1
    41   42   20 1
    42   43   21 1
    43   44   23 1
    44   45   25 1
    45    8   25 1
    46   21   22 ar
    47   23   24 1
    48   24   25 1
@<TRIPOS>SUBSTRUCTURE
     1 RES1 1

@<TRIPOS>CRYSIN
  11.4266    7.9563   18.9075  90.0000 101.8510  90.0000  14 1

