# MOL2 file generated by ConQuest
# Please check atom types

@<TRIPOS>MOLECULE
FUPWOC
    39    42     1
SMALL
NO_CHARGES
****
Generated from CSD

@<TRIPOS>ATOM
      1 C1        -5.2311   -1.0895  -11.9279 C.3       1 RES1    0.0000
      2 C2        -6.4143   -0.5501  -12.6968 C.3       1 RES1    0.0000
      3 C3        -6.6773   -1.1992  -14.0375 C.3       1 RES1    0.0000
      4 C4        -7.8670   -0.6453  -14.7267 C.2       1 RES1    0.0000
      5 O1        -7.7600   -0.3223  -15.9221 O.co2     1 RES1    0.0000
      6 O2        -8.9405   -0.5470  -14.1454 O.co2     1 RES1    0.0000
      7 O3        -6.1115    0.8579  -12.9593 O.3       1 RES1    0.0000
      8 N1        -5.2289    1.3120  -11.9217 N.3       1 RES1    0.0000
      9 C5        -6.0491    1.6137  -10.7122 C.3       1 RES1    0.0000
     10 C6        -7.0549    2.6598  -11.1435 C.2       1 RES1    0.0000
     11 O4        -8.2959    2.2057  -11.0560 O.3       1 RES1    0.0000
     12 O5        -6.7747    3.7676  -11.5388 O.2       1 RES1    0.0000
     13 C7        -9.3521    3.1306  -11.4701 C.3       1 RES1    0.0000
     14 C8       -10.5743    2.3619  -11.4857 C.3       1 RES1    0.0000
     15 C9        -5.1330    2.1562   -9.6167 C.3       1 RES1    0.0000
     16 C10       -3.9841    1.2190   -9.4542 C.2       1 RES1    0.0000
     17 C11       -3.0257    1.0743   -8.4150 C.ar      1 RES1    0.0000
     18 C12       -2.7535    1.7531   -7.2086 C.ar      1 RES1    0.0000
     19 C13       -1.6546    1.3585   -6.4711 C.ar      1 RES1    0.0000
     20 C14       -0.8405    0.3070   -6.8523 C.ar      1 RES1    0.0000
     21 C15       -1.0754   -0.3992   -8.0228 C.ar      1 RES1    0.0000
     22 C16       -2.1524    0.0069   -8.7885 C.ar      1 RES1    0.0000
     23 N2        -2.5859   -0.4564  -10.0168 N.pl3     1 RES1    0.0000
     24 C17       -3.6706    0.2789  -10.4059 C.2       1 RES1    0.0000
     25 C18       -4.3515    0.1455  -11.7107 C.3       1 RES1    0.0000
     26 H1        -3.3882    2.5592   -6.8711 H         1 RES1    0.0000
     27 H2        -1.4215    1.8926   -5.5616 H         1 RES1    0.0000
     28 H3        -0.0051    0.0305   -6.2257 H         1 RES1    0.0000
     29 H4        -0.4483   -1.2259   -8.3213 H         1 RES1    0.0000
     30 H5        -4.8508   -1.8438  -12.4389 H         1 RES1    0.0000
     31 H6        -5.4725   -1.3333  -11.0169 H         1 RES1    0.0000
     32 H7        -7.2285   -0.6095  -12.2202 H         1 RES1    0.0000
     33 H8        -5.9541   -0.9600  -14.5485 H         1 RES1    0.0000
     34 H9        -6.8202   -2.2247  -13.8922 H         1 RES1    0.0000
     35 H10       -6.5663    0.7390  -10.3762 H         1 RES1    0.0000
     36 H11       -5.5937    2.2171   -8.7666 H         1 RES1    0.0000
     37 H12       -4.7798    3.0628   -9.8449 H         1 RES1    0.0000
     38 H13       -2.0029   -0.8229  -10.5637 H         1 RES1    0.0000
     39 H14       -3.8182    0.1905  -12.3295 H         1 RES1    0.0000
@<TRIPOS>BOND
     1    1    2 1
     2    2    3 1
     3    3    4 1
     4    4    5 1
     5    6    4 2
     6    7    2 1
     7    8    7 1
     8    9    8 1
     9   10    9 1
    10   11   10 1
    11   12   10 2
    12   13   11 1
    13   14   13 1
    14   15    9 1
    15   16   15 1
    16   17   16 1
    17   18   17 ar
    18   19   18 ar
    19   20   19 ar
    20   21   20 ar
    21   22   17 ar
    22   23   22 1
    23   24   16 2
    24   25    1 1
    25   26   18 1
    26   27   19 1
    27   28   20 1
    28   29   21 1
    29   30    1 1
    30   31    1 1
    31   32    2 1
    32   33    3 1
    33   34    3 1
    34   35    9 1
    35   36   15 1
    36   37   15 1
    37   38   23 1
    38   39   25 1
    39    8   25 1
    40   21   22 ar
    41   23   24 1
    42   24   25 1
@<TRIPOS>SUBSTRUCTURE
     1 RES1 1

@<TRIPOS>CRYSIN
  15.5890    7.6190   16.7920  90.0000 111.4700  90.0000  14 1

