# MOL2 file generated by ConQuest
# Please check atom types

@<TRIPOS>MOLECULE
FUPWES
    45    48     1
SMALL
NO_CHARGES
****
Generated from CSD

@<TRIPOS>ATOM
      1 C1         4.4908    3.8073    5.1048 C.3       1 RES1    0.0000
      2 C2         5.5866    4.7912    5.4525 C.2       1 RES1    0.0000
      3 O1         6.7601    4.2461    5.4479 O.3       1 RES1    0.0000
      4 O2         5.4230    5.9017    5.7539 O.2       1 RES1    0.0000
      5 C3         7.8690    5.0852    5.8080 C.3       1 RES1    0.0000
      6 C4         3.1566    4.4875    4.8019 C.3       1 RES1    0.0000
      7 O3         2.2449    4.0572    5.8204 O.3       1 RES1    0.0000
      8 N1         2.6750    2.7602    6.2886 N.3       1 RES1    0.0000
      9 C5         2.2328    1.7680    5.3011 C.3       1 RES1    0.0000
     10 C6         0.7293    1.8170    5.1944 C.2       1 RES1    0.0000
     11 O4         0.3497    1.7082    3.9426 O.3       1 RES1    0.0000
     12 O5        -0.0411    1.8995    6.0970 O.2       1 RES1    0.0000
     13 C7        -1.1014    1.6102    3.7077 C.3       1 RES1    0.0000
     14 C8        -1.3576    1.8218    2.3229 C.3       1 RES1    0.0000
     15 C9         2.6358    0.3598    5.8049 C.3       1 RES1    0.0000
     16 C10        4.0897    0.3933    6.1264 C.2       1 RES1    0.0000
     17 C11        5.0219   -0.6658    6.3025 C.ar      1 RES1    0.0000
     18 C12        4.9714   -2.0800    6.2191 C.ar      1 RES1    0.0000
     19 C13        6.0812   -2.8104    6.4262 C.ar      1 RES1    0.0000
     20 C14        7.3052   -2.1924    6.7461 C.ar      1 RES1    0.0000
     21 C15        7.4127   -0.8057    6.8574 C.ar      1 RES1    0.0000
     22 C16        6.2589   -0.0753    6.6302 C.ar      1 RES1    0.0000
     23 N2         6.0635    1.2994    6.6441 N.pl3     1 RES1    0.0000
     24 C17        4.7629    1.5552    6.3474 C.2       1 RES1    0.0000
     25 C18        4.1411    2.9108    6.3257 C.3       1 RES1    0.0000
     26 H1         4.7563    3.2563    4.2130 H         1 RES1    0.0000
     27 H2         8.7441    4.4600    5.7122 H         1 RES1    0.0000
     28 H3         7.7399    5.3673    6.8435 H         1 RES1    0.0000
     29 H4         7.9924    5.9734    5.2068 H         1 RES1    0.0000
     30 H5         2.8527    4.2843    3.7849 H         1 RES1    0.0000
     31 H6         3.2809    5.5526    4.9348 H         1 RES1    0.0000
     32 H7         2.5965    1.9126    4.2949 H         1 RES1    0.0000
     33 H8        -1.6914    2.3191    4.2702 H         1 RES1    0.0000
     34 H9        -1.3333    0.6073    4.0368 H         1 RES1    0.0000
     35 H10       -2.4170    1.8541    2.1127 H         1 RES1    0.0000
     36 H11       -0.8798    1.1213    1.6552 H         1 RES1    0.0000
     37 H12       -0.9331    2.8044    2.1792 H         1 RES1    0.0000
     38 H13        2.3459   -0.2714    4.9765 H         1 RES1    0.0000
     39 H14        2.1187    0.0430    6.6982 H         1 RES1    0.0000
     40 H15        4.0224   -2.5426    5.9934 H         1 RES1    0.0000
     41 H16        6.2243   -3.9018    6.4494 H         1 RES1    0.0000
     42 H17        8.2589   -2.6980    6.7847 H         1 RES1    0.0000
     43 H18        8.3505   -0.3216    7.0846 H         1 RES1    0.0000
     44 H19        6.8320    2.0166    6.8914 H         1 RES1    0.0000
     45 H20        4.5245    3.4009    7.2082 H         1 RES1    0.0000
@<TRIPOS>BOND
     1    1    2 1
     2    2    3 1
     3    3    5 1
     4    4    2 2
     5    5   27 1
     6    6    1 1
     7    7    6 1
     8    8    7 1
     9    9    8 1
    10   10    9 1
    11   11   10 1
    12   12   10 2
    13   13   11 1
    14   14   13 1
    15   15    9 1
    16   16   15 1
    17   17   16 1
    18   18   17 ar
    19   19   18 ar
    20   20   19 ar
    21   21   20 ar
    22   22   17 ar
    23   23   22 1
    24   24   16 2
    25   25    1 1
    26   26    1 1
    27   28    5 1
    28   29    5 1
    29   30    6 1
    30   31    6 1
    31   32    9 1
    32   33   13 1
    33   34   13 1
    34   35   14 1
    35   36   14 1
    36   37   14 1
    37   38   15 1
    38   39   15 1
    39   40   18 1
    40   41   19 1
    41   42   20 1
    42   43   21 1
    43   44   23 1
    44   45   25 1
    45    8   25 1
    46   21   22 ar
    47   23   24 1
    48   24   25 1
@<TRIPOS>SUBSTRUCTURE
     1 RES1 1

@<TRIPOS>CRYSIN
   9.3500   11.9540   15.4550  90.0000  90.0000  90.0000  19 1

