# MOL2 file generated by ConQuest
# Please check atom types

@<TRIPOS>MOLECULE
FUPWIW
    49    53     1
SMALL
NO_CHARGES
****
Generated from CSD

@<TRIPOS>ATOM
      1 C1         9.0213   -5.1184    4.7011 C.3       1 RES1    0.0000
      2 C2        10.3139   -5.8622    5.0276 C.3       1 RES1    0.0000
      3 C3        10.4224   -6.2937    6.4677 C.ar      1 RES1    0.0000
      4 C4         9.7761   -7.4626    6.8549 C.ar      1 RES1    0.0000
      5 C5         9.8123   -7.8722    8.1652 C.ar      1 RES1    0.0000
      6 C6        10.5017   -7.1582    9.0987 C.ar      1 RES1    0.0000
      7 C7        11.1597   -6.0426    8.7261 C.ar      1 RES1    0.0000
      8 C8        11.1282   -5.5907    7.4096 C.ar      1 RES1    0.0000
      9 O1        11.3790   -4.9380    4.7091 O.3       1 RES1    0.0000
     10 N1        10.8529   -3.6136    4.3913 N.3       1 RES1    0.0000
     11 C9        10.9450   -3.4787    2.9345 C.3       1 RES1    0.0000
     12 C10       12.3858   -3.6701    2.5201 C.2       1 RES1    0.0000
     13 O2        12.4535   -4.1393    1.2789 O.3       1 RES1    0.0000
     14 O3        13.3401   -3.4097    3.1857 O.2       1 RES1    0.0000
     15 C11       13.7717   -4.4939    0.7703 C.3       1 RES1    0.0000
     16 C12       14.4728   -3.4097    0.1737 C.3       1 RES1    0.0000
     17 C13       10.4586   -2.0806    2.5536 C.3       1 RES1    0.0000
     18 C14        9.0738   -1.9112    3.0999 C.2       1 RES1    0.0000
     19 C15        7.9795   -1.0952    2.6771 C.ar      1 RES1    0.0000
     20 C16        7.7999   -0.1161    1.6954 C.ar      1 RES1    0.0000
     21 C17        6.5785    0.4817    1.5573 C.ar      1 RES1    0.0000
     22 C18        5.5075    0.1224    2.3715 C.ar      1 RES1    0.0000
     23 C19        5.6393   -0.8505    3.3490 C.ar      1 RES1    0.0000
     24 C20        6.8864   -1.4373    3.4955 C.ar      1 RES1    0.0000
     25 N2         7.3146   -2.4007    4.3892 N.pl3     1 RES1    0.0000
     26 C21        8.6363   -2.6628    4.1360 C.2       1 RES1    0.0000
     27 C22        9.4460   -3.6733    4.8748 C.3       1 RES1    0.0000
     28 H1         8.7728   -5.3349    3.7466 H         1 RES1    0.0000
     29 H2         8.2945   -5.3506    5.2746 H         1 RES1    0.0000
     30 H3        10.4061   -6.6530    4.4164 H         1 RES1    0.0000
     31 H4         9.2978   -7.9867    6.2165 H         1 RES1    0.0000
     32 H5         9.3795   -8.6301    8.3724 H         1 RES1    0.0000
     33 H6        10.4994   -7.5788    9.9422 H         1 RES1    0.0000
     34 H7        11.6077   -5.4918    9.3562 H         1 RES1    0.0000
     35 H8        11.6077   -4.7073    7.1375 H         1 RES1    0.0000
     36 H9        10.3944   -4.1738    2.4489 H         1 RES1    0.0000
     37 H10       13.6726   -5.1200   -0.1026 H         1 RES1    0.0000
     38 H11       14.3352   -5.0180    1.5280 H         1 RES1    0.0000
     39 H12       15.4679   -3.6905   -0.1361 H         1 RES1    0.0000
     40 H13       14.5288   -2.5623    0.8414 H         1 RES1    0.0000
     41 H14       13.8860   -3.1460   -0.6928 H         1 RES1    0.0000
     42 H15       11.0594   -1.4436    2.8466 H         1 RES1    0.0000
     43 H16       10.4761   -1.9928    1.5489 H         1 RES1    0.0000
     44 H17        8.5278    0.1726    1.1512 H         1 RES1    0.0000
     45 H18        6.4396    1.1141    0.8582 H         1 RES1    0.0000
     46 H19        4.6664    0.6119    2.2815 H         1 RES1    0.0000
     47 H20        4.9114   -1.0042    3.9769 H         1 RES1    0.0000
     48 H21        6.8246   -2.7145    5.0653 H         1 RES1    0.0000
     49 H22        9.4145   -3.5148    5.8816 H         1 RES1    0.0000
@<TRIPOS>BOND
     1    1    2 1
     2    2    3 1
     3    3    4 ar
     4    4    5 ar
     5    5    6 ar
     6    6    7 ar
     7    7    8 ar
     8    8    3 ar
     9    9    2 1
    10   10    9 1
    11   11   10 1
    12   12   11 1
    13   13   12 1
    14   14   12 2
    15   15   13 1
    16   16   15 1
    17   17   11 1
    18   18   17 1
    19   19   18 1
    20   20   19 ar
    21   21   20 ar
    22   22   21 ar
    23   23   22 ar
    24   24   19 ar
    25   25   24 1
    26   26   18 2
    27   27    1 1
    28   28    1 1
    29   29    1 1
    30   30    2 1
    31   31    4 1
    32   32    5 1
    33   33    6 1
    34   34    7 1
    35   35    8 1
    36   36   11 1
    37   37   15 1
    38   38   15 1
    39   39   16 1
    40   40   16 1
    41   41   16 1
    42   42   17 1
    43   43   17 1
    44   44   20 1
    45   45   21 1
    46   46   22 1
    47   47   23 1
    48   48   25 1
    49   49   27 1
    50   10   27 1
    51   23   24 ar
    52   25   26 1
    53   26   27 1
@<TRIPOS>SUBSTRUCTURE
     1 RES1 1

@<TRIPOS>CRYSIN
  11.6660   15.6910   20.9310  90.0000  90.0000  90.0000  61 1

