# MOL2 file generated by ConQuest
# Please check atom types

@<TRIPOS>MOLECULE
FUQBAU
    64    67     1
SMALL
USER_CHARGES
****
Generated from CSD

@<TRIPOS>ATOM
      1 C1         8.5549    0.5925    3.4754 C.ar      1 RES1    0.0000
      2 C2         8.9318    0.4690    4.7677 C.ar      1 RES1    0.0000
      3 C3         9.4396    1.5446    5.4061 C.ar      1 RES1    0.0000
      4 C4         9.5950    2.7578    4.7814 C.ar      1 RES1    0.0000
      5 C5         9.1516    2.8575    3.4654 C.ar      1 RES1    0.0000
      6 N1         8.6364    1.7743    2.7978 N.ar      1 RES1    0.0000
      7 C6        10.1699    3.9158    5.4707 C.2       1 RES1    0.0000
      8 N2        10.0519    5.2069    5.1189 N.pl3     1 RES1    1.0000
      9 C7        10.6684    6.1439    6.1159 C.3       1 RES1    0.0000
     10 C8        11.5788    5.1755    6.9110 C.3       1 RES1    0.0000
     11 N3        10.9562    3.8594    6.5610 N.3       1 RES1    0.0000
     12 O1         9.3568    5.6586    4.1504 O.2       1 RES1   -1.0000
     13 C9         9.5077    6.7083    6.9284 C.3       1 RES1    0.0000
     14 C10       11.3787    7.2694    5.3831 C.3       1 RES1    0.0000
     15 C11       13.0041    5.1116    6.3969 C.3       1 RES1    0.0000
     16 C12       11.5702    5.3413    8.4090 C.3       1 RES1    0.0000
     17 O2        11.2972    2.8022    7.1969 O.2       1 RES1    0.0000
     18 H1         8.8419   -0.3618    5.2190 H         1 RES1    0.0000
     19 H2         9.6963    1.4591    6.3161 H         1 RES1    0.0000
     20 H3         9.2047    3.6948    3.0197 H         1 RES1    0.0000
     21 H4         9.8401    7.3127    7.5810 H         1 RES1    0.0000
     22 H5         8.9079    7.1665    6.3496 H         1 RES1    0.0000
     23 H6         9.0478    5.9977    7.3610 H         1 RES1    0.0000
     24 H7        11.7700    7.8619    6.0146 H         1 RES1    0.0000
     25 H8        12.0592    6.9054    4.8273 H         1 RES1    0.0000
     26 H9        10.7538    7.7438    4.8485 H         1 RES1    0.0000
     27 H10       13.4492    5.9273    6.5933 H         1 RES1    0.0000
     28 H11       13.4612    4.3924    6.8183 H         1 RES1    0.0000
     29 H12       12.9965    4.9741    5.4570 H         1 RES1    0.0000
     30 H13       11.9640    6.1753    8.6378 H         1 RES1    0.0000
     31 H14       10.6744    5.3174    8.7242 H         1 RES1    0.0000
     32 H15       12.0657    4.6361    8.8087 H         1 RES1    0.0000
     33 C1B        8.0396   -0.5925    2.7406 C.ar      1 RES1    0.0000
     34 C2B        7.6626   -0.4690    1.4483 C.ar      1 RES1    0.0000
     35 C3B        7.1549   -1.5446    0.8099 C.ar      1 RES1    0.0000
     36 C4B        6.9995   -2.7578    1.4347 C.ar      1 RES1    0.0000
     37 C5B        7.4429   -2.8575    2.7506 C.ar      1 RES1    0.0000
     38 N1B        7.9581   -1.7743    3.4182 N.ar      1 RES1    0.0000
     39 H3B        7.3897   -3.6948    3.1963 H         1 RES1    0.0000
     40 C6B        6.4245   -3.9158    0.7453 C.2       1 RES1    0.0000
     41 N2B        6.5426   -5.2069    1.0971 N.pl3     1 RES1    1.0000
     42 C7B        5.9261   -6.1439    0.1001 C.3       1 RES1    0.0000
     43 C8B        5.0156   -5.1755   -0.6949 C.3       1 RES1    0.0000
     44 N3B        5.6383   -3.8594   -0.3450 N.3       1 RES1    0.0000
     45 O2B        5.2973   -2.8022   -0.9809 O.2       1 RES1    0.0000
     46 C11B       3.5904   -5.1116   -0.1809 C.3       1 RES1    0.0000
     47 H10B       3.1452   -5.9273   -0.3773 H         1 RES1    0.0000
     48 H11B       3.1333   -4.3924   -0.6023 H         1 RES1    0.0000
     49 H12B       3.5980   -4.9741    0.7590 H         1 RES1    0.0000
     50 C12B       5.0243   -5.3413   -2.1930 C.3       1 RES1    0.0000
     51 H13B       4.6305   -6.1753   -2.4218 H         1 RES1    0.0000
     52 H14B       5.9200   -5.3174   -2.5082 H         1 RES1    0.0000
     53 H15B       4.5288   -4.6361   -2.5927 H         1 RES1    0.0000
     54 C9B        7.0867   -6.7083   -0.7124 C.3       1 RES1    0.0000
     55 H4B        6.7543   -7.3127   -1.3650 H         1 RES1    0.0000
     56 H5B        7.6865   -7.1665   -0.1336 H         1 RES1    0.0000
     57 H6B        7.5466   -5.9977   -1.1450 H         1 RES1    0.0000
     58 C10B       5.2158   -7.2694    0.8329 C.3       1 RES1    0.0000
     59 H7B        4.8244   -7.8619    0.2014 H         1 RES1    0.0000
     60 H8B        4.5353   -6.9054    1.3887 H         1 RES1    0.0000
     61 H9B        5.8407   -7.7438    1.3675 H         1 RES1    0.0000
     62 O1B        7.2377   -5.6586    2.0656 O.2       1 RES1   -1.0000
     63 H2B        6.8981   -1.4591   -0.1001 H         1 RES1    0.0000
     64 H1B        7.7525    0.3618    0.9970 H         1 RES1    0.0000
@<TRIPOS>BOND
     1    1    2 ar
     2    2    3 ar
     3    3    4 ar
     4    4    5 ar
     5    5    6 ar
     6    6    1 ar
     7    7    4 1
     8    8    7 2
     9    9    8 1
    10   10    9 1
    11   11    7 1
    12   12    8 1
    13   13    9 1
    14   14    9 1
    15   15   10 1
    16   16   10 1
    17   17   11 1
    18   18    2 1
    19   19    3 1
    20   20    5 1
    21   21   13 1
    22   22   13 1
    23   23   13 1
    24   24   14 1
    25   25   14 1
    26   26   14 1
    27   27   15 1
    28   28   15 1
    29   29   15 1
    30   30   16 1
    31   31   16 1
    32   32   16 1
    33   33    1 1
    34   34   33 ar
    35   35   34 ar
    36   36   35 ar
    37   37   36 ar
    38   38   33 ar
    39   39   37 1
    40   40   36 1
    41   41   40 2
    42   42   41 1
    43   43   42 1
    44   44   40 1
    45   45   44 1
    46   46   43 1
    47   47   46 1
    48   48   46 1
    49   49   46 1
    50   50   43 1
    51   51   50 1
    52   52   50 1
    53   53   50 1
    54   54   42 1
    55   55   54 1
    56   56   54 1
    57   57   54 1
    58   58   42 1
    59   59   58 1
    60   60   58 1
    61   61   58 1
    62   62   41 1
    63   63   35 1
    64   64   34 1
    65   10   11 1
    66   37   38 ar
    67   43   44 1
@<TRIPOS>SUBSTRUCTURE
     1 RES1 1

@<TRIPOS>CRYSIN
  17.2160   10.8320    6.2470  90.0000  95.7100  90.0000 231 1

