# MOL2 file generated by ConQuest
# Please check atom types

@<TRIPOS>MOLECULE
FUQBOI01
    17    18     1
SMALL
NO_CHARGES
****
Generated from CSD

@<TRIPOS>ATOM
      1 O1         3.5685    1.2293    3.8699 O.3       1 RES1    0.0000
      2 O2         6.3585   -2.0113   -0.6622 O.2       1 RES1    0.0000
      3 O3         4.4437   -2.9823   -0.6807 O.2       1 RES1    0.0000
      4 N1        -1.3719    0.8009    6.4088 N.pl3     1 RES1    0.0000
      5 N2         5.2126   -2.1454   -0.2517 N.pl3     1 RES1    0.0000
      6 C1        -0.1253    0.8648    5.7720 C.ar      1 RES1    0.0000
      7 C2         0.9083    0.0108    6.0997 C.ar      1 RES1    0.0000
      8 C3         2.1312    0.1017    5.4595 C.ar      1 RES1    0.0000
      9 C4         2.3105    1.0538    4.4848 C.ar      1 RES1    0.0000
     10 C5         1.3083    1.9240    4.1672 C.ar      1 RES1    0.0000
     11 C6         0.1062    1.8340    4.8125 C.ar      1 RES1    0.0000
     12 C7         3.8854    0.3735    2.8243 C.ar      1 RES1    0.0000
     13 C8         5.1701    0.5030    2.3277 C.ar      1 RES1    0.0000
     14 C9         5.6005   -0.3159    1.3193 C.ar      1 RES1    0.0000
     15 C10        4.7129   -1.1870    0.7551 C.ar      1 RES1    0.0000
     16 C11        3.4584   -1.3633    1.2534 C.ar      1 RES1    0.0000
     17 C12        3.0172   -0.5480    2.2787 C.ar      1 RES1    0.0000
@<TRIPOS>BOND
     1    1    9 1
     2    2    5 2
     3    3    5 2
     4    4    6 1
     5    5   15 1
     6    6    7 ar
     7    7    8 ar
     8    8    9 ar
     9    9   10 ar
    10   10   11 ar
    11   11    6 ar
    12   12    1 1
    13   13   12 ar
    14   14   13 ar
    15   15   14 ar
    16   16   15 ar
    17   17   12 ar
    18   16   17 ar
@<TRIPOS>SUBSTRUCTURE
     1 RES1 1

@<TRIPOS>CRYSIN
   7.2340    8.9990   16.9070  90.0000  92.4200  90.0000  14 1

