# MOL2 file generated by ConQuest
# Please check atom types

@<TRIPOS>MOLECULE
FUQFAY
    36    37     1
SMALL
NO_CHARGES
****
Generated from CSD

@<TRIPOS>ATOM
      1 O1         3.1326   -0.3889    5.4413 O.3       1 RES1    0.0000
      2 O2         2.1198   -2.3446    8.5693 O.3       1 RES1    0.0000
      3 O3         6.5527   -0.9244   11.1005 O.3       1 RES1    0.0000
      4 O4        -0.3025    3.9695    9.9614 O.2       1 RES1    0.0000
      5 O5         1.0323    5.0117   11.2869 O.2       1 RES1    0.0000
      6 N1         2.8932   -1.6536    7.6299 N.2       1 RES1    0.0000
      7 N2         5.6224    0.1221   11.0992 N.2       1 RES1    0.0000
      8 N3         0.7576    4.0777   10.5569 N.pl3     1 RES1    0.0000
      9 C1         3.6299    0.9911   10.2797 C.ar      1 RES1    0.0000
     10 C2         3.9965    2.2888   10.6332 C.ar      1 RES1    0.0000
     11 C3         3.0722    3.2936   10.7167 C.ar      1 RES1    0.0000
     12 C4         1.7585    3.0150   10.3947 C.ar      1 RES1    0.0000
     13 C5         1.3650    1.7742    9.9722 C.ar      1 RES1    0.0000
     14 C6         2.2965    0.7559    9.9275 C.ar      1 RES1    0.0000
     15 C7         4.6270   -0.0967   10.3100 C.2       1 RES1    0.0000
     16 C8         4.4221   -1.3686    9.5377 C.3       1 RES1    0.0000
     17 C9         3.9862   -1.1722    8.1044 C.2       1 RES1    0.0000
     18 C10        4.8252   -0.4105    7.1590 C.ar      1 RES1    0.0000
     19 C11        4.3764   -0.0445    5.8783 C.ar      1 RES1    0.0000
     20 C12        5.1733    0.6964    5.0249 C.ar      1 RES1    0.0000
     21 C13        6.4449    1.0652    5.4231 C.ar      1 RES1    0.0000
     22 C14        6.9204    0.7044    6.6518 C.ar      1 RES1    0.0000
     23 C15        6.1254   -0.0285    7.5088 C.ar      1 RES1    0.0000
     24 H1         4.8784    2.5059   10.8826 H         1 RES1    0.0000
     25 H2         3.3130    4.1612   11.0036 H         1 RES1    0.0000
     26 H3         0.4219    1.6110    9.7447 H         1 RES1    0.0000
     27 H4         2.0291   -0.1358    9.7326 H         1 RES1    0.0000
     28 H5         3.7268   -1.8927   10.0231 H         1 RES1    0.0000
     29 H6         5.2635   -1.8555    9.5510 H         1 RES1    0.0000
     30 H7         6.4495   -0.3259    8.3526 H         1 RES1    0.0000
     31 H8         7.8444    0.9443    6.9726 H         1 RES1    0.0000
     32 H9         4.7856    0.9682    4.1400 H         1 RES1    0.0000
     33 H10        2.8001   -0.9562    6.1373 H         1 RES1    0.0000
     34 H11        1.4996   -2.6260    8.0621 H         1 RES1    0.0000
     35 H12        7.1627   -0.7077   11.6210 H         1 RES1    0.0000
     36 H13        7.0037    1.5731    4.8179 H         1 RES1    0.0000
@<TRIPOS>BOND
     1    1   19 1
     2    2    6 1
     3    3    7 1
     4    4    8 2
     5    5    8 2
     6    6   17 2
     7    7   15 2
     8    8   12 1
     9    9   10 ar
    10   10   11 ar
    11   11   12 ar
    12   12   13 ar
    13   13   14 ar
    14   14    9 ar
    15   15    9 1
    16   16   15 1
    17   17   16 1
    18   18   17 1
    19   19   18 ar
    20   20   19 ar
    21   21   20 ar
    22   22   21 ar
    23   23   18 ar
    24   24   10 1
    25   25   11 1
    26   26   13 1
    27   27   14 1
    28   28   16 1
    29   29   16 1
    30   30   23 1
    31   31   22 1
    32   32   20 1
    33   33    1 1
    34   34    2 1
    35   35    3 1
    36   36   21 1
    37   22   23 ar
@<TRIPOS>SUBSTRUCTURE
     1 RES1 1

@<TRIPOS>CRYSIN
   6.9790    8.3090   13.1280 105.5660 105.2870  93.1500   2 1

