# MOL2 file generated by ConQuest
# Please check atom types

@<TRIPOS>MOLECULE
FUQKOR
    55    34     2
SMALL
NO_CHARGES
****
Generated from CSD

@<TRIPOS>ATOM
      1 N1         2.6224    5.0492    0.7430 N.2       1 RES1    0.0000
      2 C1         1.6749    4.5777    1.5200 C.2       1 RES1    0.0000
      3 N2         0.6133    5.3080    1.9973 N.am      1 RES1    0.0000
      4 C2        -0.5232    4.6474    2.6548 C.3       1 RES1    0.0000
      5 C3         0.5803    6.7017    1.8308 C.2       1 RES1    0.0000
      6 O1        -0.3120    7.3607    2.3373 O.2       1 RES1    0.0000
      7 C4         1.6517    7.2563    1.0199 C.2       1 RES1    0.0000
      8 N3         1.6793    8.5838    0.9710 N.2       1 RES1    0.0000
      9 O2         2.5903    9.1161    0.2237 O.2       1 RES1    0.0000
     10 C5         2.6090    6.3529    0.4113 C.2       1 RES1    0.0000
     11 N4         3.5298    6.7669   -0.4113 N.3       1 RES1    0.0000
     12 N5         1.7399    3.2848    1.8552 N.3       1 RES1    0.0000
     13 C6         2.8345    2.4300    1.4051 C.3       1 RES1    0.0000
     14 C7         2.2409    1.0789    1.0421 C.2       1 RES1    0.0000
     15 O3         3.1296    0.2662    0.5628 O.3       1 RES1    0.0000
     16 O4         1.0794    0.8231    1.1922 O.2       1 RES1    0.0000
     17 C8         3.9559    2.3468    2.4393 C.3       1 RES1    0.0000
     18 C9         3.6287    1.6639    3.6812 C.3       1 RES1    0.0000
     19 C10        3.9888    3.3908    3.5114 Du        2 SUP2    0.0000
     20 C11        5.2769    1.9901    1.9144 C.3       1 RES1    0.0000
     21 C12        4.7545    3.5978    2.5817 Du        2 SUP2    0.0000
     22 H1        -1.1980    5.2988    2.8585 H         1 RES1    0.0000
     23 H2        -0.2246    4.2312    3.4670 H         1 RES1    0.0000
     24 H3        -0.8878    3.9803    2.0698 H         1 RES1    0.0000
     25 H4         4.1118    6.2134   -0.7182 H         1 RES1    0.0000
     26 H5         3.5556    7.5938   -0.6477 H         1 RES1    0.0000
     27 H6         1.1204    2.9487    2.3492 H         1 RES1    0.0000
     28 H7         2.7998   -0.5276    0.5223 H         1 RES1    0.0000
     29 H8         3.2071    2.8227    0.5889 H         1 RES1    0.0000
     30 H9         4.0646    3.2805    2.7175 H         1 RES1    0.0000
     31 H10        4.3971    1.4873    2.6026 Du        2 SUP2    0.0000
     32 H11        2.9094    2.1240    4.1187 H         1 RES1    0.0000
     33 H12        4.3989    1.6560    4.2545 H         1 RES1    0.0000
     34 H13        3.3631    0.7616    3.4892 H         1 RES1    0.0000
     35 H14        4.2045    0.9034    3.7896 Du        2 SUP2    0.0000
     36 H15        2.7151    1.3725    3.6551 Du        2 SUP2    0.0000
     37 H16        3.7508    2.2658    4.4190 Du        2 SUP2    0.0000
     38 H17        4.3302    4.2109    3.1484 Du        2 SUP2    0.0000
     39 H18        4.5575    3.0972    4.2270 Du        2 SUP2    0.0000
     40 H19        3.1010    3.5337    3.8457 Du        2 SUP2    0.0000
     41 H20        3.6617    3.0162    4.3328 Du        2 SUP2    0.0000
     42 H21        3.4353    4.1310    3.2542 Du        2 SUP2    0.0000
     43 H22        4.8918    3.6934    3.6342 Du        2 SUP2    0.0000
     44 H23        5.5220    2.6055    1.2197 H         1 RES1    0.0000
     45 H24        5.2492    1.0991    1.5579 H         1 RES1    0.0000
     46 H25        5.9249    2.0306    2.6221 H         1 RES1    0.0000
     47 H26        5.6084    1.2184    2.3793 Du        2 SUP2    0.0000
     48 H27        5.8812    2.7248    2.0410 Du        2 SUP2    0.0000
     49 H28        5.2055    1.7921    0.9781 Du        2 SUP2    0.0000
     50 H29        4.8018    4.0444    1.7329 Du        2 SUP2    0.0000
     51 H30        5.6405    3.3795    2.8781 Du        2 SUP2    0.0000
     52 H31        4.3347    4.1738    3.2241 Du        2 SUP2    0.0000
     53 H32        5.0496    3.6867    3.4905 Du        2 SUP2    0.0000
     54 H33        4.2108    4.3527    2.3453 Du        2 SUP2    0.0000
     55 H34        5.5166    3.5573    1.9993 Du        2 SUP2    0.0000
@<TRIPOS>BOND
     1    1    2 2
     2    2    3 1
     3    3    4 1
     4    4   22 1
     5    5    3 1
     6    6    5 2
     7    7    5 1
     8    8    7 1
     9    9    8 2
    10   10    1 1
    11   11   10 1
    12   12    2 1
    13   13   12 1
    14   14   13 1
    15   15   14 1
    16   16   14 2
    17   17   13 1
    18   18   17 1
    19   20   17 1
    20   23    4 1
    21   24    4 1
    22   25   11 1
    23   26   11 1
    24   27   12 1
    25   28   15 1
    26   29   13 1
    27   30   17 1
    28   32   18 1
    29   33   18 1
    30   34   18 1
    31   44   20 1
    32   45   20 1
    33   46   20 1
    34    7   10 2
@<TRIPOS>SUBSTRUCTURE
     1 RES1 1
     2 SUP2 19

@<TRIPOS>CRYSIN
   8.9136   11.2501   13.0585  90.0000  90.0000  90.0000  19 1

