# MOL2 file generated by ConQuest
# Please check atom types

@<TRIPOS>MOLECULE
FUQLAE
    32    32     1
SMALL
NO_CHARGES
****
Generated from CSD

@<TRIPOS>ATOM
      1 N1         2.3761    1.5522    7.4888 N.2       1 RES1    0.0000
      2 C1         3.6540    1.1604    7.5275 C.2       1 RES1    0.0000
      3 N2         4.3864    1.3415    6.4283 N.3       1 RES1    0.0000
      4 H1         5.2742    1.0712    6.4070 H         1 RES1    0.0000
      5 C2         3.8643    2.0465    5.2606 C.3       1 RES1    0.0000
      6 H2         2.8926    2.1210    5.3684 H         1 RES1    0.0000
      7 C3         4.1301    1.2684    3.9732 C.2       1 RES1    0.0000
      8 O1         3.6394    1.8433    2.9376 O.3       1 RES1    0.0000
      9 H3         3.9890    1.5361    2.2628 H         1 RES1    0.0000
     10 O2         4.7525    0.1999    3.9694 O.2       1 RES1    0.0000
     11 C4         4.4316    3.4726    5.1383 C.3       1 RES1    0.0000
     12 H4         3.9392    3.9267    4.4230 H         1 RES1    0.0000
     13 C5         4.2496    4.2855    6.4101 C.3       1 RES1    0.0000
     14 H5         4.7782    3.9019    7.1140 H         1 RES1    0.0000
     15 H6         3.3235    4.2788    6.6651 H         1 RES1    0.0000
     16 H7         4.5314    5.1897    6.2557 H         1 RES1    0.0000
     17 O3         5.8018    3.4028    4.7418 O.3       1 RES1    0.0000
     18 H8         6.2815    3.4632    5.4036 H         1 RES1    0.0000
     19 N3         4.2492    0.5742    8.6174 N.am      1 RES1    0.0000
     20 C6         5.6961    0.3468    8.6367 C.3       1 RES1    0.0000
     21 H9         5.9135   -0.3783    8.0458 H         1 RES1    0.0000
     22 H10        5.9731    0.1268    9.5292 H         1 RES1    0.0000
     23 H11        6.1484    1.1423    8.3475 H         1 RES1    0.0000
     24 C7         3.5516    0.3689    9.8142 C.2       1 RES1    0.0000
     25 O4         4.0903   -0.1570   10.7631 O.2       1 RES1    0.0000
     26 C8         2.1540    0.8525    9.8142 C.2       1 RES1    0.0000
     27 N4         1.5680    0.8116   10.9909 N.2       1 RES1    0.0000
     28 O5         0.3308    1.2865   11.0412 O.2       1 RES1    0.0000
     29 C9         1.6257    1.4261    8.5828 C.2       1 RES1    0.0000
     30 N5         0.3870    1.8507    8.5249 N.3       1 RES1    0.0000
     31 H12        0.0841    2.1968    7.7981 H         1 RES1    0.0000
     32 H13       -0.1230    1.7836    9.2140 H         1 RES1    0.0000
@<TRIPOS>BOND
     1    1    2 2
     2    2    3 1
     3    3    4 1
     4    5    3 1
     5    6    5 1
     6    7    5 1
     7    8    7 1
     8    9    8 1
     9   10    7 2
    10   11    5 1
    11   12   11 1
    12   13   11 1
    13   14   13 1
    14   15   13 1
    15   16   13 1
    16   17   11 1
    17   18   17 1
    18   19    2 1
    19   20   19 1
    20   21   20 1
    21   22   20 1
    22   23   20 1
    23   24   19 1
    24   25   24 2
    25   26   24 1
    26   27   26 1
    27   28   27 2
    28   29    1 1
    29   30   29 1
    30   31   30 1
    31   32   30 1
    32   26   29 2
@<TRIPOS>SUBSTRUCTURE
     1 RES1 1

@<TRIPOS>CRYSIN
   8.3686    6.7077   11.1230  90.0000 111.2650  90.0000   4 1

