# MOL2 file generated by ConQuest
# Please check atom types

@<TRIPOS>MOLECULE
FUQPOX
    74    74     2
SMALL
NO_CHARGES
****
Generated from CSD

@<TRIPOS>ATOM
      1 O1         5.3354    5.0749   10.3586 O.2       1 RES1    0.0000
      2 O2         5.3132    5.1755   12.5020 O.2       1 RES1    0.0000
      3 O3        -0.4218    1.4333   10.1871 O.3       1 RES1    0.0000
      4 H1        -1.1296    1.8862   10.2040 H         1 RES1    0.0000
      5 N1         4.8535    4.8006   11.4345 N.pl3     1 RES1    0.0000
      6 C1         2.8865   -0.7724   11.0597 C.2       1 RES1    0.0000
      7 H2         3.2293   -0.6441   11.9365 H         1 RES1    0.0000
      8 H3         3.4553   -1.0936   10.3714 H         1 RES1    0.0000
      9 C2         1.6431   -0.5108   10.8055 C.2       1 RES1    0.0000
     10 H4         1.3398   -0.6525    9.9160 H         1 RES1    0.0000
     11 C3         0.6399    0.0000   11.8009 C.3       1 RES1    0.0000
     12 H5         1.1439    0.0537   12.6629 H         1 RES1    0.0000
     13 C4         0.1927    1.4333   11.5235 C.3       1 RES1    0.0000
     14 H6        -0.4661    1.7352   12.2139 H         1 RES1    0.0000
     15 C5         1.4045    2.3928   11.4727 C.ar      1 RES1    0.0000
     16 C6         1.9464    2.8456   12.6905 C.ar      1 RES1    0.0000
     17 H7         1.5499    2.5966   13.5164 H         1 RES1    0.0000
     18 C7         3.0540    3.6508   12.6672 C.ar      1 RES1    0.0000
     19 H8         3.4221    3.9795   13.4783 H         1 RES1    0.0000
     20 C8         3.6322    3.9812   11.4642 C.ar      1 RES1    0.0000
     21 C9         3.0982    3.5468   10.2803 C.ar      1 RES1    0.0000
     22 H9         3.5042    3.7900    9.4543 H         1 RES1    0.0000
     23 C10        1.9796    2.7626   10.2909 C.ar      1 RES1    0.0000
     24 H10        1.5989    2.4724    9.4691 H         1 RES1    0.0000
     25 C11       -0.5151   -0.9930   12.0826 C.3       1 RES1    0.0000
     26 C12       -1.3050   -1.3587   10.8860 C.3       1 RES1    0.0000
     27 H11       -0.7236   -1.8048   10.2337 H         1 RES1    0.0000
     28 H12       -1.6842   -0.5493   10.4836 H         1 RES1    0.0000
     29 H13       -2.0302   -1.9650   11.1444 H         1 RES1    0.0000
     30 C13       -1.4756   -0.3564   13.1437 C.3       1 RES1    0.0000
     31 H14       -2.1408   -1.0198   13.4233 H         1 RES1    0.0000
     32 H15       -1.9307    0.4177   12.7519 H         1 RES1    0.0000
     33 H16       -0.9558   -0.0679   13.9231 H         1 RES1    0.0000
     34 C14        0.0490   -2.1697   12.7582 C.3       1 RES1    0.0000
     35 H17       -0.6778   -2.7190   13.1183 H         1 RES1    0.0000
     36 H18        0.6320   -1.8778   13.4889 H         1 RES1    0.0000
     37 H19        0.5688   -2.6964   12.1144 H         1 RES1    0.0000
     38 O4         6.3876    5.0463    7.3279 O.2       2 RES2    0.0000
     39 O5         6.4634    5.0564    5.1656 O.2       2 RES2    0.0000
     40 O6        12.1479    1.4887    7.8511 O.3       2 RES2    0.0000
     41 H20       12.6646    2.1495    7.9061 H         2 RES2    0.0000
     42 N2         6.9089    4.7318    6.2647 N.pl3     2 RES2    0.0000
     43 C15        8.8981   -0.8144    6.9488 C.2       2 RES2    0.0000
     44 H21        8.5742   -0.7917    6.0551 H         2 RES2    0.0000
     45 H22        8.3230   -1.0811    7.6541 H         2 RES2    0.0000
     46 C16       10.1430   -0.4755    7.2051 C.2       2 RES2    0.0000
     47 H23       10.4021   -0.5200    8.1179 H         2 RES2    0.0000
     48 C17       11.1605   -0.0470    6.2880 C.3       2 RES2    0.0000
     49 H24       10.7102   -0.0377    5.3964 H         2 RES2    0.0000
     50 C18       11.5760    1.4392    6.5358 C.3       2 RES2    0.0000
     51 H25       12.2569    1.7185    5.8581 H         2 RES2    0.0000
     52 C19       10.3626    2.3466    6.4490 C.ar      2 RES2    0.0000
     53 C20        9.6943    2.7467    7.5927 C.ar      2 RES2    0.0000
     54 H26       10.0182    2.4540    8.4377 H         2 RES2    0.0000
     55 C21        8.5947    3.5384    7.5609 C.ar      2 RES2    0.0000
     56 H27        8.1634    3.8252    8.3572 H         2 RES2    0.0000
     57 C22        8.1239    3.9141    6.2923 C.ar      2 RES2    0.0000
     58 C23        8.7195    3.5610    5.1296 C.ar      2 RES2    0.0000
     59 H28        8.3751    3.8303    4.2866 H         2 RES2    0.0000
     60 C24        9.8697    2.7794    5.2418 C.ar      2 RES2    0.0000
     61 H29       10.3310    2.5353    4.4476 H         2 RES2    0.0000
     62 C25       12.3675   -1.0291    6.1101 C.3       2 RES2    0.0000
     63 C26       11.8098   -2.3382    5.5298 C.3       2 RES2    0.0000
     64 H30       12.5397   -2.9832    5.4197 H         2 RES2    0.0000
     65 H31       11.3959   -2.1613    4.6594 H         2 RES2    0.0000
     66 H32       11.1399   -2.7073    6.1419 H         2 RES2    0.0000
     67 C27       13.1038   -1.2555    7.4148 C.3       2 RES2    0.0000
     68 H33       12.4971   -1.6681    8.0650 H         2 RES2    0.0000
     69 H34       13.4213   -0.3967    7.7642 H         2 RES2    0.0000
     70 H35       13.8684   -1.8476    7.2602 H         2 RES2    0.0000
     71 C28       13.3471   -0.5024    5.0808 C.3       2 RES2    0.0000
     72 H36       14.0328   -1.1809    4.9051 H         2 RES2    0.0000
     73 H37       13.7737    0.3112    5.4218 H         2 RES2    0.0000
     74 H38       12.8699   -0.2977    4.2506 H         2 RES2    0.0000
@<TRIPOS>BOND
     1    1    5 2
     2    2    5 2
     3    3    4 1
     4    5   20 1
     5    6    7 1
     6    8    6 1
     7    9    6 2
     8   10    9 1
     9   11    9 1
    10   12   11 1
    11   13    3 1
    12   14   13 1
    13   15   13 1
    14   16   15 ar
    15   17   16 1
    16   18   16 ar
    17   19   18 1
    18   20   18 ar
    19   21   20 ar
    20   22   21 1
    21   23   15 ar
    22   24   23 1
    23   25   11 1
    24   26   25 1
    25   27   26 1
    26   28   26 1
    27   29   26 1
    28   30   25 1
    29   31   30 1
    30   32   30 1
    31   33   30 1
    32   34   25 1
    33   35   34 1
    34   36   34 1
    35   37   34 1
    36   38   42 2
    37   39   42 2
    38   40   41 1
    39   42   57 1
    40   43   44 1
    41   45   43 1
    42   46   43 2
    43   47   46 1
    44   48   46 1
    45   49   48 1
    46   50   40 1
    47   51   50 1
    48   52   50 1
    49   53   52 ar
    50   54   53 1
    51   55   53 ar
    52   56   55 1
    53   57   55 ar
    54   58   57 ar
    55   59   58 1
    56   60   52 ar
    57   61   60 1
    58   62   48 1
    59   63   62 1
    60   64   63 1
    61   65   63 1
    62   66   63 1
    63   67   62 1
    64   68   67 1
    65   69   67 1
    66   70   67 1
    67   71   62 1
    68   72   71 1
    69   73   71 1
    70   74   71 1
    71   11   13 1
    72   21   23 ar
    73   48   50 1
    74   58   60 ar
@<TRIPOS>SUBSTRUCTURE
     1 RES1 1
     2 RES2 38

@<TRIPOS>CRYSIN
  15.7991    8.3868   21.1790  90.0000  90.0000  90.0000  29 1

