# MOL2 file generated by ConQuest
# Please check atom types

@<TRIPOS>MOLECULE
FURBUR
   110    58     2
SMALL
NO_CHARGES
****
Generated from CSD

@<TRIPOS>ATOM
      1 O1         0.1818    8.4128    4.7451 O.2       1 RES1    0.0000
      2 O2         3.7679    8.2510    9.0856 O.2       1 RES1    0.0000
      3 O3         4.7170    3.9045    9.7426 O.2       1 RES1    0.0000
      4 O4         2.8784    5.0141    5.7660 O.2       1 RES1    0.0000
      5 O5         6.4512    5.8450    2.7870 O.2       1 RES1    0.0000
      6 O6         8.3972    6.7300    3.0709 O.2       1 RES1    0.0000
      7 O7         0.4100    5.6400   13.5043 O.2       1 RES1    0.0000
      8 O8         1.0003    7.5696   12.6961 O.2       1 RES1    0.0000
      9 N1         4.2635    6.0905    9.3858 N.am      1 RES1    0.0000
     10 N2         3.8339    4.4678    7.7356 N.am      1 RES1    0.0000
     11 N3         7.2240    6.5852    3.3973 N.pl3     1 RES1    0.0000
     12 N4         0.6745    6.3863   12.5666 N.pl3     1 RES1    0.0000
     13 C1         3.3635    7.8605    6.3127 C.3       1 RES1    0.0000
     14 H1         3.1818    8.7246    6.7402 H         1 RES1    0.0000
     15 C2         2.4700    7.8200    5.0682 C.3       1 RES1    0.0000
     16 H2         2.6520    8.6043    4.5265 H         1 RES1    0.0000
     17 H3         2.7026    7.0381    4.5417 H         1 RES1    0.0000
     18 C3         1.0048    7.7758    5.3717 C.2       1 RES1    0.0000
     19 C4         0.5826    6.8515    6.4835 C.3       1 RES1    0.0000
     20 H4         0.6139    5.9359    6.1636 H         1 RES1    0.0000
     21 H5        -0.3351    7.0479    6.7282 H         1 RES1    0.0000
     22 C5         1.4660    6.9779    7.7182 C.3       1 RES1    0.0000
     23 H6         1.3709    7.9034    8.0282 H         1 RES1    0.0000
     24 C6         3.0035    6.7803    7.3777 C.3       1 RES1    0.0000
     25 C7         3.7423    7.1191    8.6689 C.2       1 RES1    0.0000
     26 C8         4.3061    4.7624    8.9953 C.2       1 RES1    0.0000
     27 C9         3.2423    5.3590    6.8762 C.2       1 RES1    0.0000
     28 C10        4.8428    7.8850    5.9483 C.ar      1 RES1    0.0000
     29 C11        5.7091    8.7025    6.6749 C.ar      1 RES1    0.0000
     30 H7         5.3836    9.1812    7.4016 H         1 RES1    0.0000
     31 C12        7.0414    8.8129    6.3355 C.ar      1 RES1    0.0000
     32 H8         7.5993    9.3592    6.8414 H         1 RES1    0.0000
     33 C13        7.5528    8.1330    5.2662 C.ar      1 RES1    0.0000
     34 H9         8.4490    8.2115    5.0301 H         1 RES1    0.0000
     35 C14        6.6977    7.3290    4.5537 C.ar      1 RES1    0.0000
     36 C15        5.3532    7.1731    4.8778 C.ar      1 RES1    0.0000
     37 H10        4.8093    6.6011    4.3850 H         1 RES1    0.0000
     38 C16        1.0277    6.0991    8.8691 C.ar      1 RES1    0.0000
     39 C17        0.6886    4.7612    8.6939 C.ar      1 RES1    0.0000
     40 H11        0.6835    4.3991    7.8367 H         1 RES1    0.0000
     41 C18        0.3592    3.9511    9.7818 C.ar      1 RES1    0.0000
     42 H12        0.1395    3.0575    9.6480 H         1 RES1    0.0000
     43 C19        0.3592    4.4813   11.0632 C.ar      1 RES1    0.0000
     44 H13        0.1418    3.9548   11.7997 H         1 RES1    0.0000
     45 C20        0.6832    5.7935   11.2112 C.ar      1 RES1    0.0000
     46 C21        1.0098    6.6244   10.1527 C.ar      1 RES1    0.0000
     47 H14        1.2151    7.5205   10.3007 H         1 RES1    0.0000
     48 C22        4.8764    6.4317   10.6705 C.3       1 RES1    0.0000
     49 H15        5.2206    5.6351   11.0817 H         1 RES1    0.0000
     50 H16        4.2177    6.8294   11.2438 H         1 RES1    0.0000
     51 H17        5.5928    7.0540   10.5280 H         1 RES1    0.0000
     52 C23        3.9670    3.0526    7.3167 C.3       1 RES1    0.0000
     53 H18        4.8363    2.7273    7.5626 H         1 RES1    0.0000
     54 H19        3.8588    2.9888    6.3649 H         1 RES1    0.0000
     55 H20        3.2940    2.5248    7.7519 H         1 RES1    0.0000
     56 O9         0.2096    8.4447    4.8408 Du        2 SUP2    0.0000
     57 O10        3.3210    8.1514    8.5678 Du        2 SUP2    0.0000
     58 O11        4.9644    4.1119    9.7578 Du        2 SUP2    0.0000
     59 O12        2.9299    4.3390    5.7764 Du        2 SUP2    0.0000
     60 O13        6.6655    5.3860    2.5945 Du        2 SUP2    0.0000
     61 O14        8.4017    6.5913    2.8392 Du        2 SUP2    0.0000
     62 O15        0.2458    5.9629   13.3346 Du        2 SUP2    0.0000
     63 O16        0.8423    7.7586   12.2435 Du        2 SUP2    0.0000
     64 N5         4.2089    6.1813    9.1595 Du        2 SUP2    0.0000
     65 N6         3.9156    4.2334    7.7997 Du        2 SUP2    0.0000
     66 N7         7.2549    6.2795    3.1438 Du        2 SUP2    0.0000
     67 N8         0.6631    6.5287   12.3306 Du        2 SUP2    0.0000
     68 C24        3.1901    7.1694    5.7938 Du        2 SUP2    0.0000
     69 H21        2.8936    6.6171    5.0399 Du        2 SUP2    0.0000
     70 C25        2.4261    8.4889    5.6545 Du        2 SUP2    0.0000
     71 H22        2.7347    9.1100    6.3333 Du        2 SUP2    0.0000
     72 H23        2.6139    8.8780    4.7865 Du        2 SUP2    0.0000
     73 C26        0.9366    8.2876    5.8025 Du        2 SUP2    0.0000
     74 C27        0.6050    7.6432    7.1492 Du        2 SUP2    0.0000
     75 H24       -0.3570    7.5352    7.2243 Du        2 SUP2    0.0000
     76 H25        0.8970    8.2287    7.8650 Du        2 SUP2    0.0000
     77 C28        1.2830    6.2758    7.3037 Du        2 SUP2    0.0000
     78 H26        0.9143    5.6928    6.6075 Du        2 SUP2    0.0000
     79 C29        2.8689    6.3262    7.0840 Du        2 SUP2    0.0000
     80 C30        3.4428    6.9816    8.3339 Du        2 SUP2    0.0000
     81 C31        4.3022    4.8029    9.0181 Du        2 SUP2    0.0000
     82 C32        3.2864    4.8987    6.8022 Du        2 SUP2    0.0000
     83 C33        4.7099    7.3670    5.5849 Du        2 SUP2    0.0000
     84 C34        5.3961    8.3379    6.2779 Du        2 SUP2    0.0000
     85 H27        4.9545    8.8363    6.9273 Du        2 SUP2    0.0000
     86 C35        6.7335    8.5822    6.0201 Du        2 SUP2    0.0000
     87 H28        7.2164    9.1615    6.5618 Du        2 SUP2    0.0000
     88 C36        7.3423    7.9587    4.9529 Du        2 SUP2    0.0000
     89 H29        8.2028    8.2005    4.6983 Du        2 SUP2    0.0000
     90 C37        6.6701    6.9779    4.2665 Du        2 SUP2    0.0000
     91 C38        5.3374    6.7128    4.5591 Du        2 SUP2    0.0000
     92 H30        4.8689    6.0868    4.0543 Du        2 SUP2    0.0000
     93 C39        0.9636    5.6192    8.6591 Du        2 SUP2    0.0000
     94 C40        0.8587    4.2371    8.7516 Du        2 SUP2    0.0000
     95 H31        0.9373    3.7130    7.9869 Du        2 SUP2    0.0000
     96 C41        0.6356    3.6369    9.9852 Du        2 SUP2    0.0000
     97 H32        0.5647    2.7114   10.0461 Du        2 SUP2    0.0000
     98 C42        0.5173    4.4200   11.1274 Du        2 SUP2    0.0000
     99 H33        0.3677    4.0198   11.9531 Du        2 SUP2    0.0000
    100 C43        0.6222    5.8033   11.0350 Du        2 SUP2    0.0000
    101 C44        0.8453    6.4035    9.8014 Du        2 SUP2    0.0000
    102 H34        0.9162    7.3290    9.7404 Du        2 SUP2    0.0000
    103 C45        4.7555    6.7877   10.3888 Du        2 SUP2    0.0000
    104 H35        5.7127    6.7558   10.3638 Du        2 SUP2    0.0000
    105 H36        4.4427    6.2894   11.1535 Du        2 SUP2    0.0000
    106 H37        4.4608    7.6948   10.4595 Du        2 SUP2    0.0000
    107 C46        4.1305    2.7666    7.7127 Du        2 SUP2    0.0000
    108 H38        5.0565    2.5874    7.5223 Du        2 SUP2    0.0000
    109 H39        3.5874    2.4082    7.0035 Du        2 SUP2    0.0000
    110 H40        3.8879    2.3554    8.5416 Du        2 SUP2    0.0000
@<TRIPOS>BOND
     1    1   18 2
     2    2   25 2
     3    3   26 2
     4    4   27 2
     5    5   11 2
     6    6   11 2
     7    7   12 2
     8    8   12 2
     9    9   25 1
    10   10   26 1
    11   11   35 1
    12   12   45 1
    13   13   14 1
    14   15   13 1
    15   16   15 1
    16   17   15 1
    17   18   15 1
    18   19   18 1
    19   20   19 1
    20   21   19 1
    21   22   19 1
    22   23   22 1
    23   24   13 1
    24   25   24 1
    25   26    9 1
    26   27   10 1
    27   28   13 1
    28   29   28 ar
    29   30   29 1
    30   31   29 ar
    31   32   31 1
    32   33   31 ar
    33   34   33 1
    34   35   33 ar
    35   36   28 ar
    36   37   36 1
    37   38   22 1
    38   39   38 ar
    39   40   39 1
    40   41   39 ar
    41   42   41 1
    42   43   41 ar
    43   44   43 1
    44   45   43 ar
    45   46   38 ar
    46   47   46 1
    47   48    9 1
    48   49   48 1
    49   50   48 1
    50   51   48 1
    51   52   10 1
    52   53   52 1
    53   54   52 1
    54   55   52 1
    55   22   24 1
    56   24   27 1
    57   35   36 ar
    58   45   46 ar
@<TRIPOS>SUBSTRUCTURE
     1 RES1 1
     2 SUP2 56

@<TRIPOS>CRYSIN
  16.2647   12.2743   10.9288  90.0000  95.5100  90.0000  14 1

