# MOL2 file generated by ConQuest
# Please check atom types

@<TRIPOS>MOLECULE
FURDOX10
    11    11     1
SMALL
NO_CHARGES
****
Generated from CSD

@<TRIPOS>ATOM
      1 C1         2.9974    1.7653    0.2478 C.2       1 RES1    0.0000
      2 C2         3.0486    2.8842    0.9946 C.2       1 RES1    0.0000
      3 C3         1.7995    2.9765    1.6881 C.2       1 RES1    0.0000
      4 C4         1.0828    1.8779    1.3147 C.2       1 RES1    0.0000
      5 C5        -0.2189    1.3253    1.5770 C.2       1 RES1    0.0000
      6 H1         3.7330    3.7200    1.1113 H         1 RES1    0.0000
      7 H2         1.5772    3.7696    2.2782 H         1 RES1    0.0000
      8 H3        -0.4065    0.4960    1.1113 H         1 RES1    0.0000
      9 N1        -1.1781    1.8630    2.2794 N.2       1 RES1    0.0000
     10 O1         1.8026    1.1041    0.4134 O.3       1 RES1    0.0000
     11 O2        -0.8196    3.0802    2.8317 O.3       1 RES1    0.0000
@<TRIPOS>BOND
     1    1    2 2
     2    2    3 1
     3    3    4 2
     4    4    5 1
     5    5    8 1
     6    6    2 1
     7    7    3 1
     8    9    5 2
     9   10    1 1
    10   11    9 1
    11    4   10 1
@<TRIPOS>SUBSTRUCTURE
     1 RES1 1

@<TRIPOS>CRYSIN
   9.7400    4.9600   14.2600  90.0000 128.8000  90.0000  14 1

