# MOL2 file generated by ConQuest
# Please check atom types

@<TRIPOS>MOLECULE
FURSUI
    52    55     1
SMALL
NO_CHARGES
****
Generated from CSD

@<TRIPOS>ATOM
      1 O1         3.9815    7.2765    8.4437 O.2       1 RES1    0.0000
      2 O2         3.4532    7.5780    4.4598 O.3       1 RES1    0.0000
      3 N1         2.2757    8.0010    7.1413 N.am      1 RES1    0.0000
      4 N2         4.4877    6.7971    5.2072 N.3       1 RES1    0.0000
      5 C1        -2.3447    9.3801    8.5581 C.ar      1 RES1    0.0000
      6 H1        -3.2687    9.4471    8.6501 H         1 RES1    0.0000
      7 C2        -1.5939   10.4980    8.2877 C.ar      1 RES1    0.0000
      8 H2        -2.0095   11.3258    8.2032 H         1 RES1    0.0000
      9 C3        -0.2156   10.3980    8.1375 C.ar      1 RES1    0.0000
     10 H3         0.2820   11.1609    7.9488 H         1 RES1    0.0000
     11 C4         0.4303    9.1767    8.2652 C.ar      1 RES1    0.0000
     12 C5         1.9319    9.0349    8.1431 C.3       1 RES1    0.0000
     13 H4         2.2582    8.7117    9.0088 H         1 RES1    0.0000
     14 C6         3.3346    7.1958    7.3995 C.2       1 RES1    0.0000
     15 C7         3.7054    6.1702    6.3170 C.3       1 RES1    0.0000
     16 C8         5.4763    7.7773    5.6372 C.3       1 RES1    0.0000
     17 H5         6.0670    7.3596    6.2832 H         1 RES1    0.0000
     18 H6         5.0185    8.5051    6.0860 H         1 RES1    0.0000
     19 C9         6.3144    8.3501    4.5114 C.ar      1 RES1    0.0000
     20 C10        7.3105    9.2548    4.8466 C.ar      1 RES1    0.0000
     21 H7         7.4746    9.4482    5.7414 H         1 RES1    0.0000
     22 C11        8.0602    9.8736    3.8645 C.ar      1 RES1    0.0000
     23 H8         8.7159   10.4881    4.1030 H         1 RES1    0.0000
     24 C12        7.8450    9.5845    2.5313 C.ar      1 RES1    0.0000
     25 H9         8.3510   10.0023    1.8722 H         1 RES1    0.0000
     26 C13       -0.3508    8.0544    8.5478 C.ar      1 RES1    0.0000
     27 H10        0.0564    7.2244    8.6407 H         1 RES1    0.0000
     28 C14       -1.7234    8.1610    8.6933 C.ar      1 RES1    0.0000
     29 H11       -2.2279    7.4036    8.8839 H         1 RES1    0.0000
     30 C15        2.1547    7.0639    4.8485 C.3       1 RES1    0.0000
     31 C16        1.5514    8.0192    5.8653 C.3       1 RES1    0.0000
     32 H12        1.5654    8.9195    5.5039 H         1 RES1    0.0000
     33 H13        0.6253    7.7762    6.0212 H         1 RES1    0.0000
     34 C17        1.3058    6.9419    3.6129 C.3       1 RES1    0.0000
     35 H14        1.7106    6.3175    3.0073 H         1 RES1    0.0000
     36 H15        1.2340    7.7993    3.1885 H         1 RES1    0.0000
     37 H16        0.4306    6.6308    3.8561 H         1 RES1    0.0000
     38 C18        2.4725    5.7536    5.5470 C.3       1 RES1    0.0000
     39 H17        1.7541    5.4755    6.1367 H         1 RES1    0.0000
     40 H18        2.6644    5.0446    4.9133 H         1 RES1    0.0000
     41 C19        6.1069    8.0598    3.1726 C.ar      1 RES1    0.0000
     42 H19        5.4491    7.4476    2.9313 H         1 RES1    0.0000
     43 C20        6.8680    8.6688    2.1886 C.ar      1 RES1    0.0000
     44 H20        6.7213    8.4611    1.2938 H         1 RES1    0.0000
     45 C21        4.4955    5.0270    6.9038 C.3       1 RES1    0.0000
     46 H21        5.2627    5.3721    7.3657 H         1 RES1    0.0000
     47 H22        4.7837    4.4422    6.1986 H         1 RES1    0.0000
     48 H23        3.9441    4.5389    7.5187 H         1 RES1    0.0000
     49 C22        2.6860   10.3232    7.8389 C.3       1 RES1    0.0000
     50 H24        2.3888   10.6772    6.9977 H         1 RES1    0.0000
     51 H25        3.6272   10.1408    7.7948 H         1 RES1    0.0000
     52 H26        2.5166   10.9641    8.5328 H         1 RES1    0.0000
@<TRIPOS>BOND
     1    1   14 2
     2    2    4 1
     3    3   12 1
     4    4   15 1
     5    5    6 1
     6    7    5 ar
     7    8    7 1
     8    9    7 ar
     9   10    9 1
    10   11    9 ar
    11   12   11 1
    12   13   12 1
    13   14    3 1
    14   15   14 1
    15   16    4 1
    16   17   16 1
    17   18   16 1
    18   19   16 1
    19   20   19 ar
    20   21   20 1
    21   22   20 ar
    22   23   22 1
    23   24   22 ar
    24   25   24 1
    25   26   11 ar
    26   27   26 1
    27   28    5 ar
    28   29   28 1
    29   30    2 1
    30   31    3 1
    31   32   31 1
    32   33   31 1
    33   34   30 1
    34   35   34 1
    35   36   34 1
    36   37   34 1
    37   38   15 1
    38   39   38 1
    39   40   38 1
    40   41   19 ar
    41   42   41 1
    42   43   24 ar
    43   44   43 1
    44   45   15 1
    45   46   45 1
    46   47   45 1
    47   48   45 1
    48   49   12 1
    49   50   49 1
    50   51   49 1
    51   52   49 1
    52   26   28 ar
    53   30   31 1
    54   30   38 1
    55   41   43 ar
@<TRIPOS>SUBSTRUCTURE
     1 RES1 1

@<TRIPOS>CRYSIN
   9.1440   10.9927    9.6418  90.0000 103.1480  90.0000   4 1

