# MOL2 file generated by ConQuest
# Please check atom types

@<TRIPOS>MOLECULE
FUSJEJ
    33    36     1
SMALL
USER_CHARGES
****
Generated from CSD

@<TRIPOS>ATOM
      1 C1         1.8028   11.1699   15.6414 C.2       1 RES1    0.0000
      2 N1         1.9302   12.2968   14.9490 N.2       1 RES1    0.0000
      3 O1         2.0300   13.3037   15.9082 O.3       1 RES1    0.0000
      4 N2         1.9592   12.7039   17.2177 N.pl3     1 RES1    1.0000
      5 C2         1.8143   11.3966   17.0378 C.2       1 RES1    0.0000
      6 C3         1.7003   10.3849   18.0283 C.2       1 RES1    0.0000
      7 H1         1.7307   10.5814   18.9570 H         1 RES1    0.0000
      8 C4         1.5466    9.1277   17.5630 C.2       1 RES1    0.0000
      9 C5         1.4913    8.8075   16.1650 C.2       1 RES1    0.0000
     10 C6         1.3673    7.6040   15.4158 C.2       1 RES1    0.0000
     11 H2         1.2675    6.7293   15.7705 H         1 RES1    0.0000
     12 C7         1.4192    7.9403   14.0803 C.2       1 RES1    0.0000
     13 N3         1.5884    9.3128   13.9727 N.pl3     1 RES1    0.0000
     14 C8         1.6241    9.8276   15.2248 C.2       1 RES1    0.0000
     15 O2         2.0287   13.4492   18.1963 O.2       1 RES1   -1.0000
     16 O3         1.7077    8.3266   19.7261 O.2       1 RES1    0.0000
     17 N4         1.4475    8.0537   18.5615 N.pl3     1 RES1    0.0000
     18 O4         1.1016    6.9513   18.1841 O.2       1 RES1    0.0000
     19 C9         1.3147    7.0316   12.9405 C.ar      1 RES1    0.0000
     20 C10        1.8190    5.7318   13.0753 C.ar      1 RES1    0.0000
     21 H3         2.2343    5.4787   13.8918 H         1 RES1    0.0000
     22 C11        1.7286    4.8156   12.0560 C.ar      1 RES1    0.0000
     23 H4         2.0705    3.9371   12.1727 H         1 RES1    0.0000
     24 C12        1.1360    5.1764   10.8572 C.ar      1 RES1    0.0000
     25 H5         1.0936    4.5558   10.1387 H         1 RES1    0.0000
     26 C13        0.6068    6.4469   10.7140 C.ar      1 RES1    0.0000
     27 H6         0.1915    6.6925    9.8952 H         1 RES1    0.0000
     28 C14        0.6735    7.3632   11.7476 C.ar      1 RES1    0.0000
     29 H7         0.2811    8.2227   11.6437 H         1 RES1    0.0000
     30 C15        1.8311   10.0959   12.7653 C.3       1 RES1    0.0000
     31 H8         2.5431   10.7477   12.9368 H         1 RES1    0.0000
     32 H9         1.0106   10.5672   12.5106 H         1 RES1    0.0000
     33 H10        2.1035    9.4980   12.0383 H         1 RES1    0.0000
@<TRIPOS>BOND
     1    1    2 2
     2    2    3 1
     3    3    4 1
     4    4    5 2
     5    5    1 1
     6    6    5 1
     7    7    6 1
     8    8    6 2
     9    9    8 1
    10   10    9 1
    11   11   10 1
    12   12   10 2
    13   13   12 1
    14   14    1 1
    15   15    4 1
    16   16   17 2
    17   17    8 1
    18   18   17 2
    19   19   12 1
    20   20   19 ar
    21   21   20 1
    22   22   20 ar
    23   23   22 1
    24   24   22 ar
    25   25   24 1
    26   26   24 ar
    27   27   26 1
    28   28   19 ar
    29   29   28 1
    30   30   13 1
    31   31   30 1
    32   32   30 1
    33   33   30 1
    34    9   14 2
    35   13   14 1
    36   26   28 ar
@<TRIPOS>SUBSTRUCTURE
     1 RES1 1

@<TRIPOS>CRYSIN
   6.7420    9.4460   20.9910  90.0000  90.0000  90.0000  19 1

