# MOL2 file generated by ConQuest
# Please check atom types

@<TRIPOS>MOLECULE
FUSJOS
    18    19     1
SMALL
USER_CHARGES
****
Generated from CSD

@<TRIPOS>ATOM
      1 C1         2.5484    0.0415    3.3599 C.ar      1 RES1    0.0000
      2 C2         1.4020    0.4393    2.7334 C.ar      1 RES1    0.0000
      3 C3         0.1471    0.2244    3.3407 C.ar      1 RES1    0.0000
      4 C4         0.0748   -0.3839    4.5889 C.ar      1 RES1    0.0000
      5 C5         1.2661   -0.7773    5.2022 C.ar      1 RES1    0.0000
      6 C6         2.5027   -0.5612    4.6010 C.ar      1 RES1    0.0000
      7 C7         6.1394    0.0000    2.7647 C.ar      1 RES1    0.0000
      8 C8         7.0859   -0.5656    3.5884 C.ar      1 RES1    0.0000
      9 C9         8.4401   -0.5150    3.2685 C.ar      1 RES1    0.0000
     10 C10        8.8372    0.1272    2.0948 C.ar      1 RES1    0.0000
     11 C11        7.8815    0.6991    1.2639 C.ar      1 RES1    0.0000
     12 C12        6.5332    0.6186    1.5874 C.ar      1 RES1    0.0000
     13 C13       -1.2978   -0.6413    5.2383 C.3       1 RES1    0.0000
     14 C14       10.6471    0.8355    0.6782 C.3       1 RES1    0.0000
     15 N1         3.8186    0.2420    2.6961 N.pl3     1 RES1    1.0000
     16 N2         4.8469   -0.1602    3.3142 N.2       1 RES1    0.0000
     17 O1         3.7803    0.8391    1.5729 O.2       1 RES1   -1.0000
     18 O2        10.1707    0.1646    1.8628 O.3       1 RES1    0.0000
@<TRIPOS>BOND
     1    1    2 ar
     2    2    3 ar
     3    3    4 ar
     4    4    5 ar
     5    5    6 ar
     6    6    1 ar
     7    7    8 ar
     8    8    9 ar
     9    9   10 ar
    10   10   11 ar
    11   11   12 ar
    12   12    7 ar
    13   13    4 1
    14   14   18 1
    15   15    1 1
    16   16    7 1
    17   17   15 1
    18   18   10 1
    19   15   16 2
@<TRIPOS>SUBSTRUCTURE
     1 RES1 1

@<TRIPOS>CRYSIN
  25.4850    3.9860   13.4280  90.0000 116.4200  90.0000   5 1

