# MOL2 file generated by ConQuest
# Please check atom types

@<TRIPOS>MOLECULE
FUSJIN
    57    42     3
SMALL
USER_CHARGES
****
Generated from CSD

@<TRIPOS>ATOM
      1 C1        11.6443    7.8752    3.3478 C.2       1 RES1    0.0000
      2 N1        11.7722    8.3722    4.5765 N.2       1 RES1    0.0000
      3 O1        12.4903    7.4232    5.2755 O.3       1 RES1    0.0000
      4 C2        12.2613    6.6281    3.1966 C.2       1 RES1    0.0000
      5 O2        13.3784    5.3492    4.8381 O.2       1 RES1   -1.0000
      6 N2        12.7894    6.3042    4.3873 N.pl3     1 RES1    1.0000
      7 O3        12.2300    4.6219   -0.3877 O.2       1 RES1    0.0000
      8 N3        11.5258    5.6146   -0.2753 N.pl3     1 RES1    0.0000
      9 C3        12.2722    5.8805    2.0060 C.2       1 RES1    0.0000
     10 H1        12.7135    5.0412    1.9521 H         1 RES1    0.0000
     11 C4        10.9812    7.7048    1.0063 C.2       1 RES1    0.0000
     12 C5        11.6295    6.4081    0.9414 C.2       1 RES1    0.0000
     13 O4        10.7055    5.9931   -1.1039 O.2       1 RES1    0.0000
     14 N4         9.6895    8.5980   -2.3578 N.1       1 RES1    0.0000
     15 C6        10.2684    8.6056    0.1537 C.2       1 RES1    0.0000
     16 N5         9.8859    9.6919    0.7952 N.2       1 RES1    0.0000
     17 O5        10.3307    9.5518    2.1047 O.3       1 RES1    0.0000
     18 C7        10.9905    8.3855    2.2009 C.2       1 RES1    0.0000
     19 C8         9.9401    8.5592   -1.2454 C.1       1 RES1    0.0000
     20 C9         3.3833    7.3466    2.8096 C.2       2 RES2    0.0000
     21 N6         2.2793    7.3164    3.6016 N.2       2 RES2    0.0000
     22 O6         1.5251    8.4006    3.0481 O.3       2 RES2    0.0000
     23 C10        3.4340    8.3704    1.8731 C.2       2 RES2    0.0000
     24 N7         2.2799    9.0684    2.0337 N.pl3     2 RES2    1.0000
     25 O7         1.8119   10.0059    1.5765 O.2       2 RES2   -1.0000
     26 N8         6.6623    8.0133    0.1446 N.pl3     2 RES2    0.0000
     27 O8         6.6310    8.9724   -0.5733 O.2       2 RES2    0.0000
     28 C11        4.4931    8.6131    0.9724 C.2       2 RES2    0.0000
     29 H2         4.4831    9.3327    0.3521 H         2 RES2    0.0000
     30 N9         8.8072    4.8611    1.6087 N.1       2 RES2    0.0000
     31 O9         7.5799    7.1891    0.1878 O.2       2 RES2    0.0000
     32 C12        5.5338    7.7361    1.0613 C.2       2 RES2    0.0000
     33 C13        5.6043    6.6670    2.0077 C.2       2 RES2    0.0000
     34 C14        6.4694    5.6400    2.3549 C.2       2 RES2    0.0000
     35 N10        5.9499    4.8816    3.3026 N.2       2 RES2    0.0000
     36 O10        4.7150    5.4080    3.6201 O.3       2 RES2    0.0000
     37 C15        4.5063    6.4868    2.8479 C.2       2 RES2    0.0000
     38 C16        7.7644    5.2419    1.9003 C.1       2 RES2    0.0000
     39 C17        3.8695    8.4276    1.3665 Du        3 SUP3    0.0000
     40 C18        3.2542    7.8483    2.4958 Du        3 SUP3    0.0000
     41 C19        3.8193    6.7824    3.3001 Du        3 SUP3    0.0000
     42 C20        5.6732    6.9583    1.7174 Du        3 SUP3    0.0000
     43 C21        5.0220    6.3649    2.8541 Du        3 SUP3    0.0000
     44 C22        6.9630    6.7576    1.0539 Du        3 SUP3    0.0000
     45 C23        5.1377    7.9864    1.0416 Du        3 SUP3    0.0000
     46 C24        8.0783    5.8708    1.2158 Du        3 SUP3    0.0000
     47 H3         3.3883    6.4145    4.0624 Du        3 SUP3    0.0000
     48 N11        3.0093    9.3068    0.9155 Du        3 SUP3    0.0000
     49 N12        1.9900    8.2205    2.9035 Du        3 SUP3    0.0000
     50 N13        5.6840    5.1998    3.6164 Du        3 SUP3    0.0000
     51 N14        8.9629    5.1567    1.2850 Du        3 SUP3    0.0000
     52 N15        7.1031    7.5904    0.0853 Du        3 SUP3    0.0000
     53 O11        1.8572    9.2388    1.7396 Du        3 SUP3    0.0000
     54 O12        1.2089    8.1719    3.5608 Du        3 SUP3    0.0000
     55 O13        5.2625    4.8913    4.6493 Du        3 SUP3    0.0000
     56 O14        6.5539    4.6108    2.9542 Du        3 SUP3    0.0000
     57 O15        5.8544    8.3434    0.0321 Du        3 SUP3    0.0000
@<TRIPOS>BOND
     1    1    2 2
     2    2    3 1
     3    3    6 1
     4    4    1 1
     5    5    6 1
     6    6    4 2
     7    7    8 2
     8    8   12 1
     9    9    4 1
    10   10    9 1
    11   11   12 1
    12   12    9 2
    13   13    8 2
    14   14   19 3
    15   15   11 1
    16   16   15 2
    17   17   16 1
    18   18    1 1
    19   19   15 1
    20   20   21 2
    21   21   22 1
    22   22   24 1
    23   23   20 1
    24   24   23 2
    25   25   24 1
    26   26   27 2
    27   28   23 1
    28   29   28 1
    29   30   38 3
    30   31   26 2
    31   32   26 1
    32   33   32 1
    33   34   33 1
    34   35   34 2
    35   36   35 1
    36   37   20 1
    37   38   34 1
    38   11   18 2
    39   17   18 1
    40   28   32 2
    41   33   37 2
    42   36   37 1
@<TRIPOS>SUBSTRUCTURE
     1 RES1 1
     2 RES2 20
     3 SUP3 39

@<TRIPOS>CRYSIN
  13.7140   10.7880   12.6460  90.0000 102.3080  90.0000  14 1

