# MOL2 file generated by ConQuest
# Please check atom types

@<TRIPOS>MOLECULE
FUSZEY
    26    28     1
SMALL
NO_CHARGES
****
Generated from CSD

@<TRIPOS>ATOM
      1 O1         0.8384   -0.4845    6.1243 O.2       1 RES1    0.0000
      2 O2         1.7565    1.5370    0.3329 O.2       1 RES1    0.0000
      3 O3         1.5479    0.1126    1.9081 O.2       1 RES1    0.0000
      4 N1         1.3175    0.9221    4.4354 N.am      1 RES1    0.0000
      5 N2         1.6541    1.2727    1.5184 N.pl3     1 RES1    0.0000
      6 C1         1.6651    4.5654    4.1218 C.ar      1 RES1    0.0000
      7 C2         1.8604    4.7266    2.7678 C.ar      1 RES1    0.0000
      8 C3         1.8443    3.6243    1.9558 C.ar      1 RES1    0.0000
      9 C4         1.6903    2.3642    2.4816 C.ar      1 RES1    0.0000
     10 C5         1.0264    0.6717    5.7599 C.2       1 RES1    0.0000
     11 C6         0.7885    1.6230    7.9990 C.ar      1 RES1    0.0000
     12 C7         0.8164    2.7089    8.8637 C.ar      1 RES1    0.0000
     13 C8         1.0483    3.9747    8.3978 C.ar      1 RES1    0.0000
     14 C9         1.2876    4.1843    7.0581 C.ar      1 RES1    0.0000
     15 C10        1.2540    3.1174    6.1446 C.ar      1 RES1    0.0000
     16 C11        1.4836    3.3110    4.6932 C.ar      1 RES1    0.0000
     17 C12        1.4927    2.1656    3.8701 C.ar      1 RES1    0.0000
     18 C13        1.0336    1.8387    6.6267 C.ar      1 RES1    0.0000
     19 H1         1.4601    0.3037    3.9381 H         1 RES1    0.0000
     20 H2         1.5787    5.3320    4.6993 H         1 RES1    0.0000
     21 H3         2.0742    5.6346    2.3344 H         1 RES1    0.0000
     22 H4         2.0005    3.6266    1.1063 H         1 RES1    0.0000
     23 H5         0.6255    0.8016    8.2415 H         1 RES1    0.0000
     24 H6         0.5345    2.6087    9.7944 H         1 RES1    0.0000
     25 H7         1.0689    4.7120    9.0129 H         1 RES1    0.0000
     26 H8         1.3921    5.0213    6.7901 H         1 RES1    0.0000
@<TRIPOS>BOND
     1    1   10 2
     2    2    5 2
     3    3    5 2
     4    4   10 1
     5    5    9 1
     6    6    7 ar
     7    7    8 ar
     8    8    9 ar
     9    9   17 ar
    10   10   18 1
    11   11   12 ar
    12   12   13 ar
    13   13   14 ar
    14   14   15 ar
    15   15   16 1
    16   16    6 ar
    17   17    4 1
    18   18   11 ar
    19   19    4 1
    20   20    6 1
    21   21    7 1
    22   22    8 1
    23   23   11 1
    24   24   12 1
    25   25   13 1
    26   26   14 1
    27   15   18 ar
    28   16   17 ar
@<TRIPOS>SUBSTRUCTURE
     1 RES1 1

@<TRIPOS>CRYSIN
   6.9750    7.7040   10.8500 106.1200 107.0200  72.3200   2 1

