# MOL2 file generated by ConQuest
# Please check atom types

@<TRIPOS>MOLECULE
FUWJAJ01
    30    31     1
SMALL
NO_CHARGES
****
Generated from CSD

@<TRIPOS>ATOM
      1 C1         2.9945    6.3645   11.0624 C.ar      1 RES1    0.0000
      2 H1         3.3081    6.3137   11.9573 H         1 RES1    0.0000
      3 C2         3.5313    5.5434   10.0903 C.ar      1 RES1    0.0000
      4 H2         4.2206    4.9324   10.3219 H         1 RES1    0.0000
      5 C3         3.0780    5.5993    8.7782 C.ar      1 RES1    0.0000
      6 H3         3.4445    5.0216    8.1192 H         1 RES1    0.0000
      7 C4         2.0853    6.5062    8.4407 C.ar      1 RES1    0.0000
      8 C5         1.5445    7.3432    9.4128 C.ar      1 RES1    0.0000
      9 H4         0.8675    7.9667    9.1781 H         1 RES1    0.0000
     10 C6         1.9920    7.2673   10.7236 C.ar      1 RES1    0.0000
     11 H5         1.6146    7.8308   11.3884 H         1 RES1    0.0000
     12 C7         2.2986    6.5838    6.0020 C.2       1 RES1    0.0000
     13 C8         2.1341    6.7005    3.5634 C.ar      1 RES1    0.0000
     14 C9         3.1150    5.7643    3.2277 C.ar      1 RES1    0.0000
     15 H6         3.4246    5.1458    3.8791 H         1 RES1    0.0000
     16 C10        3.6342    5.7385    1.9462 C.ar      1 RES1    0.0000
     17 H7         4.3048    5.1100    1.7082 H         1 RES1    0.0000
     18 C11        3.1584    6.6471    1.0196 C.ar      1 RES1    0.0000
     19 C12        2.1804    7.5674    1.3244 C.ar      1 RES1    0.0000
     20 H8         1.8672    8.1751    0.6645 H         1 RES1    0.0000
     21 C13        1.6628    7.5941    2.6035 C.ar      1 RES1    0.0000
     22 H9         0.9859    8.2210    2.8293 H         1 RES1    0.0000
     23 N1         1.5485    6.5804    7.1208 N.am      1 RES1    0.0000
     24 H10        0.6744    6.6271    7.0315 H         1 RES1    0.0000
     25 N2         1.5652    6.7255    4.8421 N.am      1 RES1    0.0000
     26 H11        0.6955    6.8380    4.9091 H         1 RES1    0.0000
     27 N3         3.7132    6.6396   -0.3312 N.pl3     1 RES1    0.0000
     28 O1         3.5238    6.4954    5.9976 O.2       1 RES1    0.0000
     29 O2         4.6178    5.8285   -0.5877 O.2       1 RES1    0.0000
     30 O3         3.2617    7.4307   -1.1558 O.2       1 RES1    0.0000
@<TRIPOS>BOND
     1    1    2 1
     2    3    1 ar
     3    4    3 1
     4    5    3 ar
     5    6    5 1
     6    7    5 ar
     7    8    7 ar
     8    9    8 1
     9   10    1 ar
    10   11   10 1
    11   12   23 1
    12   13   14 ar
    13   14   15 1
    14   16   14 ar
    15   17   16 1
    16   18   16 ar
    17   19   18 ar
    18   20   19 1
    19   21   13 ar
    20   22   21 1
    21   23    7 1
    22   24   23 1
    23   25   12 1
    24   26   25 1
    25   27   18 1
    26   28   12 2
    27   29   27 2
    28   30   27 2
    29    8   10 ar
    30   13   25 1
    31   19   21 ar
@<TRIPOS>SUBSTRUCTURE
     1 RES1 1

@<TRIPOS>CRYSIN
   4.5900    8.3360   15.2820  90.0000  96.9290  90.0000   4 1

