# MOL2 file generated by ConQuest
# Please check atom types

@<TRIPOS>MOLECULE
FUWKUE
    39    40     1
SMALL
NO_CHARGES
****
Generated from CSD

@<TRIPOS>ATOM
      1 O1         1.7621    8.8482    4.7085 O.2       1 RES1    0.0000
      2 O2         3.3834    7.5682    5.1301 O.2       1 RES1    0.0000
      3 O3         2.9172    6.0760    8.9660 O.2       1 RES1    0.0000
      4 N1         2.2771    7.9871    5.3692 N.pl3     1 RES1    0.0000
      5 C1         1.5298    7.4436    6.5419 C.3       1 RES1    0.0000
      6 H1         0.5986    7.7793    6.5197 H         1 RES1    0.0000
      7 H2         1.9517    7.7661    7.3782 H         1 RES1    0.0000
      8 C2         1.5169    5.9236    6.5398 C.3       1 RES1    0.0000
      9 H3         2.4527    5.5841    6.4459 H         1 RES1    0.0000
     10 C3         0.9184    5.4016    7.8495 C.3       1 RES1    0.0000
     11 H4         0.0533    5.8576    8.0060 H         1 RES1    0.0000
     12 H5         0.7321    4.4349    7.7475 H         1 RES1    0.0000
     13 C4         1.7946    5.6000    9.0646 C.2       1 RES1    0.0000
     14 C5         0.6760    5.4202    5.3722 C.2       1 RES1    0.0000
     15 H6        -0.2216    5.7232    5.3058 H         1 RES1    0.0000
     16 C6         1.1119    4.6032    4.4639 C.2       1 RES1    0.0000
     17 H7         2.0246    4.3437    4.5165 H         1 RES1    0.0000
     18 C7         1.2561    5.1985   10.3964 C.ar      1 RES1    0.0000
     19 C8         1.9944    5.4792   11.5451 C.ar      1 RES1    0.0000
     20 H8         2.8252    5.9344   11.4701 H         1 RES1    0.0000
     21 C9         1.5310    5.1041   12.7837 C.ar      1 RES1    0.0000
     22 H9         2.0471    5.2962   13.5587 H         1 RES1    0.0000
     23 C10        0.3181    4.4490   12.9104 C.ar      1 RES1    0.0000
     24 H10        0.0034    4.1878   13.7687 H         1 RES1    0.0000
     25 C11       -0.4297    4.1773   11.7883 C.ar      1 RES1    0.0000
     26 H11       -1.2639    3.7307   11.8739 H         1 RES1    0.0000
     27 C12        0.0264    4.5511   10.5340 C.ar      1 RES1    0.0000
     28 H12       -0.4999    4.3665    9.7646 H         1 RES1    0.0000
     29 C13        0.3186    4.0418    3.3582 C.ar      1 RES1    0.0000
     30 C14        0.7921    2.9017    2.7212 C.ar      1 RES1    0.0000
     31 H13        1.6190    2.5239    2.9956 H         1 RES1    0.0000
     32 C15        0.0886    2.3121    1.7032 C.ar      1 RES1    0.0000
     33 H14        0.4280    1.5295    1.2832 H         1 RES1    0.0000
     34 C16       -1.1074    2.8502    1.2873 C.ar      1 RES1    0.0000
     35 H15       -1.5960    2.4304    0.5908 H         1 RES1    0.0000
     36 C17       -1.6028    3.9990    1.8777 C.ar      1 RES1    0.0000
     37 H16       -2.4162    4.3821    1.5717 H         1 RES1    0.0000
     38 C18       -0.9021    4.5863    2.9211 C.ar      1 RES1    0.0000
     39 H17       -1.2499    5.3634    3.3441 H         1 RES1    0.0000
@<TRIPOS>BOND
     1    1    4 2
     2    2    4 2
     3    3   13 2
     4    4    5 1
     5    5    6 1
     6    7    5 1
     7    8    5 1
     8    9    8 1
     9   10    8 1
    10   11   10 1
    11   12   10 1
    12   13   10 1
    13   14    8 1
    14   15   14 1
    15   16   14 2
    16   17   16 1
    17   18   13 1
    18   19   18 ar
    19   20   19 1
    20   21   19 ar
    21   22   21 1
    22   23   21 ar
    23   24   23 1
    24   25   23 ar
    25   26   25 1
    26   27   18 ar
    27   28   27 1
    28   29   16 1
    29   30   29 ar
    30   31   30 1
    31   32   30 ar
    32   33   32 1
    33   34   32 ar
    34   35   34 1
    35   36   34 ar
    36   37   36 1
    37   38   29 ar
    38   39   38 1
    39   25   27 ar
    40   36   38 ar
@<TRIPOS>SUBSTRUCTURE
     1 RES1 1

@<TRIPOS>CRYSIN
   5.6100   11.9959   23.0786  90.0000  90.0000  90.0000  19 1

