# MOL2 file generated by ConQuest
# Please check atom types

@<TRIPOS>MOLECULE
FUWREW
    52    54     1
SMALL
NO_CHARGES
****
Generated from CSD

@<TRIPOS>ATOM
      1 O1         2.0455    0.3455    3.0343 O.2       1 RES1    0.0000
      2 O2         0.7165    0.2708    1.3374 O.2       1 RES1    0.0000
      3 N1         4.1677   -1.1610    3.1044 N.pl3     1 RES1    0.0000
      4 H1         3.7536   -0.4995    3.5124 H         1 RES1    0.0000
      5 O3         0.9527   -3.1516   -1.9038 O.2       1 RES1    0.0000
      6 N2         1.6775   -0.1614    1.9621 N.pl3     1 RES1    0.0000
      7 N3         5.4014   -1.6021    3.5542 N.2       1 RES1    0.0000
      8 O4         2.4777   -4.6907   -1.7783 O.2       1 RES1    0.0000
      9 C1         3.6844   -3.4945    0.3534 C.ar      1 RES1    0.0000
     10 H2         4.1080   -4.2569   -0.0233 H         1 RES1    0.0000
     11 C2         2.5066   -2.9918   -0.2100 C.ar      1 RES1    0.0000
     12 C3         2.4018   -1.2987    1.4333 C.ar      1 RES1    0.0000
     13 C4         3.6095   -1.7588    2.0330 C.ar      1 RES1    0.0000
     14 O5        10.4532    0.0762    3.8891 O.3       1 RES1    0.0000
     15 C5         4.2191   -2.8845    1.4428 C.ar      1 RES1    0.0000
     16 H3         5.0228   -3.2253    1.8164 H         1 RES1    0.0000
     17 C6         1.8735   -1.9076    0.3102 C.ar      1 RES1    0.0000
     18 H4         1.0802   -1.5737   -0.0913 H         1 RES1    0.0000
     19 N4         1.9415   -3.6585   -1.3733 N.pl3     1 RES1    0.0000
     20 O6         8.2722    0.0841    3.2973 O.3       1 RES1    0.0000
     21 C7         5.9222   -0.8839    4.4832 C.2       1 RES1    0.0000
     22 C8         7.2787   -1.3329    4.9434 C.3       1 RES1    0.0000
     23 H5         7.5297   -2.1626    4.4663 H         1 RES1    0.0000
     24 H6         7.2471   -1.5343    5.9116 H         1 RES1    0.0000
     25 C9        10.3598   -0.5016    6.2250 C.3       1 RES1    0.0000
     26 H7         9.8246   -0.9917    6.8985 H         1 RES1    0.0000
     27 H8        10.3236    0.4622    6.4498 H         1 RES1    0.0000
     28 C10       13.2559    0.2229    7.9641 C.ar      1 RES1    0.0000
     29 H9        13.4166    0.9017    7.3182 H         1 RES1    0.0000
     30 C11        5.3116    0.3481    5.0705 C.3       1 RES1    0.0000
     31 H10        5.2760    1.0511    4.3886 H         1 RES1    0.0000
     32 H11        5.8558    0.6536    5.8262 H         1 RES1    0.0000
     33 H12        4.4047    0.1467    5.3813 H         1 RES1    0.0000
     34 C12       11.8082   -0.9801    6.2895 C.3       1 RES1    0.0000
     35 H13       11.8424   -1.9323    6.0204 H         1 RES1    0.0000
     36 H14       12.3430   -0.4648    5.6338 H         1 RES1    0.0000
     37 C13       12.2201   -1.8056    8.6151 C.ar      1 RES1    0.0000
     38 H15       11.6620   -2.5475    8.4138 H         1 RES1    0.0000
     39 C14       12.4375   -0.8376    7.6455 C.ar      1 RES1    0.0000
     40 C15       13.8468    0.3139    9.2127 C.ar      1 RES1    0.0000
     41 H16       14.4135    1.0500    9.4124 H         1 RES1    0.0000
     42 C16        9.7586   -0.7151    4.8614 C.3       1 RES1    0.0000
     43 H17        9.8367   -1.6815    4.6159 H         1 RES1    0.0000
     44 C17        8.3183   -0.2703    4.6848 C.3       1 RES1    0.0000
     45 H18        8.1362    0.5337    5.2511 H         1 RES1    0.0000
     46 C18       13.6230   -0.6483   10.1664 C.ar      1 RES1    0.0000
     47 H19       14.0294   -0.5826   11.0229 H         1 RES1    0.0000
     48 C19        9.5193    0.5242    2.9548 C.3       1 RES1    0.0000
     49 H20        9.5270    1.5133    2.9238 H         1 RES1    0.0000
     50 H21        9.7576    0.1846    2.0554 H         1 RES1    0.0000
     51 C20       12.7973   -1.7141    9.8643 C.ar      1 RES1    0.0000
     52 H22       12.6279   -2.3835   10.5158 H         1 RES1    0.0000
@<TRIPOS>BOND
     1    1    6 2
     2    2    6 2
     3    3    4 1
     4    5   19 2
     5    6   12 1
     6    7    3 1
     7    8   19 2
     8    9   10 1
     9   11    9 ar
    10   12   13 ar
    11   13    3 1
    12   14   42 1
    13   15    9 ar
    14   16   15 1
    15   17   11 ar
    16   18   17 1
    17   19   11 1
    18   20   44 1
    19   21    7 2
    20   22   21 1
    21   23   22 1
    22   24   22 1
    23   25   26 1
    24   27   25 1
    25   28   29 1
    26   30   21 1
    27   31   30 1
    28   32   30 1
    29   33   30 1
    30   34   25 1
    31   35   34 1
    32   36   34 1
    33   37   38 1
    34   39   28 ar
    35   40   28 ar
    36   41   40 1
    37   42   25 1
    38   43   42 1
    39   44   22 1
    40   45   44 1
    41   46   40 ar
    42   47   46 1
    43   48   14 1
    44   49   48 1
    45   50   48 1
    46   51   37 ar
    47   52   51 1
    48   12   17 ar
    49   13   15 ar
    50   20   48 1
    51   34   39 1
    52   37   39 ar
    53   42   44 1
    54   46   51 ar
@<TRIPOS>SUBSTRUCTURE
     1 RES1 1

@<TRIPOS>CRYSIN
  18.9380    5.2580   20.5170  90.0000 108.7600  90.0000 231 1

