# MOL2 file generated by ConQuest
# Please check atom types

@<TRIPOS>MOLECULE
FUXNAN01
    19    19     1
SMALL
NO_CHARGES
****
Generated from CSD

@<TRIPOS>ATOM
      1 C1         5.7594    1.1792    1.3254 C.ar      1 RES1    0.0000
      2 C2         7.4135    1.4788   -0.3571 C.ar      1 RES1    0.0000
      3 H1         7.8720    2.0334   -0.9467 H         1 RES1    0.0000
      4 N1         8.7017   -0.3848   -1.1021 N.pl3     1 RES1    0.0000
      5 H2         9.1033    0.1440   -1.6137 H         1 RES1    0.0000
      6 O1         4.1106    0.9989    2.9285 O.2       1 RES1    0.0000
      7 C3         7.0435   -0.6986    0.6217 C.ar      1 RES1    0.0000
      8 H3         7.2485   -1.6035    0.6870 H         1 RES1    0.0000
      9 O2         4.3988    2.9155    1.9748 O.2       1 RES1    0.0000
     10 C4         6.0653   -0.1693    1.4168 C.ar      1 RES1    0.0000
     11 H4         5.6074   -0.7116    2.0169 H         1 RES1    0.0000
     12 N2         4.7022    1.7178    2.1178 N.pl3     1 RES1    0.0000
     13 C5         6.4365    2.0039    0.4286 C.ar      1 RES1    0.0000
     14 H5         6.2214    2.9068    0.3686 H         1 RES1    0.0000
     15 C6         7.7450    0.1097   -0.2952 C.ar      1 RES1    0.0000
     16 C7         9.0817   -1.7756   -1.1562 C.3       1 RES1    0.0000
     17 H6         9.7826   -1.8915   -1.8012 H         1 RES1    0.0000
     18 H7         8.3220   -2.3056   -1.4106 H         1 RES1    0.0000
     19 H8         9.3921   -2.0567   -0.2922 H         1 RES1    0.0000
@<TRIPOS>BOND
     1    1   10 ar
     2    2    3 1
     3    4    5 1
     4    6   12 2
     5    7    8 1
     6    9   12 2
     7   10    7 ar
     8   11   10 1
     9   12    1 1
    10   13    1 ar
    11   14   13 1
    12   15    2 ar
    13   16    4 1
    14   17   16 1
    15   18   16 1
    16   19   16 1
    17    2   13 ar
    18    4   15 1
    19    7   15 ar
@<TRIPOS>SUBSTRUCTURE
     1 RES1 1

@<TRIPOS>CRYSIN
   9.9223    6.8557   10.7606  90.0000 103.3040  90.0000 231 1

