# MOL2 file generated by ConQuest
# Please check atom types

@<TRIPOS>MOLECULE
FUXTOJ
    90    98     2
SMALL
NO_CHARGES
****
Generated from CSD

@<TRIPOS>ATOM
      1 O1         9.2835    4.8823   18.8011 O.2       1 RES1    0.0000
      2 C1        14.2361    7.5670   12.0750 C.ar      1 RES1    0.0000
      3 H1        15.0369    7.2007   11.7211 H         1 RES1    0.0000
      4 O2        14.0389   11.4635   13.5788 O.2       1 RES1    0.0000
      5 O3         7.2121    5.4490   18.5159 O.2       1 RES1    0.0000
      6 C2        11.8882    7.3418   12.5752 C.ar      1 RES1    0.0000
      7 H2        11.0870    6.8322   12.5462 H         1 RES1    0.0000
      8 C3        11.8913    8.6044   13.1533 C.ar      1 RES1    0.0000
      9 N1        10.8554   10.2193   14.5946 N.am      1 RES1    0.0000
     10 C4        10.1608   10.4164   15.8391 C.2       1 RES1    0.0000
     11 C5         8.3877    9.0590   16.9800 C.ar      1 RES1    0.0000
     12 H3         7.7803    9.7808   16.8656 H         1 RES1    0.0000
     13 C6        14.2411    8.8317   12.6256 C.ar      1 RES1    0.0000
     14 H4        15.0359    9.3531   12.6195 H         1 RES1    0.0000
     15 N2        11.9243   11.1091   14.3277 N.am      1 RES1    0.0000
     16 C7        12.0663   13.4781   13.6947 C.ar      1 RES1    0.0000
     17 H5        12.6858   13.2713   13.0053 H         1 RES1    0.0000
     18 C8        11.6740   14.7730   13.9174 C.ar      1 RES1    0.0000
     19 H6        12.0382   15.4711   13.3866 H         1 RES1    0.0000
     20 C9        10.7558   15.0757   14.9011 C.ar      1 RES1    0.0000
     21 H7        10.4899   15.9774   15.0354 H         1 RES1    0.0000
     22 C10       10.5835    8.1282   16.6963 C.ar      1 RES1    0.0000
     23 H8        11.4758    8.2026   16.3821 H         1 RES1    0.0000
     24 O4         9.6123    8.4848   13.8503 O.2       1 RES1    0.0000
     25 C11       13.0609    6.8279   12.0399 C.ar      1 RES1    0.0000
     26 H9        13.0586    5.9639   11.6449 H         1 RES1    0.0000
     27 C12       10.6738    9.0730   13.8228 C.2       1 RES1    0.0000
     28 C13        9.6980    9.1904   16.5163 C.ar      1 RES1    0.0000
     29 C14        7.9604    7.9149   17.5916 C.ar      1 RES1    0.0000
     30 H10        7.0665    7.8320   17.9027 H         1 RES1    0.0000
     31 C15        8.8613    6.8850   17.7472 C.ar      1 RES1    0.0000
     32 N3         8.4187    5.6537   18.4076 N.pl3     1 RES1    0.0000
     33 C16       13.0788    9.3326   13.1853 C.ar      1 RES1    0.0000
     34 C17       13.0855   10.7051   13.7252 C.2       1 RES1    0.0000
     35 C18       11.5355   12.4751   14.4985 C.ar      1 RES1    0.0000
     36 C19       10.2235   14.0760   15.6912 C.ar      1 RES1    0.0000
     37 H11        9.5888   14.2904   16.3669 H         1 RES1    0.0000
     38 C20       10.6146   12.7574   15.4944 C.ar      1 RES1    0.0000
     39 C21       10.0655   11.6725   16.3196 C.2       1 RES1    0.0000
     40 C22       10.1760    6.9744   17.3216 C.ar      1 RES1    0.0000
     41 H12       10.7803    6.2559   17.4604 H         1 RES1    0.0000
     42 C23        9.4954   11.9957   17.6663 C.3       1 RES1    0.0000
     43 H13        9.5232   12.9642   17.8097 H         1 RES1    0.0000
     44 H14        8.5664   11.6844   17.7121 H         1 RES1    0.0000
     45 H15       10.0237   11.5476   18.3603 H         1 RES1    0.0000
     46 C24       19.3357    2.9259   13.7191 C.ar      2 RES2    0.0000
     47 H16       19.5546    2.4983   14.5381 H         2 RES2    0.0000
     48 C25       15.1395    3.6564   15.6592 C.ar      2 RES2    0.0000
     49 H17       15.3490    3.6197   14.7334 H         2 RES2    0.0000
     50 C26       14.5192    2.5877   16.2586 C.ar      2 RES2    0.0000
     51 H18       14.3109    1.8088   15.7553 H         2 RES2    0.0000
     52 O5        13.3520    0.5063   17.5382 O.2       2 RES2    0.0000
     53 O6        13.2810    1.5556   19.4111 O.2       2 RES2    0.0000
     54 C27       15.1423    4.8004   17.7456 C.ar      2 RES2    0.0000
     55 H19       15.3781    5.5578   18.2688 H         2 RES2    0.0000
     56 O7        17.5937    6.7224   11.4878 O.2       2 RES2    0.0000
     57 C28       18.7176    4.1508   11.3154 C.ar      2 RES2    0.0000
     58 H20       18.5135    4.5774   10.4918 H         2 RES2    0.0000
     59 C29       19.4377    2.9669   11.3200 C.ar      2 RES2    0.0000
     60 H21       19.7031    2.5618   10.5025 H         2 RES2    0.0000
     61 O8        18.2003    4.0797   16.0664 O.2       2 RES2    0.0000
     62 C30       17.9022    8.8662   13.3363 C.ar      2 RES2    0.0000
     63 H22       18.4185    8.6206   12.5783 H         2 RES2    0.0000
     64 C31       17.8362   10.1762   13.7420 C.ar      2 RES2    0.0000
     65 H23       18.3190   10.8376   13.2616 H         2 RES2    0.0000
     66 C32       16.3849    9.5826   15.5295 C.ar      2 RES2    0.0000
     67 H24       15.8612    9.8368   16.2799 H         2 RES2    0.0000
     68 C33       19.7596    2.3862   12.5203 C.ar      2 RES2    0.0000
     69 H25       20.2880    1.5955   12.5279 H         2 RES2    0.0000
     70 C34       18.5947    4.0916   13.7176 C.ar      2 RES2    0.0000
     71 N4        17.1876    5.6828   14.8523 N.am      2 RES2    0.0000
     72 C35       15.4655    4.7886   16.3928 C.ar      2 RES2    0.0000
     73 N5        17.2574    6.5187   13.7145 N.am      2 RES2    0.0000
     74 C36       17.6676    6.0437   12.4990 C.2       2 RES2    0.0000
     75 C37       18.2995    4.7121   12.5005 C.ar      2 RES2    0.0000
     76 C38       17.0834   10.5478   14.8325 C.ar      2 RES2    0.0000
     77 H26       17.0445   11.4582   15.1040 H         2 RES2    0.0000
     78 C39       18.0453    4.6055   14.9835 C.2       2 RES2    0.0000
     79 C40       16.1027    5.9521   15.7461 C.2       2 RES2    0.0000
     80 C41       14.2031    2.6588   17.5885 C.ar      2 RES2    0.0000
     81 N6        13.5547    1.4985   18.2230 N.pl3     2 RES2    0.0000
     82 C42       14.4954    3.7522   18.3420 C.ar      2 RES2    0.0000
     83 H27       14.2558    3.7878   19.2601 H         2 RES2    0.0000
     84 C43       17.2065    7.9106   14.0486 C.ar      2 RES2    0.0000
     85 C44       16.4321    8.2510   15.1559 C.ar      2 RES2    0.0000
     86 C45       15.6836    7.2211   15.8651 C.2       2 RES2    0.0000
     87 C46       14.4292    7.6230   16.5972 C.3       2 RES2    0.0000
     88 H28       14.3248    8.5969   16.5545 H         2 RES2    0.0000
     89 H29       13.6540    7.1921   16.1793 H         2 RES2    0.0000
     90 H30       14.4926    7.3418   17.5336 H         2 RES2    0.0000
@<TRIPOS>BOND
     1    1   32 2
     2    2    3 1
     3    4   34 2
     4    5   32 2
     5    6    7 1
     6    8    6 ar
     7    9   10 1
     8   10   28 1
     9   11   12 1
    10   13    2 ar
    11   14   13 1
    12   15    9 1
    13   16   17 1
    14   18   16 ar
    15   19   18 1
    16   20   18 ar
    17   21   20 1
    18   22   23 1
    19   24   27 2
    20   25    2 ar
    21   26   25 1
    22   27    8 1
    23   28   11 ar
    24   29   11 ar
    25   30   29 1
    26   31   29 ar
    27   32   31 1
    28   33    8 ar
    29   34   15 1
    30   35   15 1
    31   36   20 ar
    32   37   36 1
    33   38   35 ar
    34   39   10 2
    35   40   22 ar
    36   41   40 1
    37   42   39 1
    38   43   42 1
    39   44   42 1
    40   45   42 1
    41   46   47 1
    42   48   49 1
    43   50   48 ar
    44   51   50 1
    45   52   81 2
    46   53   81 2
    47   54   55 1
    48   56   74 2
    49   57   58 1
    50   59   57 ar
    51   60   59 1
    52   61   78 2
    53   62   63 1
    54   64   62 ar
    55   65   64 1
    56   66   67 1
    57   68   46 ar
    58   69   68 1
    59   70   46 ar
    60   71   73 1
    61   72   48 ar
    62   73   74 1
    63   74   75 1
    64   75   57 ar
    65   76   64 ar
    66   77   76 1
    67   78   70 1
    68   79   71 1
    69   80   50 ar
    70   81   80 1
    71   82   54 ar
    72   83   82 1
    73   84   62 ar
    74   85   66 ar
    75   86   79 2
    76   87   86 1
    77   88   87 1
    78   89   87 1
    79   90   87 1
    80    6   25 ar
    81    9   27 1
    82   13   33 ar
    83   16   35 ar
    84   22   28 ar
    85   31   40 ar
    86   33   34 1
    87   36   38 ar
    88   38   39 1
    89   54   72 ar
    90   59   68 ar
    91   66   76 ar
    92   70   75 ar
    93   71   78 1
    94   72   79 1
    95   73   84 1
    96   80   82 ar
    97   84   85 ar
    98   85   86 1
@<TRIPOS>SUBSTRUCTURE
     1 RES1 1
     2 RES2 46

@<TRIPOS>CRYSIN
  22.7480   10.7730   15.6130  90.0000 102.3460  90.0000  14 1

