# MOL2 file generated by ConQuest
# Please check atom types

@<TRIPOS>MOLECULE
FUXZIH01
    31    32     1
SMALL
NO_CHARGES
****
Generated from CSD

@<TRIPOS>ATOM
      1 O1         2.9084    0.9616    8.2752 O.2       1 RES1    0.0000
      2 O2         1.2495    1.1560    6.8960 O.2       1 RES1    0.0000
      3 N1         4.3540    6.2276    5.2917 N.pl3     1 RES1    0.0000
      4 H1         5.2270    6.5844    5.6771 H         1 RES1    0.0000
      5 N2         2.6994    4.6040    5.3299 N.ar      1 RES1    0.0000
      6 N3         2.3065    1.5644    7.3922 N.pl3     1 RES1    0.0000
      7 C1         4.1193    5.8745    2.8482 C.ar      1 RES1    0.0000
      8 C2         3.2204    5.8915    1.7826 C.ar      1 RES1    0.0000
      9 H2         2.3257    6.5063    1.8618 H         1 RES1    0.0000
     10 C3         3.4580    5.1319    0.6447 C.ar      1 RES1    0.0000
     11 H3         2.7471    5.1546   -0.1568 H         1 RES1    0.0000
     12 C4         4.6059    4.3422    0.5584 C.ar      1 RES1    0.0000
     13 H4         4.7948    3.7399   -0.3171 H         1 RES1    0.0000
     14 C5         5.5050    4.3157    1.6117 C.ar      1 RES1    0.0000
     15 H5         6.4024    3.7116    1.5483 H         1 RES1    0.0000
     16 C6         5.2742    5.0816    2.7601 C.ar      1 RES1    0.0000
     17 H6         5.9920    5.0709    3.5774 H         1 RES1    0.0000
     18 C7         3.8720    6.7889    4.0389 C.3       1 RES1    0.0000
     19 H7         2.7814    6.9481    4.1270 H         1 RES1    0.0000
     20 C8         4.5824    8.1262    3.8047 C.3       1 RES1    0.0000
     21 H8         4.4532    8.7888    4.6537 H         1 RES1    0.0000
     22 H9         4.1842    8.6132    2.9310 H         1 RES1    0.0000
     23 H10        5.6385    7.9632    3.6479 H         1 RES1    0.0000
     24 C9         3.8418    5.1074    5.8550 C.ar      1 RES1    0.0000
     25 C10        4.5155    4.5045    6.9470 C.ar      1 RES1    0.0000
     26 H11        5.4127    4.9513    7.3293 H         1 RES1    0.0000
     27 C11        4.0236    3.3384    7.4684 C.ar      1 RES1    0.0000
     28 H12        4.5186    2.8268    8.2822 H         1 RES1    0.0000
     29 C12        2.8483    2.8073    6.8995 C.ar      1 RES1    0.0000
     30 C13        2.2208    3.4731    5.8585 C.ar      1 RES1    0.0000
     31 H13        1.3010    3.0647    5.4463 H         1 RES1    0.0000
@<TRIPOS>BOND
     1    1    6 2
     2    2    6 2
     3    3    4 1
     4    5   24 ar
     5    6   29 1
     6    7    8 ar
     7    8    9 1
     8   10    8 ar
     9   11   10 1
    10   12   10 ar
    11   13   12 1
    12   14   12 ar
    13   15   14 1
    14   16    7 ar
    15   17   16 1
    16   18    3 1
    17   19   18 1
    18   20   18 1
    19   21   20 1
    20   22   20 1
    21   23   20 1
    22   24    3 1
    23   25   24 ar
    24   26   25 1
    25   27   25 ar
    26   28   27 1
    27   29   27 ar
    28   30    5 ar
    29   31   30 1
    30    7   18 1
    31   14   16 ar
    32   29   30 ar
@<TRIPOS>SUBSTRUCTURE
     1 RES1 1

@<TRIPOS>CRYSIN
   5.3210    6.2930   17.6500  90.0000  93.6500  90.0000   4 1

