# MOL2 file generated by ConQuest
# Please check atom types

@<TRIPOS>MOLECULE
FUYLES
    50    54     1
SMALL
NO_CHARGES
****
Generated from CSD

@<TRIPOS>ATOM
      1 O1         5.9098   11.2003   12.4394 O.3       1 RES1    0.0000
      2 O2         7.6115   10.5301    8.1172 O.3       1 RES1    0.0000
      3 N1         7.2931   10.7834   12.6644 N.3       1 RES1    0.0000
      4 C1         8.9313   12.9082   15.9209 C.ar      1 RES1    0.0000
      5 H1         9.3146   13.3838   16.6494 H         1 RES1    0.0000
      6 C2         7.7525   13.3479   15.3415 C.ar      1 RES1    0.0000
      7 H2         7.3181   14.1178   15.6913 H         1 RES1    0.0000
      8 C3         7.1951   12.6822   14.2590 C.ar      1 RES1    0.0000
      9 H3         6.3908   12.9983   13.8659 H         1 RES1    0.0000
     10 C4         7.8227   11.5480   13.7525 C.ar      1 RES1    0.0000
     11 C5         5.5234   10.4246   11.2892 C.3       1 RES1    0.0000
     12 H4         4.8745   10.9690   10.7581 H         1 RES1    0.0000
     13 C6         4.8272    9.1354   11.6903 C.ar      1 RES1    0.0000
     14 C7         4.1948    9.0477   12.9280 C.ar      1 RES1    0.0000
     15 H5         4.2642    9.7653   13.5465 H         1 RES1    0.0000
     16 C8         3.4639    7.9159   13.2625 C.ar      1 RES1    0.0000
     17 H6         3.0357    7.8645   14.1090 H         1 RES1    0.0000
     18 C9         3.3527    6.8629   12.3742 C.ar      1 RES1    0.0000
     19 H7         2.8449    6.0937   12.6062 H         1 RES1    0.0000
     20 C10        3.9867    6.9339   11.1407 C.ar      1 RES1    0.0000
     21 H8         3.9236    6.2075   10.5311 H         1 RES1    0.0000
     22 C11        4.7144    8.0718   10.7985 C.ar      1 RES1    0.0000
     23 H9         5.1371    8.1215    9.9491 H         1 RES1    0.0000
     24 C12        6.8032   10.2588   10.4407 C.3       1 RES1    0.0000
     25 H10        7.0232    9.2957   10.2896 H         1 RES1    0.0000
     26 C13        7.8842   10.9661   11.2986 C.3       1 RES1    0.0000
     27 C14        7.8598   12.3846   10.7352 C.ar      1 RES1    0.0000
     28 C15        7.1982   12.4105    9.5088 C.ar      1 RES1    0.0000
     29 C16        7.0965   13.5834    8.7673 C.ar      1 RES1    0.0000
     30 H11        6.6549   13.5890    7.9259 H         1 RES1    0.0000
     31 C17        7.6540   14.7437    9.2810 C.ar      1 RES1    0.0000
     32 H12        7.5846   15.5548    8.7932 H         1 RES1    0.0000
     33 C18        8.3147   14.7303   10.5066 C.ar      1 RES1    0.0000
     34 H13        8.6853   15.5356   10.8489 H         1 RES1    0.0000
     35 C19        8.4393   13.5492   11.2399 C.ar      1 RES1    0.0000
     36 H14        8.9085   13.5388   12.0664 H         1 RES1    0.0000
     37 C20        6.7149   11.0349    9.1141 C.3       1 RES1    0.0000
     38 H15        5.7750   11.0650    8.7738 H         1 RES1    0.0000
     39 C21        7.0933    9.3672    7.4702 C.3       1 RES1    0.0000
     40 H16        7.0145    8.6384    8.1204 H         1 RES1    0.0000
     41 H17        7.7005    9.0963    6.7506 H         1 RES1    0.0000
     42 H18        6.2102    9.5674    7.0959 H         1 RES1    0.0000
     43 C22        9.2665   10.3322   11.2127 C.3       1 RES1    0.0000
     44 H19        9.9075   10.8774   11.7146 H         1 RES1    0.0000
     45 H20        9.5448   10.2808   10.2750 H         1 RES1    0.0000
     46 H21        9.2365    9.4301   11.5946 H         1 RES1    0.0000
     47 C23        8.9865   11.0733   14.3577 C.ar      1 RES1    0.0000
     48 H22        9.3966   10.2778   14.0410 H         1 RES1    0.0000
     49 C24        9.5472   11.7660   15.4261 C.ar      1 RES1    0.0000
     50 H23       10.3546   11.4564   15.8194 H         1 RES1    0.0000
@<TRIPOS>BOND
     1    1    3 1
     2    2   37 1
     3    3   10 1
     4    4    5 1
     5    6    4 ar
     6    7    6 1
     7    8    6 ar
     8    9    8 1
     9   10    8 ar
    10   11    1 1
    11   12   11 1
    12   13   11 1
    13   14   13 ar
    14   15   14 1
    15   16   14 ar
    16   17   16 1
    17   18   16 ar
    18   19   18 1
    19   20   18 ar
    20   21   20 1
    21   22   13 ar
    22   23   22 1
    23   24   11 1
    24   25   24 1
    25   26    3 1
    26   27   26 1
    27   28   27 ar
    28   29   28 ar
    29   30   29 1
    30   31   29 ar
    31   32   31 1
    32   33   31 ar
    33   34   33 1
    34   35   27 ar
    35   36   35 1
    36   37   24 1
    37   38   37 1
    38   39    2 1
    39   40   39 1
    40   41   39 1
    41   42   39 1
    42   43   26 1
    43   44   43 1
    44   45   43 1
    45   46   43 1
    46   47   10 ar
    47   48   47 1
    48   49    4 ar
    49   50   49 1
    50   20   22 ar
    51   24   26 1
    52   28   37 1
    53   33   35 ar
    54   47   49 ar
@<TRIPOS>SUBSTRUCTURE
     1 RES1 1

@<TRIPOS>CRYSIN
   7.8850   14.7691   16.2117  90.0000  90.0000  90.0000  19 1

