# MOL2 file generated by ConQuest
# Please check atom types

@<TRIPOS>MOLECULE
FUZRUP
    35    37     1
SMALL
NO_CHARGES
****
Generated from CSD

@<TRIPOS>ATOM
      1 C1        -1.0433    3.2587    1.2071 C.ar      1 RES1    0.0000
      2 O1        -1.9938    4.0032   -0.9074 O.3       1 RES1    0.0000
      3 C2         1.3072    3.5456    1.4885 C.ar      1 RES1    0.0000
      4 N1        -2.3972    2.9293    3.2715 N.pl3     1 RES1    0.0000
      5 C3        -2.2364    3.2164    0.2648 C.3       1 RES1    0.0000
      6 H1        -3.0049    3.6374    0.7455 H         1 RES1    0.0000
      7 O2        -3.3626    2.5403    2.6285 O.2       1 RES1    0.0000
      8 O3         2.4348    3.5190    3.4392 O.3       1 RES1    0.0000
      9 O4        -2.4563    3.1529    4.4873 O.2       1 RES1    0.0000
     10 C4        -2.1164    0.6189    0.5442 C.2       1 RES1    0.0000
     11 C5        -1.1186    3.1280    2.6045 C.ar      1 RES1    0.0000
     12 C6        -0.0083    3.2166    3.4611 C.ar      1 RES1    0.0000
     13 H2        -0.0961    3.1353    4.4203 H         1 RES1    0.0000
     14 O5         2.6141    3.7287    1.1442 O.3       1 RES1    0.0000
     15 C7         0.2262    3.4853    0.6525 C.ar      1 RES1    0.0000
     16 H3         0.3375    3.5989   -0.3269 H         1 RES1    0.0000
     17 C8        -1.5754    0.9185   -0.7835 C.3       1 RES1    0.0000
     18 H4        -0.6656    1.3248   -0.7658 H         1 RES1    0.0000
     19 C9         1.1993    3.4239    2.8642 C.ar      1 RES1    0.0000
     20 C10       -2.6710    1.8042   -0.1262 C.3       1 RES1    0.0000
     21 C11       -2.1724   -0.2101    1.5592 C.2       1 RES1    0.0000
     22 H5        -1.6668   -1.0367    1.5372 H         1 RES1    0.0000
     23 H6        -2.7186    0.0045    2.3310 H         1 RES1    0.0000
     24 C12       -4.0905    1.7432   -0.6453 C.3       1 RES1    0.0000
     25 H7        -4.1841    2.3517   -1.4334 H         1 RES1    0.0000
     26 H8        -4.7223    2.0323    0.0760 H         1 RES1    0.0000
     27 H9        -4.3045    0.8055   -0.9210 H         1 RES1    0.0000
     28 C13        3.2990    3.9147    2.3892 C.3       1 RES1    0.0000
     29 H10        4.1209    3.3708    2.4063 H         1 RES1    0.0000
     30 H11        3.5501    4.8603    2.4980 H         1 RES1    0.0000
     31 C14       -1.8326    0.0494   -1.9884 C.3       1 RES1    0.0000
     32 H12       -1.8586    0.6056   -2.7915 H         1 RES1    0.0000
     33 H13       -2.6881   -0.4096   -1.8818 H         1 RES1    0.0000
     34 H14       -1.1164   -0.6115   -2.0723 H         1 RES1    0.0000
     35 H15       -1.5625    3.5060   -1.4498 H         1 RES1    0.0000
@<TRIPOS>BOND
     1    1    5 1
     2    2    5 1
     3    3   14 1
     4    4    7 2
     5    5    6 1
     6    8   19 1
     7    9    4 2
     8   10   17 1
     9   11    1 ar
    10   12   11 ar
    11   13   12 1
    12   14   28 1
    13   15    1 ar
    14   16   15 1
    15   17   18 1
    16   19    3 ar
    17   20    5 1
    18   21   10 2
    19   22   21 1
    20   23   21 1
    21   24   20 1
    22   25   24 1
    23   26   24 1
    24   27   24 1
    25   28    8 1
    26   29   28 1
    27   30   28 1
    28   31   17 1
    29   32   31 1
    30   33   31 1
    31   34   31 1
    32   35    2 1
    33    3   15 ar
    34    4   11 1
    35   10   20 1
    36   12   19 ar
    37   17   20 1
@<TRIPOS>SUBSTRUCTURE
     1 RES1 1

@<TRIPOS>CRYSIN
   9.5866   19.5978    7.6285  90.0000 111.3160  90.0000  14 1

