# MOL2 file generated by ConQuest
# Please check atom types

@<TRIPOS>MOLECULE
FUZZAB01
    16    16     1
SMALL
NO_CHARGES
****
Generated from CSD

@<TRIPOS>ATOM
      1 N1        12.6653    3.4565   -2.4080 N.ar      1 RES1    0.0000
      2 N2        15.1153    0.4687   -0.6759 N.am      1 RES1    0.0000
      3 O1        13.6008    0.3759    1.0646 O.2       1 RES1    0.0000
      4 O2        15.9913   -0.3515    0.0845 O.3       1 RES1    0.0000
      5 C1        11.3290    3.3198   -2.2390 C.ar      1 RES1    0.0000
      6 C2        10.7796    2.3482   -1.3518 C.ar      1 RES1    0.0000
      7 C3        11.6408    1.4988   -0.6928 C.ar      1 RES1    0.0000
      8 C4        13.0068    1.6062   -0.8702 C.ar      1 RES1    0.0000
      9 C5        13.4820    2.5923   -1.7489 C.ar      1 RES1    0.0000
     10 C6        13.9274    0.7616   -0.1183 C.2       1 RES1    0.0000
     11 H1        10.6906    3.9447   -2.8051 H         1 RES1    0.0000
     12 H2         9.7997    2.2750   -1.1998 H         1 RES1    0.0000
     13 H3        11.2845    0.7567   -0.0253 H         1 RES1    0.0000
     14 H4        14.5510    2.6460   -1.9264 H         1 RES1    0.0000
     15 H5        15.1450    0.4394   -1.5969 H         1 RES1    0.0000
     16 H6        16.9267   -0.8739    0.1774 H         1 RES1    0.0000
@<TRIPOS>BOND
     1    1    5 ar
     2    2    4 1
     3    3   10 2
     4    4   16 1
     5    5    6 ar
     6    6    7 ar
     7    7    8 ar
     8    8    9 ar
     9    9    1 ar
    10   10    2 1
    11   11    5 1
    12   12    6 1
    13   13    7 1
    14   14    9 1
    15   15    2 1
    16    8   10 1
@<TRIPOS>SUBSTRUCTURE
     1 RES1 1

@<TRIPOS>CRYSIN
  14.8480    4.8820    8.4490  90.0000  90.0000  90.0000  29 1

