# MOL2 file generated by ConQuest
# Please check atom types

@<TRIPOS>MOLECULE
GABBES
    42    43     1
SMALL
NO_CHARGES
****
Generated from CSD

@<TRIPOS>ATOM
      1 C1         4.9677    5.2619    0.3160 C.1       1 RES1    0.0000
      2 N1         5.0544    4.1267    0.2469 N.1       1 RES1    0.0000
      3 C2         4.8619    6.7080    0.4497 C.3       1 RES1    0.0000
      4 H1         3.9971    7.0121    0.0748 H         1 RES1    0.0000
      5 H2         5.5884    7.1417   -0.0634 H         1 RES1    0.0000
      6 C3         4.9564    7.1224    1.9255 C.3       1 RES1    0.0000
      7 H3         4.2694    6.6293    2.4386 H         1 RES1    0.0000
      8 H4         5.8431    6.8530    2.2744 H         1 RES1    0.0000
      9 C4         4.7690    8.6199    2.1679 C.3       1 RES1    0.0000
     10 N2         3.3450    9.0028    1.7715 N.pl3     1 RES1    0.0000
     11 O1         3.1264   10.1824    1.4951 O.2       1 RES1    0.0000
     12 O2         2.4788    8.1444    1.7953 O.2       1 RES1    0.0000
     13 C5         4.9646    9.0234    3.6540 C.3       1 RES1    0.0000
     14 H5         5.8215    8.5893    3.9315 H         1 RES1    0.0000
     15 C6         5.2695   10.5236    3.6120 C.3       1 RES1    0.0000
     16 H6         5.8438   10.7847    4.3743 H         1 RES1    0.0000
     17 H7         4.4326   11.0514    3.6472 H         1 RES1    0.0000
     18 C7         5.9980   10.7527    2.2800 C.3       1 RES1    0.0000
     19 H8         6.9682   10.8762    2.4352 H         1 RES1    0.0000
     20 H9         5.6453   11.5599    1.8292 H         1 RES1    0.0000
     21 C8         5.7501    9.5051    1.4124 C.3       1 RES1    0.0000
     22 H10        5.3726    9.7668    0.5357 H         1 RES1    0.0000
     23 H11        6.6000    9.0212    1.2573 H         1 RES1    0.0000
     24 C9         3.9129    8.5196    4.6632 C.3       1 RES1    0.0000
     25 H12        3.6220    7.6162    4.3460 H         1 RES1    0.0000
     26 C10        2.6446    9.3675    4.7889 C.3       1 RES1    0.0000
     27 H13        2.0292    8.9425    5.4220 H         1 RES1    0.0000
     28 H14        2.2126    9.4412    3.9122 H         1 RES1    0.0000
     29 H15        2.8805   10.2624    5.1139 H         1 RES1    0.0000
     30 C11        4.4984    8.3242    6.0609 C.3       1 RES1    0.0000
     31 H16        3.8095    7.8943    6.6442 H         1 RES1    0.0000
     32 O3         5.6148    7.4676    5.9634 O.3       1 RES1    0.0000
     33 C12        6.2271    7.2278    7.2354 C.3       1 RES1    0.0000
     34 H17        7.0556    6.7011    7.1086 H         1 RES1    0.0000
     35 H18        5.6117    6.7003    7.8040 H         1 RES1    0.0000
     36 C13        6.5617    8.5352    7.9309 C.3       1 RES1    0.0000
     37 H19        6.8606    8.3577    8.8585 H         1 RES1    0.0000
     38 H20        7.2949    8.9945    7.4506 H         1 RES1    0.0000
     39 C14        5.3319    9.4074    7.9467 C.3       1 RES1    0.0000
     40 H21        4.6347    8.9949    8.5153 H         1 RES1    0.0000
     41 H22        5.5554   10.2962    8.3239 H         1 RES1    0.0000
     42 O4         4.8396    9.5574    6.6000 O.3       1 RES1    0.0000
@<TRIPOS>BOND
     1    1    2 3
     2    3    1 1
     3    4    3 1
     4    5    3 1
     5    6    3 1
     6    7    6 1
     7    8    6 1
     8    9    6 1
     9   10    9 1
    10   11   10 2
    11   12   10 2
    12   13    9 1
    13   14   13 1
    14   15   13 1
    15   16   15 1
    16   17   15 1
    17   18   15 1
    18   19   18 1
    19   20   18 1
    20   21    9 1
    21   22   21 1
    22   23   21 1
    23   24   13 1
    24   25   24 1
    25   26   24 1
    26   27   26 1
    27   28   26 1
    28   29   26 1
    29   30   24 1
    30   31   30 1
    31   32   30 1
    32   33   32 1
    33   34   33 1
    34   35   33 1
    35   36   33 1
    36   37   36 1
    37   38   36 1
    38   39   36 1
    39   40   39 1
    40   41   39 1
    41   42   30 1
    42   18   21 1
    43   39   42 1
@<TRIPOS>SUBSTRUCTURE
     1 RES1 1

@<TRIPOS>CRYSIN
   6.5000    9.7430   11.7730  74.5790  86.1590  88.6560   2 1

