# MOL2 file generated by ConQuest
# Please check atom types

@<TRIPOS>MOLECULE
GABBIW
    42    43     1
SMALL
NO_CHARGES
****
Generated from CSD

@<TRIPOS>ATOM
      1 N1        18.6540    0.9710    2.8740 N.1       1 RES1    0.0000
      2 C1        18.1996    1.5754    2.0215 C.1       1 RES1    0.0000
      3 C2        17.6127    2.3495    0.9293 C.3       1 RES1    0.0000
      4 H1        17.3578    1.7338    0.1967 H         1 RES1    0.0000
      5 H2        18.2919    2.9772    0.5758 H         1 RES1    0.0000
      6 C3        16.3803    3.1417    1.3689 C.3       1 RES1    0.0000
      7 H3        15.6763    2.5042    1.6496 H         1 RES1    0.0000
      8 H4        16.6198    3.6902    2.1578 H         1 RES1    0.0000
      9 C4        15.8102    4.0584    0.2866 C.3       1 RES1    0.0000
     10 N2        15.3459    3.2005   -0.8996 N.pl3     1 RES1    0.0000
     11 O1        15.1029    2.0155   -0.7090 O.2       1 RES1    0.0000
     12 O2        15.1709    3.7619   -1.9753 O.2       1 RES1    0.0000
     13 C5        14.5574    4.8846    0.7572 C.3       1 RES1    0.0000
     14 H5        14.7000    5.0838    1.7265 H         1 RES1    0.0000
     15 C6        14.7005    6.2223    0.0164 C.3       1 RES1    0.0000
     16 H6        14.3531    6.1551   -0.9088 H         1 RES1    0.0000
     17 H7        14.2171    6.9443    0.4898 H         1 RES1    0.0000
     18 C7        16.2038    6.4743    0.0195 C.3       1 RES1    0.0000
     19 H8        16.4941    6.8515    0.8873 H         1 RES1    0.0000
     20 H9        16.4564    7.1028   -0.7029 H         1 RES1    0.0000
     21 C8        16.8345    5.0996   -0.2141 C.3       1 RES1    0.0000
     22 H10       17.6826    5.0189    0.2900 H         1 RES1    0.0000
     23 H11       17.0239    4.9638   -1.1762 H         1 RES1    0.0000
     24 C9        13.1732    4.2184    0.6506 C.3       1 RES1    0.0000
     25 H12       13.0959    3.8434   -0.2725 H         1 RES1    0.0000
     26 C10       12.9696    3.0564    1.6301 C.3       1 RES1    0.0000
     27 H13       12.0408    2.7456    1.5810 H         1 RES1    0.0000
     28 H14       13.1638    3.3597    2.5420 H         1 RES1    0.0000
     29 H15       13.5730    2.3216    1.3955 H         1 RES1    0.0000
     30 C11       12.0823    5.2618    0.8053 C.3       1 RES1    0.0000
     31 H16       12.2132    5.9786    0.1199 H         1 RES1    0.0000
     32 O3        12.1625    5.8324    2.0938 O.3       1 RES1    0.0000
     33 C12       11.1947    6.8870    2.2254 C.3       1 RES1    0.0000
     34 H17       11.3989    7.6090    1.5789 H         1 RES1    0.0000
     35 H18       11.2399    7.2688    3.1383 H         1 RES1    0.0000
     36 C13        9.8013    6.3528    1.9672 C.3       1 RES1    0.0000
     37 H19        9.5397    5.7341    2.6947 H         1 RES1    0.0000
     38 H20        9.1541    7.1013    1.9488 H         1 RES1    0.0000
     39 C14        9.7805    5.6247    0.6424 C.3       1 RES1    0.0000
     40 H21        8.9042    5.1788    0.5225 H         1 RES1    0.0000
     41 H22        9.8997    6.2736   -0.0953 H         1 RES1    0.0000
     42 O4        10.8301    4.6448    0.5986 O.3       1 RES1    0.0000
@<TRIPOS>BOND
     1    1    2 3
     2    2    3 1
     3    3    4 1
     4    5    3 1
     5    6    3 1
     6    7    6 1
     7    8    6 1
     8    9    6 1
     9   10    9 1
    10   11   10 2
    11   12   10 2
    12   13    9 1
    13   14   13 1
    14   15   13 1
    15   16   15 1
    16   17   15 1
    17   18   15 1
    18   19   18 1
    19   20   18 1
    20   21    9 1
    21   22   21 1
    22   23   21 1
    23   24   13 1
    24   25   24 1
    25   26   24 1
    26   27   26 1
    27   28   26 1
    28   29   26 1
    29   30   24 1
    30   31   30 1
    31   32   30 1
    32   33   32 1
    33   34   33 1
    34   35   33 1
    35   36   33 1
    36   37   36 1
    37   38   36 1
    38   39   36 1
    39   40   39 1
    40   41   39 1
    41   42   30 1
    42   18   21 1
    43   39   42 1
@<TRIPOS>SUBSTRUCTURE
     1 RES1 1

@<TRIPOS>CRYSIN
  19.1040    7.5449   10.2460  90.0000  90.0170  90.0000  14 1

