# MOL2 file generated by ConQuest
# Please check atom types

@<TRIPOS>MOLECULE
GABTEL
    42    44     1
SMALL
NO_CHARGES
****
Generated from CSD

@<TRIPOS>ATOM
      1 O1        12.3702    2.0197    2.2571 O.3       1 RES1    0.0000
      2 O2        18.3673    5.5405    0.8106 O.2       1 RES1    0.0000
      3 O3        16.7719    6.5821    1.8514 O.2       1 RES1    0.0000
      4 N1        17.2698    5.5647    1.3726 N.pl3     1 RES1    0.0000
      5 N2        12.3758    4.3110    2.2509 N.2       1 RES1    0.0000
      6 C1        13.0124    3.2264    2.1190 C.2       1 RES1    0.0000
      7 C2        16.5189    4.3105    1.4625 C.ar      1 RES1    0.0000
      8 C3        15.0955    1.9524    1.6476 C.ar      1 RES1    0.0000
      9 C4        13.0102    0.8145    2.0784 C.2       1 RES1    0.0000
     10 C5        14.4579    3.1838    1.8393 C.ar      1 RES1    0.0000
     11 C6        16.4762    1.9404    1.3473 C.ar      1 RES1    0.0000
     12 C7        15.1715    4.3725    1.7605 C.ar      1 RES1    0.0000
     13 C8        14.3099    0.7477    1.7748 C.2       1 RES1    0.0000
     14 C9        12.0664   -0.3098    2.3129 C.3       1 RES1    0.0000
     15 C10       10.9580    4.2856    2.4186 C.ar      1 RES1    0.0000
     16 C11       10.8714   -0.3364    1.3511 C.3       1 RES1    0.0000
     17 C12       10.4059    4.8127    3.5675 C.ar      1 RES1    0.0000
     18 C13       11.2438   -0.7935   -0.0454 C.3       1 RES1    0.0000
     19 C14       10.1189    3.8542    1.4039 C.ar      1 RES1    0.0000
     20 C15        9.0258    4.8892    3.7104 C.ar      1 RES1    0.0000
     21 C16        8.1991    4.4610    2.6992 C.ar      1 RES1    0.0000
     22 C17       10.0394   -0.9151   -0.9778 C.3       1 RES1    0.0000
     23 C18        8.7513    3.9451    1.5482 C.ar      1 RES1    0.0000
     24 C19       17.1804    3.1122    1.2467 C.ar      1 RES1    0.0000
     25 H1        16.9118    1.1295    1.2165 H         1 RES1    0.0000
     26 H2        14.7574    5.1914    1.9109 H         1 RES1    0.0000
     27 H3        10.9649    5.1294    4.2398 H         1 RES1    0.0000
     28 H4        10.4860    3.4944    0.6290 H         1 RES1    0.0000
     29 H5         8.6531    5.2344    4.4893 H         1 RES1    0.0000
     30 H6         7.2752    4.4955    2.7988 H         1 RES1    0.0000
     31 H7         8.1963    3.6736    0.8531 H         1 RES1    0.0000
     32 H8        18.0850    3.1023    1.0314 H         1 RES1    0.0000
     33 H9        12.5650   -1.1364    2.2161 H         1 RES1    0.0000
     34 H10       11.7398   -0.2341    3.2231 H         1 RES1    0.0000
     35 H11       10.1968   -0.9380    1.7022 H         1 RES1    0.0000
     36 H12       10.5093    0.5624    1.3012 H         1 RES1    0.0000
     37 H13       11.8514   -0.1448   -0.4342 H         1 RES1    0.0000
     38 H14       11.6831   -1.6563    0.0091 H         1 RES1    0.0000
     39 H15        9.6456   -0.0509   -1.1181 H         1 RES1    0.0000
     40 H16       10.3171   -1.2803   -1.8209 H         1 RES1    0.0000
     41 H17        9.3935   -1.4988   -0.5737 H         1 RES1    0.0000
     42 H18       14.7418   -0.1127    1.6743 H         1 RES1    0.0000
@<TRIPOS>BOND
     1    1    6 1
     2    2    4 2
     3    3    4 2
     4    4    7 1
     5    5    6 2
     6    6   10 1
     7    7   12 ar
     8    8   10 ar
     9    9    1 1
    10   10   12 ar
    11   11    8 ar
    12   12   26 1
    13   13    8 1
    14   14    9 1
    15   15    5 1
    16   16   14 1
    17   17   15 ar
    18   18   16 1
    19   19   15 ar
    20   20   17 ar
    21   21   20 ar
    22   22   18 1
    23   23   19 ar
    24   24    7 ar
    25   25   11 1
    26   27   17 1
    27   28   19 1
    28   29   20 1
    29   30   21 1
    30   31   23 1
    31   32   24 1
    32   33   14 1
    33   34   14 1
    34   35   16 1
    35   36   16 1
    36   37   18 1
    37   38   18 1
    38   39   22 1
    39   40   22 1
    40   41   22 1
    41   42   13 1
    42    9   13 2
    43   11   24 ar
    44   21   23 ar
@<TRIPOS>SUBSTRUCTURE
     1 RES1 1

@<TRIPOS>CRYSIN
  31.1600    8.0480   13.0090  90.0000  90.0000  90.0000  60 1

