# MOL2 file generated by ConQuest
# Please check atom types

@<TRIPOS>MOLECULE
GACBER
    18    20     1
SMALL
NO_CHARGES
****
Generated from CSD

@<TRIPOS>ATOM
      1 C1         0.4364    0.0640    1.9537 C.2       1 RES1    0.0000
      2 C2         1.4716    0.4559    2.6353 C.2       1 RES1    0.0000
      3 C3         1.2017    1.1991    1.3827 C.3       1 RES1    0.0000
      4 C4         2.4164    0.3419    3.7194 C.ar      1 RES1    0.0000
      5 C5         3.5825    1.1060    3.7229 C.ar      1 RES1    0.0000
      6 C6         4.5113    0.9432    4.7296 C.ar      1 RES1    0.0000
      7 C7         4.2974    0.0349    5.7486 C.ar      1 RES1    0.0000
      8 C8         3.1221   -0.7048    5.7556 C.ar      1 RES1    0.0000
      9 C9         2.1963   -0.5652    4.7577 C.ar      1 RES1    0.0000
     10 C10       -0.6756   -0.8153    1.6901 C.ar      1 RES1    0.0000
     11 C11       -1.5576   -0.5536    0.6553 C.ar      1 RES1    0.0000
     12 C12       -2.6137   -1.3875    0.4304 C.ar      1 RES1    0.0000
     13 C13       -2.8123   -2.4981    1.2210 C.ar      1 RES1    0.0000
     14 C14       -1.9461   -2.7575    2.2471 C.ar      1 RES1    0.0000
     15 C15       -0.8882   -1.9364    2.4948 C.ar      1 RES1    0.0000
     16 N1         0.5999    2.5912    1.5180 N.pl3     1 RES1    0.0000
     17 O1        -0.0363    2.8796    2.5018 O.2       1 RES1    0.0000
     18 O2         0.7997    3.3541    0.5850 O.2       1 RES1    0.0000
@<TRIPOS>BOND
     1    1    2 2
     2    2    3 1
     3    3    1 1
     4    4    2 1
     5    5    4 ar
     6    6    5 ar
     7    7    6 ar
     8    8    7 ar
     9    9    4 ar
    10   10    1 1
    11   11   10 ar
    12   12   11 ar
    13   13   12 ar
    14   14   13 ar
    15   15   10 ar
    16   16    3 1
    17   17   16 2
    18   18   16 2
    19    8    9 ar
    20   14   15 ar
@<TRIPOS>SUBSTRUCTURE
     1 RES1 1

@<TRIPOS>CRYSIN
   6.1470   11.6300   17.5690  90.0000  90.0000  90.0000  19 1

