# MOL2 file generated by ConQuest
# Please check atom types

@<TRIPOS>MOLECULE
GACGEZ
    84    90     3
SMALL
USER_CHARGES
****
Generated from CSD

@<TRIPOS>ATOM
      1 O1        -1.5755   22.1023    8.2752 O.2       1 RES1   -1.0000
      2 O2        -1.6612   20.4501    9.8640 O.3       1 RES1    0.0000
      3 O3         0.1023   16.7313    9.7220 O.3       1 RES1    0.0000
      4 O4         2.2786   10.0096   11.5502 O.2       1 RES1    0.0000
      5 O5         1.1612   10.7918   13.2144 O.2       1 RES1    0.0000
      6 N1        -1.2461   20.9441    8.5576 N.pl3     1 RES1    1.0000
      7 N2        -1.1654   19.1870   10.0059 N.2       1 RES1    0.0000
      8 N3         0.9299   17.3032    7.7410 N.2       1 RES1    0.0000
      9 N4         1.4153   16.0284    8.0762 N.2       1 RES1    0.0000
     10 N5         1.6461   10.9010   12.0947 N.pl3     1 RES1    0.0000
     11 C1         0.0361   20.1653    6.6168 C.3       1 RES1    0.0000
     12 H1        -0.0597   21.1008    6.3372 H         1 RES1    0.0000
     13 H2        -0.4252   19.5839    5.9771 H         1 RES1    0.0000
     14 H3         0.9872   19.9305    6.6454 H         1 RES1    0.0000
     15 C2        -0.5562   19.9887    7.9578 C.2       1 RES1    0.0000
     16 C3        -0.5148   18.9176    8.8924 C.2       1 RES1    0.0000
     17 C4         0.1780   17.6550    8.7312 C.2       1 RES1    0.0000
     18 C5         0.9090   15.7448    9.2300 C.2       1 RES1    0.0000
     19 C6         1.0963   14.5168   10.0093 C.ar      1 RES1    0.0000
     20 C7         0.4114   14.2982   11.2080 C.ar      1 RES1    0.0000
     21 H4        -0.1778   14.9621   11.5487 H         1 RES1    0.0000
     22 C8         0.5936   13.1158   11.8934 C.ar      1 RES1    0.0000
     23 H5         0.1338   12.9515   12.7084 H         1 RES1    0.0000
     24 C9         1.4592   12.1734   11.3704 C.ar      1 RES1    0.0000
     25 C10        2.1541   12.3590   10.1867 C.ar      1 RES1    0.0000
     26 H6         2.7422   11.6910    9.8519 H         1 RES1    0.0000
     27 C11        1.9635   13.5523    9.5060 C.ar      1 RES1    0.0000
     28 H7         2.4270   13.7111    8.6921 H         1 RES1    0.0000
     29 O6         4.4171   18.2085    3.1587 O.2       2 RES2   -1.0000
     30 O7         4.6544   16.4336    1.7090 O.3       2 RES2    0.0000
     31 O8         2.5995   12.8717    1.7852 O.3       2 RES2    0.0000
     32 O9         0.1073    6.2730   -0.0975 O.2       2 RES2    0.0000
     33 O10        1.3991    6.9436   -1.6857 O.2       2 RES2    0.0000
     34 N6         4.0912   17.0454    2.9199 N.pl3     2 RES2    1.0000
     35 N7         4.1065   15.1822    1.5969 N.2       2 RES2    0.0000
     36 N8         1.6567   13.5488    3.6743 N.2       2 RES2    0.0000
     37 N9         1.1011   12.3068    3.3242 N.2       2 RES2    0.0000
     38 N10        0.8320    7.1103   -0.6121 N.pl3     2 RES2    0.0000
     39 C12        2.5576   16.4652    4.7447 C.3       2 RES2    0.0000
     40 H8         2.8613   17.3264    5.0990 H         2 RES2    0.0000
     41 H9         2.7330   15.7621    5.4035 H         2 RES2    0.0000
     42 H10        1.5960   16.5075    4.5608 H         2 RES2    0.0000
     43 C13        3.2914   16.1592    3.4853 C.2       2 RES2    0.0000
     44 C14        3.3170   15.0284    2.6286 C.2       2 RES2    0.0000
     45 C15        2.5155   13.8282    2.7518 C.2       2 RES2    0.0000
     46 C16        1.6817   11.9555    2.2174 C.2       2 RES2    0.0000
     47 C17        1.4710   10.7306    1.4466 C.ar      2 RES2    0.0000
     48 C18        2.1360   10.4986    0.2472 C.ar      2 RES2    0.0000
     49 H11        2.7344   11.1498   -0.1011 H         2 RES2    0.0000
     50 C19        1.9196    9.3084   -0.4384 C.ar      2 RES2    0.0000
     51 H12        2.3661    9.1344   -1.2583 H         2 RES2    0.0000
     52 C20        1.0409    8.3819    0.0979 C.ar      2 RES2    0.0000
     53 C21        0.3672    8.5913    1.3004 C.ar      2 RES2    0.0000
     54 H13       -0.2283    7.9380    1.6475 H         2 RES2    0.0000
     55 C22        0.5905    9.7744    1.9715 C.ar      2 RES2    0.0000
     56 H14        0.1456    9.9415    2.7934 H         2 RES2    0.0000
     57 O11        4.1890   26.1164    3.0710 O.2       3 RES3   -1.0000
     58 O12        4.2315   24.4260    1.5159 O.3       3 RES3    0.0000
     59 O13        2.4798   20.7329    1.7859 O.3       3 RES3    0.0000
     60 O14        0.4297   13.9912    0.0119 O.2       3 RES3    0.0000
     61 O15        1.6192   14.7466   -1.6159 O.2       3 RES3    0.0000
     62 N11        3.8499   24.9597    2.8166 N.pl3     3 RES3    1.0000
     63 N12        3.7071   23.1629    1.4197 N.2       3 RES3    0.0000
     64 N13        1.6604   21.3263    3.7573 N.2       3 RES3    0.0000
     65 N14        1.1898   20.0418    3.4478 N.2       3 RES3    0.0000
     66 N15        1.0721   14.8719   -0.5323 N.pl3     3 RES3    0.0000
     67 C23        2.5314   24.2665    4.7755 C.3       3 RES3    0.0000
     68 H15        2.9145   25.0769    5.1723 H         3 RES3    0.0000
     69 H16        2.7140   23.4983    5.3580 H         3 RES3    0.0000
     70 H17        1.5630   24.3790    4.6758 H         3 RES3    0.0000
     71 C24        3.1415   24.0320    3.4432 C.2       3 RES3    0.0000
     72 C25        3.0837   22.9348    2.5470 C.2       3 RES3    0.0000
     73 C26        2.3991   21.6807    2.7555 C.2       3 RES3    0.0000
     74 C27        1.6914   19.7444    2.2871 C.2       3 RES3    0.0000
     75 C28        1.5181   18.5212    1.5214 C.ar      3 RES3    0.0000
     76 C29        2.2538   18.2921    0.3511 C.ar      3 RES3    0.0000
     77 H18        2.8606   18.9501    0.0341 H         3 RES3    0.0000
     78 C30        2.0942   17.1038   -0.3431 C.ar      3 RES3    0.0000
     79 H19        2.5809   16.9371   -1.1408 H         3 RES3    0.0000
     80 C31        1.2059   16.1633    0.1560 C.ar      3 RES3    0.0000
     81 C32        0.4561   16.3696    1.3156 C.ar      3 RES3    0.0000
     82 H20       -0.1442   15.7051    1.6323 H         3 RES3    0.0000
     83 C33        0.6109   17.5614    1.9879 C.ar      3 RES3    0.0000
     84 H21        0.1012   17.7324    2.7706 H         3 RES3    0.0000
@<TRIPOS>BOND
     1    1    6 1
     2    2    6 1
     3    3   17 1
     4    4   10 2
     5    5   10 2
     6    6   15 2
     7    7    2 1
     8    8    9 1
     9    9   18 2
    10   10   24 1
    11   11   12 1
    12   13   11 1
    13   14   11 1
    14   15   11 1
    15   16    7 2
    16   17    8 2
    17   18    3 1
    18   19   18 1
    19   20   19 ar
    20   21   20 1
    21   22   20 ar
    22   23   22 1
    23   24   22 ar
    24   25   24 ar
    25   26   25 1
    26   27   19 ar
    27   28   27 1
    28   29   34 1
    29   30   34 1
    30   31   45 1
    31   32   38 2
    32   33   38 2
    33   34   43 2
    34   35   30 1
    35   36   37 1
    36   37   46 2
    37   38   52 1
    38   39   40 1
    39   41   39 1
    40   42   39 1
    41   43   39 1
    42   44   35 2
    43   45   36 2
    44   46   31 1
    45   47   46 1
    46   48   47 ar
    47   49   48 1
    48   50   48 ar
    49   51   50 1
    50   52   50 ar
    51   53   52 ar
    52   54   53 1
    53   55   47 ar
    54   56   55 1
    55   57   62 1
    56   58   62 1
    57   59   73 1
    58   60   66 2
    59   61   66 2
    60   62   71 2
    61   63   58 1
    62   64   65 1
    63   65   74 2
    64   66   80 1
    65   67   68 1
    66   69   67 1
    67   70   67 1
    68   71   67 1
    69   72   63 2
    70   73   64 2
    71   74   59 1
    72   75   74 1
    73   76   75 ar
    74   77   76 1
    75   78   76 ar
    76   79   78 1
    77   80   78 ar
    78   81   80 ar
    79   82   81 1
    80   83   75 ar
    81   84   83 1
    82   15   16 1
    83   16   17 1
    84   25   27 ar
    85   43   44 1
    86   44   45 1
    87   53   55 ar
    88   71   72 1
    89   72   73 1
    90   81   83 ar
@<TRIPOS>SUBSTRUCTURE
     1 RES1 1
     2 RES2 29
     3 RES3 57

@<TRIPOS>CRYSIN
  11.8511   23.7381   13.5624  90.0000 111.3240  90.0000   9 1

