# MOL2 file generated by ConQuest
# Please check atom types

@<TRIPOS>MOLECULE
GACYUF
    30    31     1
SMALL
NO_CHARGES
****
Generated from CSD

@<TRIPOS>ATOM
      1 O1         1.3010    1.0192    0.0292 O.2       1 RES1    0.0000
      2 O2         1.2304    2.3510   -4.6238 O.2       1 RES1    0.0000
      3 O3        -0.3150    1.6843    1.3227 O.2       1 RES1    0.0000
      4 O4        -0.7388    2.7747   -5.4345 O.2       1 RES1    0.0000
      5 N1         0.2299    1.6008    0.2205 N.pl3     1 RES1    0.0000
      6 N2         0.0566    2.6965   -4.4955 N.pl3     1 RES1    0.0000
      7 N3        -2.1171    4.6740   -3.6498 N.pl3     1 RES1    0.0000
      8 N4        -2.3207    3.4134   -1.7293 N.ar      1 RES1    0.0000
      9 C1        -0.4189    2.2403   -0.8985 C.ar      1 RES1    0.0000
     10 C2        -1.7296    2.7227   -0.7771 C.ar      1 RES1    0.0000
     11 C3        -3.4870    5.1995   -3.4776 C.3       1 RES1    0.0000
     12 C4         0.2083    2.2877   -2.1304 C.ar      1 RES1    0.0000
     13 C5        -0.4364    2.9499   -3.1495 C.ar      1 RES1    0.0000
     14 C6        -1.3236    5.3881   -4.6617 C.3       1 RES1    0.0000
     15 C7        -1.6385    3.6963   -2.8818 C.ar      1 RES1    0.0000
     16 C8        -1.3171    6.8915   -4.3743 C.3       1 RES1    0.0000
     17 C9        -2.7256    7.4552   -4.2296 C.3       1 RES1    0.0000
     18 C10       -3.4736    6.6862   -3.1470 C.3       1 RES1    0.0000
     19 H1        -0.4058    5.0672   -4.6412 H         1 RES1    0.0000
     20 H2         1.0202    1.8459   -2.2739 H         1 RES1    0.0000
     21 H3        -3.2125    7.3496   -5.0823 H         1 RES1    0.0000
     22 H4        -3.9307    4.6490   -2.8059 H         1 RES1    0.0000
     23 H5        -1.7093    5.1739   -5.5700 H         1 RES1    0.0000
     24 H6        -3.9534    5.0658   -4.3403 H         1 RES1    0.0000
     25 H7        -4.4097    6.9863   -3.0725 H         1 RES1    0.0000
     26 H8        -3.0591    6.8506   -2.2530 H         1 RES1    0.0000
     27 H9        -2.2360    2.5372    0.0184 H         1 RES1    0.0000
     28 H10       -0.8284    7.0733   -3.5049 H         1 RES1    0.0000
     29 H11       -0.8394    7.3242   -5.1068 H         1 RES1    0.0000
     30 H12       -2.6994    8.4062   -3.9680 H         1 RES1    0.0000
@<TRIPOS>BOND
     1    1    5 2
     2    2    6 2
     3    3    5 2
     4    4    6 2
     5    5    9 1
     6    6   13 1
     7    7   11 1
     8    8   10 ar
     9    9   10 ar
    10   10   27 1
    11   11   18 1
    12   12    9 ar
    13   13   12 ar
    14   14    7 1
    15   15    7 1
    16   16   14 1
    17   17   16 1
    18   18   17 1
    19   19   14 1
    20   20   12 1
    21   21   17 1
    22   22   11 1
    23   23   14 1
    24   24   11 1
    25   25   18 1
    26   26   18 1
    27   28   16 1
    28   29   16 1
    29   30   17 1
    30    8   15 ar
    31   13   15 ar
@<TRIPOS>SUBSTRUCTURE
     1 RES1 1

@<TRIPOS>CRYSIN
   5.9847    7.3833   12.3750  94.2900  95.2800  91.8000   2 1

