# MOL2 file generated by ConQuest
# Please check atom types

@<TRIPOS>MOLECULE
GADBAP01
    20    20     1
SMALL
NO_CHARGES
****
Generated from CSD

@<TRIPOS>ATOM
      1 C1         3.5539    1.1896    1.0409 C.ar      1 RES1    0.0000
      2 C2         4.9334    0.9133    0.8369 C.ar      1 RES1    0.0000
      3 C3         5.8751    1.8786    1.1970 C.ar      1 RES1    0.0000
      4 C4         5.4568    3.0668    1.7588 C.ar      1 RES1    0.0000
      5 C5         4.0965    3.3690    1.9396 C.ar      1 RES1    0.0000
      6 C6         3.1547    2.4297    1.5664 C.ar      1 RES1    0.0000
      7 C7         5.3435   -0.3686    0.2345 C.2       1 RES1    0.0000
      8 C8         6.7891   -0.6233   -0.0886 C.3       1 RES1    0.0000
      9 N1         6.4514    4.0392    2.1885 N.pl3     1 RES1    0.0000
     10 O1         2.5954    0.3246    0.7259 O.3       1 RES1    0.0000
     11 O2         4.4906   -1.2257   -0.0160 O.2       1 RES1    0.0000
     12 O3         6.0819    5.0586    2.7685 O.2       1 RES1    0.0000
     13 O4         7.6332    3.7925    1.9679 O.2       1 RES1    0.0000
     14 H1         3.0386   -0.5007    0.3767 H         1 RES1    0.0000
     15 H2         6.9462    1.7098    1.0409 H         1 RES1    0.0000
     16 H3         3.7906    4.3199    2.3722 H         1 RES1    0.0000
     17 H4         2.0997    2.6252    1.7036 H         1 RES1    0.0000
     18 H5         6.8763   -1.5734   -0.6032 H         1 RES1    0.0000
     19 H6         7.3777   -0.6738    0.8159 H         1 RES1    0.0000
     20 H7         7.2014    0.1760   -0.6961 H         1 RES1    0.0000
@<TRIPOS>BOND
     1    1    2 ar
     2    2    3 ar
     3    3    4 ar
     4    4    5 ar
     5    5    6 ar
     6    6    1 ar
     7    7    2 1
     8    8    7 1
     9    9    4 1
    10   10    1 1
    11   11    7 2
    12   12    9 2
    13   13    9 2
    14   14   10 1
    15   15    3 1
    16   16    5 1
    17   17    6 1
    18   18    8 1
    19   19    8 1
    20   20    8 1
@<TRIPOS>SUBSTRUCTURE
     1 RES1 1

@<TRIPOS>CRYSIN
  15.1929    7.2142    7.2588  90.0000  90.0000  90.0000  29 1

