# MOL2 file generated by ConQuest
# Please check atom types

@<TRIPOS>MOLECULE
GADBAP
    20    20     1
SMALL
NO_CHARGES
****
Generated from CSD

@<TRIPOS>ATOM
      1 O1         2.6025    0.3262    0.7309 O.3       1 RES1    0.0000
      2 O2         4.5116   -1.2287   -0.0129 O.2       1 RES1    0.0000
      3 O3         6.0931    5.0799    2.7735 O.2       1 RES1    0.0000
      4 O4         7.6582    3.7993    1.9939 O.2       1 RES1    0.0000
      5 N1         6.4680    4.0512    2.2066 N.pl3     1 RES1    0.0000
      6 C1         3.5683    1.2019    1.0473 C.ar      1 RES1    0.0000
      7 C2         4.9485    0.9203    0.8458 C.ar      1 RES1    0.0000
      8 C3         5.8966    1.8885    1.2082 C.ar      1 RES1    0.0000
      9 C4         5.4693    3.0838    1.7730 C.ar      1 RES1    0.0000
     10 C5         4.1097    3.3819    1.9530 C.ar      1 RES1    0.0000
     11 C6         3.1656    2.4406    1.5802 C.ar      1 RES1    0.0000
     12 C7         5.3635   -0.3629    0.2417 C.2       1 RES1    0.0000
     13 C8         6.8075   -0.6165   -0.0819 C.3       1 RES1    0.0000
     14 H1         3.1062   -0.4656    0.3854 H         1 RES1    0.0000
     15 H2         6.9756    1.8034    1.0423 H         1 RES1    0.0000
     16 H3         3.8240    4.2996    2.4652 H         1 RES1    0.0000
     17 H4         2.1086    2.6296    1.7038 H         1 RES1    0.0000
     18 H5         6.9436   -1.5713   -0.5769 H         1 RES1    0.0000
     19 H6         7.3301   -0.6405    0.8641 H         1 RES1    0.0000
     20 H7         7.2646    0.1371   -0.7147 H         1 RES1    0.0000
@<TRIPOS>BOND
     1    1    6 1
     2    2   12 2
     3    3    5 2
     4    4    5 2
     5    5    9 1
     6    6    7 ar
     7    7    8 ar
     8    8    9 ar
     9    9   10 ar
    10   10   11 ar
    11   11    6 ar
    12   12    7 1
    13   13   12 1
    14   14    1 1
    15   15    8 1
    16   16   10 1
    17   17   11 1
    18   18   13 1
    19   19   13 1
    20   20   13 1
@<TRIPOS>SUBSTRUCTURE
     1 RES1 1

@<TRIPOS>CRYSIN
  15.2399    7.2338    7.2773  90.0000  90.0000  90.0000  29 1

