# MOL2 file generated by ConQuest
# Please check atom types

@<TRIPOS>MOLECULE
GADFID
    52    52     2
SMALL
NO_CHARGES
****
Generated from CSD

@<TRIPOS>ATOM
      1 N1         4.5391    9.4979    1.5904 N.pl3     1 RES1    0.0000
      2 O1         6.6076    9.9786    3.3189 O.2       1 RES1    0.0000
      3 C1         4.6420   10.9479    1.6328 C.3       1 RES1    0.0000
      4 H1         3.9823   11.3328    1.0513 H         1 RES1    0.0000
      5 H2         5.5173   11.2150    1.3440 H         1 RES1    0.0000
      6 H3         4.4946   11.2527    2.5308 H         1 RES1    0.0000
      7 O2         7.1592    7.8800    3.3135 O.2       1 RES1    0.0000
      8 N2         4.9728    3.6416    1.6694 N.pl3     1 RES1    0.0000
      9 C2         3.6137    8.8116    0.9327 C.2       1 RES1    0.0000
     10 N3         3.7382    7.5157    0.9750 N.2       1 RES1    0.0000
     11 C3         5.3243    5.9913    1.9956 C.2       1 RES1    0.0000
     12 C4         4.8735    7.2961    1.7206 C.2       1 RES1    0.0000
     13 N4         6.4345    8.8104    2.9452 N.pl3     1 RES1    0.0000
     14 C5         5.3719    8.5265    2.1126 C.2       1 RES1    0.0000
     15 C6         4.0844    2.6108    1.1853 C.3       1 RES1    0.0000
     16 H4         3.4746    2.9875    0.5468 H         1 RES1    0.0000
     17 H5         3.5896    2.2430    1.9216 H         1 RES1    0.0000
     18 H6         4.5981    1.9155    0.7663 H         1 RES1    0.0000
     19 C7         6.0860    3.2408    2.4892 C.3       1 RES1    0.0000
     20 H7         6.8982    3.6025    2.1249 H         1 RES1    0.0000
     21 H8         6.1420    2.2831    2.5062 H         1 RES1    0.0000
     22 H9         5.9608    3.5695    3.3819 H         1 RES1    0.0000
     23 C8         4.6829    4.9240    1.4942 C.2       1 RES1    0.0000
     24 H10        2.8802    9.2430    0.5022 H         1 RES1    0.0000
     25 H11        3.9007    5.0633    0.9034 H         1 RES1    0.0000
     26 H12        6.0636    5.9115    2.4939 H         1 RES1    0.0000
     27 N5        10.2474   -0.3522    6.0883 N.pl3     2 RES2    0.0000
     28 O3         7.8700   -0.7450    4.7836 O.2       2 RES2    0.0000
     29 C9        10.1092   -1.7996    6.0567 C.3       2 RES2    0.0000
     30 H13       10.7964   -2.1982    6.5959 H         2 RES2    0.0000
     31 H14       10.1917   -2.1087    5.1518 H         2 RES2    0.0000
     32 H15        9.2479   -2.0475    6.4018 H         2 RES2    0.0000
     33 O4         7.7209    1.3460    4.3225 O.2       2 RES2    0.0000
     34 N6        10.1414    5.5149    5.6740 N.pl3     2 RES2    0.0000
     35 C10       11.2505    0.2936    6.6652 C.2       2 RES2    0.0000
     36 N7        11.2141    1.5915    6.5458 N.2       2 RES2    0.0000
     37 C11        9.6812    3.1697    5.5068 C.2       2 RES2    0.0000
     38 C12       10.0860    1.8507    5.8195 C.2       2 RES2    0.0000
     39 N8         8.3126    0.3970    4.8499 N.pl3     2 RES2    0.0000
     40 C13        9.4795    0.6446    5.5307 C.2       2 RES2    0.0000
     41 C14       11.0740    6.5502    6.0560 C.3       2 RES2    0.0000
     42 H16       11.8449    6.1518    6.4649 H         2 RES2    0.0000
     43 H17       10.6534    7.1461    6.6790 H         2 RES2    0.0000
     44 H18       11.3441    7.0400    5.2758 H         2 RES2    0.0000
     45 C15        8.9174    5.9228    5.0386 C.3       2 RES2    0.0000
     46 H19        8.1720    5.5321    5.4991 H         2 RES2    0.0000
     47 H20        8.9182    5.6287    4.1243 H         2 RES2    0.0000
     48 H21        8.8447    6.8798    5.0678 H         2 RES2    0.0000
     49 C16       10.4167    4.2254    5.8573 C.2       2 RES2    0.0000
     50 H22       11.9327   -0.1838    7.1396 H         2 RES2    0.0000
     51 H23       11.2659    4.0996    6.2508 H         2 RES2    0.0000
     52 H24        8.8784    3.2962    5.0486 H         2 RES2    0.0000
@<TRIPOS>BOND
     1    1    3 1
     2    2   13 2
     3    3    4 1
     4    5    3 1
     5    6    3 1
     6    7   13 2
     7    8   15 1
     8    9    1 1
     9   10    9 2
    10   11   12 1
    11   12   10 1
    12   13   14 1
    13   14    1 1
    14   15   16 1
    15   17   15 1
    16   18   15 1
    17   19    8 1
    18   20   19 1
    19   21   19 1
    20   22   19 1
    21   23    8 1
    22   24    9 1
    23   25   23 1
    24   26   11 1
    25   27   29 1
    26   28   39 2
    27   29   30 1
    28   31   29 1
    29   32   29 1
    30   33   39 2
    31   34   41 1
    32   35   27 1
    33   36   35 2
    34   37   38 1
    35   38   36 1
    36   39   40 1
    37   40   27 1
    38   41   42 1
    39   43   41 1
    40   44   41 1
    41   45   34 1
    42   46   45 1
    43   47   45 1
    44   48   45 1
    45   49   34 1
    46   50   35 1
    47   51   49 1
    48   52   37 1
    49   11   23 2
    50   12   14 2
    51   37   49 2
    52   38   40 2
@<TRIPOS>SUBSTRUCTURE
     1 RES1 1
     2 RES2 27

@<TRIPOS>CRYSIN
  10.5015   23.5610    7.7533  90.0000  96.6040  90.0000  14 1

