# MOL2 file generated by ConQuest
# Please check atom types

@<TRIPOS>MOLECULE
GADGUP
   140   144     2
SMALL
NO_CHARGES
****
Generated from CSD

@<TRIPOS>ATOM
      1 O1        13.1333   10.5163    2.3129 O.2       1 RES1    0.0000
      2 O2        12.5966    1.2578    2.0548 O.2       2 RES2    0.0000
      3 O3        12.2951    7.2081    8.2913 O.2       2 RES2    0.0000
      4 O4        15.1003   10.9561    9.3462 O.2       1 RES1    0.0000
      5 O5        10.8075   12.1973    2.4970 O.2       1 RES1    0.0000
      6 N1        13.1223    3.4063    2.4658 N.am      2 RES2    0.0000
      7 O6        13.5294    5.8277    1.0160 O.2       2 RES2    0.0000
      8 N2        14.6309   12.2051    2.4373 N.am      1 RES1    0.0000
      9 O7        10.1504    2.3589    3.1137 O.2       2 RES2    0.0000
     10 N3        15.3195   11.2554    6.0547 N.3       1 RES1    0.0000
     11 N4        12.4810    5.0048    7.8017 N.am      2 RES2    0.0000
     12 O8         9.9175   10.7980    1.1125 O.2       1 RES1    0.0000
     13 N5        13.7207    5.4701    4.2503 N.3       2 RES2    0.0000
     14 N6        15.4799   13.4036    7.8994 N.am      1 RES1    0.0000
     15 O9        13.5625    5.3772   10.5751 O.2       2 RES2    0.0000
     16 O10        9.2859    5.8773    1.4122 O.2       2 RES2    0.0000
     17 O11       12.8843    3.8079   11.8955 O.2       2 RES2    0.0000
     18 N7         9.4902    2.3542    2.0871 N.pl3     2 RES2    0.0000
     19 N8        13.8327    7.7826    2.1344 N.am      2 RES2    0.0000
     20 N9        14.3740    9.1931    8.1156 N.am      1 RES1    0.0000
     21 O12       14.9227    8.2546   10.8955 O.2       1 RES1    0.0000
     22 N10       10.3623    6.4454    1.5467 N.pl3     2 RES2    0.0000
     23 N11       10.7369   11.6553    1.4051 N.pl3     1 RES1    0.0000
     24 C1        13.5959   11.5812    1.8885 C.2       1 RES1    0.0000
     25 O13        8.3201    1.9858    2.0345 O.2       2 RES2    0.0000
     26 O14       15.1925   12.5211   12.0381 O.2       1 RES1    0.0000
     27 O15       11.0580    6.3195    2.5400 O.2       2 RES2    0.0000
     28 N12       15.2491   13.3500   11.1484 N.pl3     1 RES1    0.0000
     29 C2        11.5035    2.9392    0.7567 C.ar      2 RES2    0.0000
     30 C3        13.2415    7.0015    1.2375 C.2       2 RES2    0.0000
     31 C4        12.4464    2.4625    1.8329 C.2       2 RES2    0.0000
     32 C5        15.4352    9.8011    5.9424 C.3       1 RES1    0.0000
     33 C6        14.6541   11.8390    4.8909 C.3       1 RES1    0.0000
     34 C7        12.8130    5.2419    5.3700 C.3       2 RES2    0.0000
     35 O16       16.2921   13.7981   10.6883 O.2       1 RES1    0.0000
     36 C8         9.2720    3.1894   -0.1825 C.ar      2 RES2    0.0000
     37 C9        13.9213   14.5003    9.3844 C.ar      1 RES1    0.0000
     38 C10       12.0098    6.0270    8.4965 C.2       2 RES2    0.0000
     39 C11       12.0258    3.4497   -0.4269 C.ar      2 RES2    0.0000
     40 C12       11.6618   12.1213    0.3617 C.ar      1 RES1    0.0000
     41 C13       13.9784   13.8902   10.6306 C.ar      1 RES1    0.0000
     42 N13       13.8795    8.2911   11.5187 N.pl3     1 RES1    0.0000
     43 N14       12.6777    4.7116   11.0977 N.pl3     2 RES2    0.0000
     44 C14       14.3819    6.7754    4.3490 C.3       2 RES2    0.0000
     45 C15       10.1138    2.8217    0.8419 C.ar      2 RES2    0.0000
     46 C16       16.4497   13.3283    6.8158 C.3       1 RES1    0.0000
     47 C17       14.0069    3.1061    3.5840 C.3       2 RES2    0.0000
     48 C18       15.3687   11.6270    3.5522 C.3       1 RES1    0.0000
     49 C19       13.0044    9.9828    9.9277 C.ar      1 RES1    0.0000
     50 C20       12.1766    7.6760    0.4050 C.ar      2 RES2    0.0000
     51 C21       14.2776   10.0673    9.1171 C.2       1 RES1    0.0000
     52 C22       11.1137   12.5340   -0.8364 C.ar      1 RES1    0.0000
     53 C23       13.4736    5.1604    6.7480 C.3       2 RES2    0.0000
     54 C24       15.5615    9.0906    7.2795 C.3       1 RES1    0.0000
     55 C25       13.0255   12.2152    0.6480 C.ar      1 RES1    0.0000
     56 C26       11.2828    5.0410   10.7626 C.ar      2 RES2    0.0000
     57 C27       12.8129    9.1780   11.0496 C.ar      1 RES1    0.0000
     58 C28        9.8898    7.8220   -0.4128 C.ar      2 RES2    0.0000
     59 C29       14.6857    4.3845    4.0476 C.3       2 RES2    0.0000
     60 C30        9.6528    5.9702    9.3103 C.ar      2 RES2    0.0000
     61 O17       15.3271   15.6236    7.8390 O.2       1 RES1    0.0000
     62 C31       13.8373   12.7662   -0.3376 C.ar      1 RES1    0.0000
     63 C32       10.8313    7.3305    0.4686 C.ar      2 RES2    0.0000
     64 C33       14.8899    7.3153    3.0126 C.3       2 RES2    0.0000
     65 C34       16.6078   11.8903    6.3698 C.3       1 RES1    0.0000
     66 C35       11.9449   13.1100   -1.7840 C.ar      1 RES1    0.0000
     67 C36       11.1859    3.8303   -1.4664 C.ar      2 RES2    0.0000
     68 O18       13.6689    7.6150   12.5168 O.2       1 RES1    0.0000
     69 C37       10.9858    5.6685    9.5525 C.ar      2 RES2    0.0000
     70 C38       11.6210    9.1858   11.7578 C.ar      1 RES1    0.0000
     71 C39       11.6915   14.3987   11.0835 C.ar      1 RES1    0.0000
     72 C40       12.5477    8.5954   -0.5713 C.ar      2 RES2    0.0000
     73 C41       10.2919    8.7143   -1.3869 C.ar      2 RES2    0.0000
     74 C42       12.8827   13.8259   11.4707 C.ar      1 RES1    0.0000
     75 C43       15.0148   14.5478    8.3409 C.2       1 RES1    0.0000
     76 C44       13.2996   13.2234   -1.5334 C.ar      1 RES1    0.0000
     77 C45       10.3171    4.7417   11.7020 C.ar      2 RES2    0.0000
     78 C46        8.6740    5.6836   10.2518 C.ar      2 RES2    0.0000
     79 C47        9.8154    3.7022   -1.3467 C.ar      2 RES2    0.0000
     80 C48        8.9984    5.0782   11.4421 C.ar      2 RES2    0.0000
     81 C49       11.6155    9.1110   -1.4518 C.ar      2 RES2    0.0000
     82 C50       11.6132   15.0308    9.8701 C.ar      1 RES1    0.0000
     83 C51       12.7111   15.0747    9.0287 C.ar      1 RES1    0.0000
     84 C52       10.5967   10.0017   11.3599 C.ar      1 RES1    0.0000
     85 C53       11.9536   10.7915    9.5540 C.ar      1 RES1    0.0000
     86 C54       10.7591   10.8032   10.2572 C.ar      1 RES1    0.0000
     87 H1        15.4327   10.6672    3.3903 H         1 RES1    0.0000
     88 H2        13.4997    2.6993    4.3019 H         2 RES2    0.0000
     89 H3        16.1103   13.9268    6.0717 H         1 RES1    0.0000
     90 H4        14.7742   12.8310   -0.1606 H         1 RES1    0.0000
     91 H5        14.8578   12.9622    2.1364 H         1 RES1    0.0000
     92 H6        17.0108   11.3700    7.1147 H         1 RES1    0.0000
     93 H7        15.7097    8.1064    7.0920 H         1 RES1    0.0000
     94 H8        14.5982    9.4864    5.4650 H         1 RES1    0.0000
     95 H9        15.2090    4.1695    4.8421 H         2 RES2    0.0000
     96 H10        9.4478    6.3690    8.4838 H         2 RES2    0.0000
     97 H11       12.1617    5.9668    5.3823 H         2 RES2    0.0000
     98 H12       17.2984   13.6641    7.1082 H         1 RES1    0.0000
     99 H13       13.7621   11.4122    4.8502 H         1 RES1    0.0000
    100 H14       16.1792    9.5374    5.3644 H         1 RES1    0.0000
    101 H15       14.6719    2.4763    3.3140 H         2 RES2    0.0000
    102 H16       15.2963    4.6583    3.3432 H         2 RES2    0.0000
    103 H17       14.5563   12.8057    5.0627 H         1 RES1    0.0000
    104 H18       10.2148   12.4154   -0.9619 H         1 RES1    0.0000
    105 H19       16.2142   12.0556    3.5265 H         1 RES1    0.0000
    106 H20       13.7110    7.4256    4.6977 H         2 RES2    0.0000
    107 H21       14.0551    4.3803    6.7935 H         2 RES2    0.0000
    108 H22       17.2633   11.8944    5.6126 H         1 RES1    0.0000
    109 H23       13.8025    8.5852    8.0994 H         1 RES1    0.0000
    110 H24       13.9993    5.9125    6.9314 H         2 RES2    0.0000
    111 H25       11.5484   13.4518   -2.6084 H         1 RES1    0.0000
    112 H26       15.1674    6.7624    4.9913 H         2 RES2    0.0000
    113 H27       13.4432    8.8435   -0.6261 H         2 RES2    0.0000
    114 H28       12.1833    4.2108    7.9777 H         2 RES2    0.0000
    115 H29       12.2936    4.3822    5.1990 H         2 RES2    0.0000
    116 H30        9.7951   10.0434   11.8660 H         1 RES1    0.0000
    117 H31       10.9293   14.3667   11.6649 H         1 RES1    0.0000
    118 H32       15.4694    8.0612    3.1908 H         2 RES2    0.0000
    119 H33       13.0451    4.1994    2.2564 H         2 RES2    0.0000
    120 H34        8.3705    4.8994   12.0639 H         2 RES2    0.0000
    121 H35       16.2665    9.4467    7.7814 H         1 RES1    0.0000
    122 H36       13.5828    8.6050    2.2126 H         2 RES2    0.0000
    123 H37       10.5596    4.3470   12.4938 H         2 RES2    0.0000
    124 H38       15.4285    6.6367    2.5500 H         2 RES2    0.0000
    125 H39       12.9669    3.5386   -0.5353 H         2 RES2    0.0000
    126 H40       15.2599   12.6923    8.2729 H         1 RES1    0.0000
    127 H41        8.3359    3.1245   -0.0649 H         2 RES2    0.0000
    128 H42        9.0285    7.5559   -0.3552 H         2 RES2    0.0000
    129 H43       13.8490   13.6164   -2.1883 H         1 RES1    0.0000
    130 H44       11.5437    4.1960   -2.2613 H         2 RES2    0.0000
    131 H45        9.2171    4.0170   -2.0585 H         2 RES2    0.0000
    132 H46        7.7824    5.9215   10.0638 H         2 RES2    0.0000
    133 H47       11.9052    9.7313   -2.0974 H         2 RES2    0.0000
    134 H48       11.5728    8.6282   12.5084 H         1 RES1    0.0000
    135 H49        9.6525    9.0121   -2.0179 H         2 RES2    0.0000
    136 H50       12.9845   13.3951   12.3153 H         1 RES1    0.0000
    137 H51       10.0602   11.3354    9.9584 H         1 RES1    0.0000
    138 H52       12.6347   15.4423    8.1464 H         1 RES1    0.0000
    139 H53       10.7910   15.3889    9.6518 H         1 RES1    0.0000
    140 H54       12.0307   11.3166    8.7791 H         1 RES1    0.0000
@<TRIPOS>BOND
     1    1   24 2
     2    2   31 2
     3    3   38 2
     4    4   51 2
     5    5   23 2
     6    6   31 1
     7    7   30 2
     8    8   24 1
     9    9   18 2
    10   10   32 1
    11   11   38 1
    12   12   23 2
    13   13   34 1
    14   14   46 1
    15   15   43 2
    16   16   22 2
    17   17   43 2
    18   18   25 2
    19   19   30 1
    20   20   51 1
    21   21   42 2
    22   22   27 2
    23   23   40 1
    24   24   55 1
    25   26   28 2
    26   28   35 2
    27   29   31 1
    28   30   50 1
    29   32   54 1
    30   33   10 1
    31   34   53 1
    32   36   45 ar
    33   37   41 ar
    34   38   69 1
    35   39   29 ar
    36   40   52 ar
    37   41   28 1
    38   42   57 1
    39   43   56 1
    40   44   13 1
    41   45   18 1
    42   46   65 1
    43   47    6 1
    44   48    8 1
    45   49   51 1
    46   50   63 ar
    47   52   66 ar
    48   53   11 1
    49   54   20 1
    50   55   40 ar
    51   56   69 ar
    52   57   49 ar
    53   58   63 ar
    54   59   13 1
    55   60   69 ar
    56   61   75 2
    57   62   55 ar
    58   63   22 1
    59   64   19 1
    60   65   10 1
    61   66   76 ar
    62   67   39 ar
    63   68   42 2
    64   70   57 ar
    65   71   74 ar
    66   72   50 ar
    67   73   58 ar
    68   74   41 ar
    69   75   14 1
    70   76   62 ar
    71   77   56 ar
    72   78   60 ar
    73   79   36 ar
    74   80   77 ar
    75   81   72 ar
    76   82   71 ar
    77   83   37 ar
    78   84   70 ar
    79   85   49 ar
    80   86   84 ar
    81   87   48 1
    82   88   47 1
    83   89   46 1
    84   90   62 1
    85   91    8 1
    86   92   65 1
    87   93   54 1
    88   94   32 1
    89   95   59 1
    90   96   60 1
    91   97   34 1
    92   98   46 1
    93   99   33 1
    94  100   32 1
    95  101   47 1
    96  102   59 1
    97  103   33 1
    98  104   52 1
    99  105   48 1
   100  106   44 1
   101  107   53 1
   102  108   65 1
   103  109   20 1
   104  110   53 1
   105  111   66 1
   106  112   44 1
   107  113   72 1
   108  114   11 1
   109  115   34 1
   110  116   84 1
   111  117   71 1
   112  118   64 1
   113  119    6 1
   114  120   80 1
   115  121   54 1
   116  122   19 1
   117  123   77 1
   118  124   64 1
   119  125   39 1
   120  126   14 1
   121  127   36 1
   122  128   58 1
   123  129   76 1
   124  130   67 1
   125  131   79 1
   126  132   78 1
   127  133   81 1
   128  134   70 1
   129  135   73 1
   130  136   74 1
   131  137   86 1
   132  138   83 1
   133  139   82 1
   134  140   85 1
   135   29   45 ar
   136   33   48 1
   137   37   75 1
   138   44   64 1
   139   47   59 1
   140   67   79 ar
   141   73   81 ar
   142   78   80 ar
   143   82   83 ar
   144   85   86 ar
@<TRIPOS>SUBSTRUCTURE
     1 RES1 1
     2 RES2 2

@<TRIPOS>CRYSIN
  12.8485   13.7087   16.6556  81.6730  78.1930  75.8920   2 1

