# MOL2 file generated by ConQuest
# Please check atom types

@<TRIPOS>MOLECULE
GADLEC
    27    29     1
SMALL
NO_CHARGES
****
Generated from CSD

@<TRIPOS>ATOM
      1 O1         2.4074    3.6691   -5.1632 O.3       1 RES1    0.0000
      2 O2         2.7521    4.2233   -0.1172 O.3       1 RES1    0.0000
      3 O3         1.0922    0.6983    0.9863 O.3       1 RES1    0.0000
      4 N1         0.7907    1.2214   -0.2765 N.2       1 RES1    0.0000
      5 C1         2.3237    3.9097   -3.8280 C.2       1 RES1    0.0000
      6 C2         2.5696    5.1908   -3.5870 C.2       1 RES1    0.0000
      7 C3         2.8551    5.7983   -4.8380 C.2       1 RES1    0.0000
      8 C4         2.7447    4.8689   -5.7295 C.2       1 RES1    0.0000
      9 C5         1.9741    2.7500   -2.9878 C.3       1 RES1    0.0000
     10 C6         0.5958    2.1964   -2.9826 C.3       1 RES1    0.0000
     11 C7         1.0632    2.9874   -1.8264 C.3       1 RES1    0.0000
     12 C8         1.3682    2.3424   -0.5149 C.2       1 RES1    0.0000
     13 C9         2.2514    3.0489    0.3898 C.2       1 RES1    0.0000
     14 C10        2.7338    2.8712    1.6381 C.2       1 RES1    0.0000
     15 C11        3.5698    3.9681    1.9225 C.2       1 RES1    0.0000
     16 C12        3.5559    4.7362    0.8467 C.2       1 RES1    0.0000
     17 H1         2.5653    5.6116   -2.7390 H         1 RES1    0.0000
     18 H2         3.0865    6.7098   -4.9907 H         1 RES1    0.0000
     19 H3         0.6301    0.0190    0.9613 H         1 RES1    0.0000
     20 H4         2.8691    5.0022   -6.6631 H         1 RES1    0.0000
     21 H5         2.6865    2.0631   -2.8048 H         1 RES1    0.0000
     22 H6         0.7871    3.8786   -1.8040 H         1 RES1    0.0000
     23 H7         2.5378    2.1393    2.2122 H         1 RES1    0.0000
     24 H8         4.0387    4.1262    2.7258 H         1 RES1    0.0000
     25 H9         4.0457    5.5482    0.7506 H         1 RES1    0.0000
     26 H10       -0.0360    2.5900   -3.5291 H         1 RES1    0.0000
     27 H11        0.5214    1.2061   -2.8707 H         1 RES1    0.0000
@<TRIPOS>BOND
     1    1    5 1
     2    2   13 1
     3    3    4 1
     4    4   12 2
     5    5    6 2
     6    6    7 1
     7    7    8 2
     8    8    1 1
     9    9    5 1
    10   10    9 1
    11   11    9 1
    12   12   11 1
    13   13   12 1
    14   14   13 2
    15   15   14 1
    16   16    2 1
    17   17    6 1
    18   18    7 1
    19   19    3 1
    20   20    8 1
    21   21    9 1
    22   22   11 1
    23   23   14 1
    24   24   15 1
    25   25   16 1
    26   26   10 1
    27   27   10 1
    28   10   11 1
    29   15   16 2
@<TRIPOS>SUBSTRUCTURE
     1 RES1 1

@<TRIPOS>CRYSIN
  12.9167    6.3480   13.6453  90.0000 105.1970  90.0000 231 1

