# MOL2 file generated by ConQuest
# Please check atom types

@<TRIPOS>MOLECULE
GADPOR
    40    41     1
SMALL
NO_CHARGES
****
Generated from CSD

@<TRIPOS>ATOM
      1 O1         0.3040    2.6022   10.4565 O.2       1 RES1    0.0000
      2 O2         1.3678   -0.3090    7.9339 O.2       1 RES1    0.0000
      3 O3        -1.9078    5.5450    3.1854 O.3       1 RES1    0.0000
      4 O4        -1.3327    5.9629    0.7208 O.3       1 RES1    0.0000
      5 N1         1.8564    1.1829    6.3032 N.am      1 RES1    0.0000
      6 N2         2.4906    2.7114    4.6931 N.3       1 RES1    0.0000
      7 N3         1.6726    3.5377    6.6532 N.2       1 RES1    0.0000
      8 N4         0.9165    4.3651    8.6229 N.3       1 RES1    0.0000
      9 N5         0.6816    1.6571    9.6649 N.2       1 RES1    0.0000
     10 C1         1.9992    2.4931    5.9012 C.2       1 RES1    0.0000
     11 C2         1.2258    3.3194    7.8906 C.2       1 RES1    0.0000
     12 C3         1.0973    1.9884    8.4416 C.2       1 RES1    0.0000
     13 C4         1.4366    0.8629    7.5917 C.2       1 RES1    0.0000
     14 C5         2.1920    0.0908    5.3876 C.3       1 RES1    0.0000
     15 C6         1.6413    4.5238    3.2303 C.ar      1 RES1    0.0000
     16 C7         0.3569    4.8080    3.7022 C.ar      1 RES1    0.0000
     17 C8        -0.6170    5.2553    2.8413 C.ar      1 RES1    0.0000
     18 C9        -0.3162    5.4465    1.4780 C.ar      1 RES1    0.0000
     19 C10        0.9377    5.1407    1.0143 C.ar      1 RES1    0.0000
     20 C11        1.9171    4.6748    1.8926 C.ar      1 RES1    0.0000
     21 C12        2.7256    4.0567    4.1665 C.3       1 RES1    0.0000
     22 C13       -2.2581    5.3669    4.5462 C.3       1 RES1    0.0000
     23 C14       -1.0572    6.1177   -0.6654 C.3       1 RES1    0.0000
     24 H1         2.6846    2.0197    4.1848 H         1 RES1    0.0000
     25 H2         1.0078    5.1756    8.2920 H         1 RES1    0.0000
     26 H3         0.6182    4.2551    9.4442 H         1 RES1    0.0000
     27 H4         1.6987    0.2039    4.5482 H         1 RES1    0.0000
     28 H5         1.9479   -0.7657    5.7967 H         1 RES1    0.0000
     29 H6         3.1543    0.1027    5.2035 H         1 RES1    0.0000
     30 H7         0.1562    4.6912    4.6227 H         1 RES1    0.0000
     31 H8        -2.0856    4.4389    4.8091 H         1 RES1    0.0000
     32 H9        -3.2094    5.5708    4.6678 H         1 RES1    0.0000
     33 H10       -1.7212    5.9689    5.1025 H         1 RES1    0.0000
     34 H11       -1.8116    6.5672   -1.0994 H         1 RES1    0.0000
     35 H12       -0.9231    5.2359   -1.0714 H         1 RES1    0.0000
     36 H13       -0.2458    6.6565   -0.7795 H         1 RES1    0.0000
     37 H14        1.1405    5.2456    0.0916 H         1 RES1    0.0000
     38 H15        2.7825    4.4605    1.5621 H         1 RES1    0.0000
     39 H16        3.5911    4.0676    3.6864 H         1 RES1    0.0000
     40 H17        2.7914    4.6912    4.9240 H         1 RES1    0.0000
@<TRIPOS>BOND
     1    1    9 2
     2    2   13 2
     3    3   17 1
     4    4   18 1
     5    5   10 1
     6    6   10 1
     7    7   10 2
     8    8   11 1
     9    9   12 1
    10   11    7 1
    11   12   11 2
    12   13    5 1
    13   14    5 1
    14   15   16 ar
    15   16   17 ar
    16   17   18 ar
    17   18   19 ar
    18   19   20 ar
    19   20   15 ar
    20   21    6 1
    21   22    3 1
    22   23    4 1
    23   24    6 1
    24   25    8 1
    25   26    8 1
    26   27   14 1
    27   28   14 1
    28   29   14 1
    29   30   16 1
    30   31   22 1
    31   32   22 1
    32   33   22 1
    33   34   23 1
    34   35   23 1
    35   36   23 1
    36   37   19 1
    37   38   20 1
    38   39   21 1
    39   40   21 1
    40   12   13 1
    41   15   21 1
@<TRIPOS>SUBSTRUCTURE
     1 RES1 1

@<TRIPOS>CRYSIN
  12.8488    7.4416   16.9620  90.0000 113.7280  90.0000  14 1

