# MOL2 file generated by ConQuest
# Please check atom types

@<TRIPOS>MOLECULE
GADTUD
    56    58     1
SMALL
NO_CHARGES
****
Generated from CSD

@<TRIPOS>ATOM
      1 C1         0.2738   13.9738    4.6075 C.3       1 RES1    0.0000
      2 H1        -0.5626   13.7526    4.1053 H         1 RES1    0.0000
      3 C2         0.3522   15.4946    4.7430 C.3       1 RES1    0.0000
      4 H2         0.1377   15.9100    3.8701 H         1 RES1    0.0000
      5 H3        -0.3255   15.7970    5.3981 H         1 RES1    0.0000
      6 C3         1.7314   15.9682    5.1958 C.3       1 RES1    0.0000
      7 H4         1.8916   15.6515    6.1205 H         1 RES1    0.0000
      8 H5         1.7425   16.9572    5.2100 H         1 RES1    0.0000
      9 C4         2.8730   15.4709    4.2951 C.3       1 RES1    0.0000
     10 C5         2.7844   13.9275    4.2319 C.3       1 RES1    0.0000
     11 H6         2.9157   13.5897    5.1642 H         1 RES1    0.0000
     12 C6         0.2389   13.2045    5.9510 C.3       1 RES1    0.0000
     13 H7         0.4455   12.2513    5.7780 H         1 RES1    0.0000
     14 H8         0.9487   13.5636    6.5414 H         1 RES1    0.0000
     15 C7        -1.0834   13.2907    6.6741 C.ar      1 RES1    0.0000
     16 C8        -2.1107   12.3950    6.3728 C.ar      1 RES1    0.0000
     17 H9        -1.9839   11.7538    5.6840 H         1 RES1    0.0000
     18 C9        -3.3125   12.4260    7.0647 C.ar      1 RES1    0.0000
     19 H10       -3.9961   11.7994    6.8598 H         1 RES1    0.0000
     20 C10       -3.5156   13.3733    8.0545 C.ar      1 RES1    0.0000
     21 H11       -4.3364   13.3963    8.5326 H         1 RES1    0.0000
     22 C11       -2.5170   14.2875    8.3444 C.ar      1 RES1    0.0000
     23 H12       -2.6603   14.9497    9.0114 H         1 RES1    0.0000
     24 C12       -1.3057   14.2421    7.6657 C.ar      1 RES1    0.0000
     25 H13       -0.6223   14.8672    7.8801 H         1 RES1    0.0000
     26 C13        4.2062   15.8829    4.9485 C.3       1 RES1    0.0000
     27 H14        4.2051   16.8486    5.1123 H         1 RES1    0.0000
     28 H15        4.9479   15.6537    4.3501 H         1 RES1    0.0000
     29 H16        4.3139   15.4082    5.7985 H         1 RES1    0.0000
     30 C14        2.7846   16.0967    2.9000 C.3       1 RES1    0.0000
     31 H17        1.9994   15.7427    2.4325 H         1 RES1    0.0000
     32 H18        3.5936   15.8774    2.3927 H         1 RES1    0.0000
     33 H19        2.7042   17.0702    2.9825 H         1 RES1    0.0000
     34 C15        3.8436   13.2638    3.3674 C.3       1 RES1    0.0000
     35 H20        3.8142   12.2926    3.5023 H         1 RES1    0.0000
     36 H21        4.7292   13.6005    3.6181 H         1 RES1    0.0000
     37 H22        3.6721   13.4680    2.4241 H         1 RES1    0.0000
     38 C16        0.2747   11.7312    2.8643 C.2       1 RES1    0.0000
     39 H23       -0.5474   11.9689    3.2768 H         1 RES1    0.0000
     40 C17        0.3833   10.5915    1.9691 C.ar      1 RES1    0.0000
     41 C18       -0.6676    9.7200    1.6178 C.ar      1 RES1    0.0000
     42 C19       -0.5256    8.6963    0.6890 C.ar      1 RES1    0.0000
     43 H24       -1.2622    8.1429    0.4571 H         1 RES1    0.0000
     44 C20        0.7074    8.5027    0.1131 C.ar      1 RES1    0.0000
     45 C21        1.8006    9.3003    0.4381 C.ar      1 RES1    0.0000
     46 H25        2.6508    9.1380    0.0470 H         1 RES1    0.0000
     47 C22        1.6271   10.3271    1.3345 C.ar      1 RES1    0.0000
     48 H26        2.3693   10.8826    1.5389 H         1 RES1    0.0000
     49 N1         1.4197   13.5065    3.8063 N.pl3     1 RES1    0.0000
     50 N2         1.3708   12.4084    3.0688 N.2       1 RES1    0.0000
     51 N3        -2.0072    9.8211    2.2179 N.pl3     1 RES1    0.0000
     52 N4         0.8542    7.4338   -0.8746 N.pl3     1 RES1    0.0000
     53 O1        -2.9546    9.3663    1.5835 O.2       1 RES1    0.0000
     54 O2        -2.1363   10.3266    3.3252 O.2       1 RES1    0.0000
     55 O3        -0.1335    6.7570   -1.1513 O.2       1 RES1    0.0000
     56 O4         1.9553    7.2719   -1.3922 O.2       1 RES1    0.0000
@<TRIPOS>BOND
     1    1    2 1
     2    3    1 1
     3    4    3 1
     4    5    3 1
     5    6    3 1
     6    7    6 1
     7    8    6 1
     8    9    6 1
     9   10    9 1
    10   11   10 1
    11   12    1 1
    12   13   12 1
    13   14   12 1
    14   15   12 1
    15   16   15 ar
    16   17   16 1
    17   18   16 ar
    18   19   18 1
    19   20   18 ar
    20   21   20 1
    21   22   20 ar
    22   23   22 1
    23   24   15 ar
    24   25   24 1
    25   26    9 1
    26   27   26 1
    27   28   26 1
    28   29   26 1
    29   30    9 1
    30   31   30 1
    31   32   30 1
    32   33   30 1
    33   34   10 1
    34   35   34 1
    35   36   34 1
    36   37   34 1
    37   38   39 1
    38   40   38 1
    39   41   40 ar
    40   42   41 ar
    41   43   42 1
    42   44   42 ar
    43   45   44 ar
    44   46   45 1
    45   47   40 ar
    46   48   47 1
    47   49    1 1
    48   50   38 2
    49   51   41 1
    50   52   44 1
    51   53   51 2
    52   54   51 2
    53   55   52 2
    54   56   52 2
    55   10   49 1
    56   22   24 ar
    57   45   47 ar
    58   49   50 1
@<TRIPOS>SUBSTRUCTURE
     1 RES1 1

@<TRIPOS>CRYSIN
   7.8670   21.7261   12.1297  90.0000  96.1370  90.0000  14 1

