# MOL2 file generated by ConQuest
# Please check atom types

@<TRIPOS>MOLECULE
GADYAM
    43    45     1
SMALL
NO_CHARGES
****
Generated from CSD

@<TRIPOS>ATOM
      1 O1         2.9600    3.0709   -0.7491 O.3       1 RES1    0.0000
      2 O2         3.9547    1.3992    0.9307 O.3       1 RES1    0.0000
      3 O3         3.1659    5.4976    5.0833 O.2       1 RES1    0.0000
      4 O4         3.1058    3.3963    5.3706 O.2       1 RES1    0.0000
      5 N1         1.1491    9.0730    3.6558 N.pl3     1 RES1    0.0000
      6 H1         1.0998    8.4935    4.2888 H         1 RES1    0.0000
      7 C1         1.5927    8.8148    2.3803 C.2       1 RES1    0.0000
      8 C2         1.5233    9.9881    1.6719 C.2       1 RES1    0.0000
      9 H2         1.7686   10.0978    0.7808 H         1 RES1    0.0000
     10 C3         1.0143   11.0045    2.5213 C.ar      1 RES1    0.0000
     11 C4         0.7960   10.3957    3.7668 C.ar      1 RES1    0.0000
     12 C5         0.3024   11.0975    4.8558 C.ar      1 RES1    0.0000
     13 H3         0.1570   10.6787    5.6727 H         1 RES1    0.0000
     14 C6         0.0352   12.4295    4.6848 C.ar      1 RES1    0.0000
     15 H4        -0.2962   12.9208    5.4015 H         1 RES1    0.0000
     16 C7         0.2434   13.0575    3.4855 C.ar      1 RES1    0.0000
     17 H5         0.0579   13.9651    3.4079 H         1 RES1    0.0000
     18 C8         0.7190   12.3758    2.4020 C.ar      1 RES1    0.0000
     19 H6         0.8469   12.8142    1.5920 H         1 RES1    0.0000
     20 C9         2.0605    7.5118    1.9707 C.2       1 RES1    0.0000
     21 H7         2.4073    7.4309    1.1116 H         1 RES1    0.0000
     22 C10        2.0335    6.4166    2.7267 C.2       1 RES1    0.0000
     23 H8         1.6602    6.4895    3.5755 H         1 RES1    0.0000
     24 C11        2.5477    5.1043    2.3235 C.ar      1 RES1    0.0000
     25 C12        2.5216    4.7263    0.9687 C.ar      1 RES1    0.0000
     26 H9         2.1795    5.3256    0.3454 H         1 RES1    0.0000
     27 C13        2.9837    3.5017    0.5277 C.ar      1 RES1    0.0000
     28 C14        3.5130    2.5715    1.4529 C.ar      1 RES1    0.0000
     29 C15        3.5180    2.8971    2.7869 C.ar      1 RES1    0.0000
     30 H10        3.8397    2.2898    3.4135 H         1 RES1    0.0000
     31 C16        3.0422    4.1364    3.2003 C.ar      1 RES1    0.0000
     32 C17        2.3575    3.9154   -1.7420 C.3       1 RES1    0.0000
     33 H11        2.8266    4.7623   -1.7956 H         1 RES1    0.0000
     34 H12        1.4295    4.0898   -1.5200 H         1 RES1    0.0000
     35 C18        2.4529    3.1801   -3.0483 C.3       1 RES1    0.0000
     36 H13        3.3749    3.0061   -3.2504 H         1 RES1    0.0000
     37 H14        2.0685    3.7159   -3.7454 H         1 RES1    0.0000
     38 H15        1.9768    2.3491   -2.9837 H         1 RES1    0.0000
     39 C19        4.3679    0.3819    1.8451 C.3       1 RES1    0.0000
     40 H16        5.1194    0.6958    2.3537 H         1 RES1    0.0000
     41 H17        4.6182   -0.4048    1.3557 H         1 RES1    0.0000
     42 H18        3.6442    0.1732    2.4392 H         1 RES1    0.0000
     43 N2         3.1011    4.3685    4.6416 N.pl3     1 RES1    0.0000
@<TRIPOS>BOND
     1    1   27 1
     2    2   28 1
     3    3   43 2
     4    4   43 2
     5    5    6 1
     6    7    5 1
     7    8    7 2
     8    9    8 1
     9   10    8 1
    10   11    5 1
    11   12   11 ar
    12   13   12 1
    13   14   12 ar
    14   15   14 1
    15   16   14 ar
    16   17   16 1
    17   18   10 ar
    18   19   18 1
    19   20    7 1
    20   21   20 1
    21   22   20 2
    22   23   22 1
    23   24   22 1
    24   25   24 ar
    25   26   25 1
    26   27   25 ar
    27   28   27 ar
    28   29   28 ar
    29   30   29 1
    30   31   24 ar
    31   32    1 1
    32   33   32 1
    33   34   32 1
    34   35   32 1
    35   36   35 1
    36   37   35 1
    37   38   35 1
    38   39    2 1
    39   40   39 1
    40   41   39 1
    41   42   39 1
    42   43   31 1
    43   10   11 ar
    44   16   18 ar
    45   29   31 ar
@<TRIPOS>SUBSTRUCTURE
     1 RES1 1

@<TRIPOS>CRYSIN
   7.5949   10.0887   11.5777  85.2980  76.9240  86.1660   2 1

