# MOL2 file generated by ConQuest
# Please check atom types

@<TRIPOS>MOLECULE
GADZAN
    26    27     1
SMALL
NO_CHARGES
****
Generated from CSD

@<TRIPOS>ATOM
      1 C1         2.2831    9.0375    3.3937 C.2       1 RES1    0.0000
      2 C2         3.6107    8.9581    2.6838 C.3       1 RES1    0.0000
      3 H1         4.2325    9.6449    3.0333 H         1 RES1    0.0000
      4 H2         3.4938    9.1007    1.7114 H         1 RES1    0.0000
      5 C3         4.1566    7.5412    2.9618 C.3       1 RES1    0.0000
      6 H3         4.2100    7.0190    2.1227 H         1 RES1    0.0000
      7 H4         5.0599    7.5895    3.3627 H         1 RES1    0.0000
      8 C4         3.1848    6.9015    3.9229 C.2       1 RES1    0.0000
      9 C5         0.0000    7.3145    4.0392 C.2       1 RES1    0.0000
     10 N1         2.1783    7.8575    4.1175 N.am      1 RES1    0.0000
     11 O1         1.4384    9.8980    3.3820 O.2       1 RES1    0.0000
     12 O2         3.1925    5.8194    4.4425 O.2       1 RES1    0.0000
     13 O3         1.0518    7.5680    4.8744 O.3       1 RES1    0.0000
     14 O4         0.0000    7.3145    2.8637 O.2       1 RES1    0.0000
     15 O3A       -1.0518    7.0610    4.8744 O.3       1 RES1    0.0000
     16 N1A       -2.1783    6.7715    4.1175 N.am      1 RES1    0.0000
     17 C1A       -2.2831    5.5915    3.3937 C.2       1 RES1    0.0000
     18 C2A       -3.6107    5.6709    2.6838 C.3       1 RES1    0.0000
     19 H1A       -4.2325    4.9841    3.0333 H         1 RES1    0.0000
     20 H2A       -3.4938    5.5283    1.7114 H         1 RES1    0.0000
     21 C3A       -4.1566    7.0878    2.9618 C.3       1 RES1    0.0000
     22 H3A       -4.2100    7.6100    2.1227 H         1 RES1    0.0000
     23 H4A       -5.0599    7.0395    3.3627 H         1 RES1    0.0000
     24 C4A       -3.1848    7.7275    3.9229 C.2       1 RES1    0.0000
     25 O2A       -3.1925    8.8096    4.4425 O.2       1 RES1    0.0000
     26 O1A       -1.4384    4.7310    3.3820 O.2       1 RES1    0.0000
@<TRIPOS>BOND
     1    1    2 1
     2    2    3 1
     3    4    2 1
     4    5    2 1
     5    6    5 1
     6    7    5 1
     7    8    5 1
     8    9   13 1
     9   10    1 1
    10   11    1 2
    11   12    8 2
    12   13   10 1
    13   14    9 2
    14   15    9 1
    15   16   15 1
    16   17   16 1
    17   18   17 1
    18   19   18 1
    19   20   18 1
    20   21   18 1
    21   22   21 1
    22   23   21 1
    23   24   16 1
    24   25   24 2
    25   26   17 2
    26    8   10 1
    27   21   24 1
@<TRIPOS>SUBSTRUCTURE
     1 RES1 1

@<TRIPOS>CRYSIN
  13.2390   14.6290   10.3595  90.0000  90.0000  90.0000  43 1

