# MOL2 file generated by ConQuest
# Please check atom types

@<TRIPOS>MOLECULE
GAFNUW
    31    33     1
SMALL
USER_CHARGES
****
Generated from CSD

@<TRIPOS>ATOM
      1 C1         4.6527    1.7946    2.3064 C.3       1 RES1    0.0000
      2 C2         3.9186    2.6781    1.2918 C.3       1 RES1    0.0000
      3 C3         2.5727    1.9433    1.0765 C.3       1 RES1    0.0000
      4 C4         2.7125    0.6704    1.9682 C.3       1 RES1    0.0000
      5 C5         2.6942    1.1462    3.4032 C.ar      1 RES1    0.0000
      6 C6         1.7824    0.9809    4.4223 C.ar      1 RES1    0.0000
      7 N1         2.0329    1.5650    5.6397 N.pl3     1 RES1    1.0000
      8 C7         3.1794    2.2776    5.8009 C.ar      1 RES1    0.0000
      9 C8         4.1255    2.4687    4.8078 C.ar      1 RES1    0.0000
     10 C9         3.8756    1.8717    3.6016 C.ar      1 RES1    0.0000
     11 C10        4.2275    0.3821    1.8296 C.3       1 RES1    0.0000
     12 O1         4.7293    2.6505    0.0879 O.3       1 RES1    0.0000
     13 C11        4.5463    3.6626   -0.7834 C.2       1 RES1    0.0000
     14 O2         3.7127    4.5149   -0.6448 O.2       1 RES1    0.0000
     15 C12        5.5366    3.5652   -1.9040 C.3       1 RES1    0.0000
     16 N2         3.3922    2.8728    7.1164 N.pl3     1 RES1    0.0000
     17 O3         3.5521    4.0832    7.1435 O.2       1 RES1    0.0000
     18 O4         3.4571    2.1509    8.0802 O.2       1 RES1    0.0000
     19 O5         1.1625    1.4547    6.6001 O.2       1 RES1   -1.0000
     20 H1         5.5908    2.0205    2.3673 H         1 RES1    0.0000
     21 H2         3.8100    3.6736    1.5894 H         1 RES1    0.0000
     22 H3         2.4311    1.7082    0.1015 H         1 RES1    0.0000
     23 H4         1.8081    2.5164    1.3302 H         1 RES1    0.0000
     24 H5         2.0685   -0.0184    1.7247 H         1 RES1    0.0000
     25 H6         0.9451    0.3674    4.3963 H         1 RES1    0.0000
     26 H7         4.8922    2.9756    5.0163 H         1 RES1    0.0000
     27 H8         4.5296   -0.2939    2.4349 H         1 RES1    0.0000
     28 H9         4.5028    0.1653    0.8680 H         1 RES1    0.0000
     29 H10        6.3617    3.7103   -1.5444 H         1 RES1    0.0000
     30 H11        5.5148    2.6817   -2.2433 H         1 RES1    0.0000
     31 H12        5.2555    4.1328   -2.6153 H         1 RES1    0.0000
@<TRIPOS>BOND
     1    1    2 1
     2    2    3 1
     3    3    4 1
     4    4    5 1
     5    5    6 ar
     6    6    7 ar
     7    7    8 ar
     8    8    9 ar
     9    9   10 ar
    10   10    1 1
    11   11    1 1
    12   12    2 1
    13   13   12 1
    14   14   13 2
    15   15   13 1
    16   16    8 1
    17   17   16 2
    18   18   16 2
    19   19    7 1
    20   20    1 1
    21   21    2 1
    22   22    3 1
    23   23    3 1
    24   24    4 1
    25   25    6 1
    26   26    9 1
    27   27   11 1
    28   28   11 1
    29   29   15 1
    30   30   15 1
    31   31   15 1
    32    4   11 1
    33    5   10 ar
@<TRIPOS>SUBSTRUCTURE
     1 RES1 1

@<TRIPOS>CRYSIN
   5.6030   18.3680   12.3510  90.0000 114.1200  90.0000  14 1

