# MOL2 file generated by ConQuest
# Please check atom types

@<TRIPOS>MOLECULE
GAFNOQ
    54    58     2
SMALL
NO_CHARGES
****
Generated from CSD

@<TRIPOS>ATOM
      1 C1        10.2502    5.5125    9.0745 C.3       1 RES1    0.0000
      2 C2         9.3376    4.3970    8.5190 C.3       1 RES1    0.0000
      3 C3         8.1185    5.1576    7.9752 C.3       1 RES1    0.0000
      4 C4         8.4648    6.6619    8.2802 C.3       1 RES1    0.0000
      5 C5         8.4118    6.7633    9.7791 C.ar      1 RES1    0.0000
      6 C6         7.5298    7.3476   10.6797 C.ar      1 RES1    0.0000
      7 N1         7.7009    7.2510   11.9954 N.ar      1 RES1    0.0000
      8 C7         8.7499    6.5750   12.4028 C.ar      1 RES1    0.0000
      9 C8         9.7185    5.9399   11.6328 C.ar      1 RES1    0.0000
     10 C9         9.5169    6.0558   10.2762 C.ar      1 RES1    0.0000
     11 C10        9.9803    6.6305    8.0609 C.3       1 RES1    0.0000
     12 O1        10.0832    3.7813    7.4372 O.3       1 RES1    0.0000
     13 C11        9.6503    2.5957    6.9947 C.2       1 RES1    0.0000
     14 O2         8.7387    1.9969    7.4947 O.2       1 RES1    0.0000
     15 C12       10.4457    2.1876    5.7998 C.3       1 RES1    0.0000
     16 N2         8.8823    6.4663   13.8949 N.pl3     1 RES1    0.0000
     17 O3         8.1286    7.1424   14.5820 O.2       1 RES1    0.0000
     18 O4         9.7267    5.6936   14.3159 O.2       1 RES1    0.0000
     19 H1        11.2035    5.2638    9.2782 H         1 RES1    0.0000
     20 H2         9.0035    3.7185    9.2392 H         1 RES1    0.0000
     21 H3         7.2517    4.8775    8.3328 H         1 RES1    0.0000
     22 H4         8.1786    5.0707    6.9294 H         1 RES1    0.0000
     23 H5         7.8526    7.3162    7.8065 H         1 RES1    0.0000
     24 H6         6.7221    7.9440   10.2138 H         1 RES1    0.0000
     25 H7        10.4906    5.4329   12.1240 H         1 RES1    0.0000
     26 H8        10.4600    7.5094    8.2451 H         1 RES1    0.0000
     27 H9        10.2156    6.2780    7.1633 H         1 RES1    0.0000
     28 C13        2.3446   -0.4588   -0.1900 C.3       2 RES2    0.0000
     29 C14        1.4351    0.6568    0.3119 C.3       2 RES2    0.0000
     30 C15        0.1986   -0.0942    0.8781 C.3       2 RES2    0.0000
     31 C16        0.5561   -1.5912    0.6803 C.3       2 RES2    0.0000
     32 C17        0.5347   -1.8061   -0.8245 C.ar      2 RES2    0.0000
     33 C18       -0.2801   -2.5281   -1.6744 C.ar      2 RES2    0.0000
     34 N3        -0.0794   -2.5184   -2.9969 N.ar      2 RES2    0.0000
     35 C19        0.9146   -1.7940   -3.4433 C.ar      2 RES2    0.0000
     36 C20        1.8048   -1.0334   -2.7045 C.ar      2 RES2    0.0000
     37 C21        1.5950   -1.0842   -1.3508 C.ar      2 RES2    0.0000
     38 C22        2.0940   -1.5333    0.8957 C.3       2 RES2    0.0000
     39 O5         2.2234    1.3015    1.3625 O.3       2 RES2    0.0000
     40 C23        1.8221    2.4798    1.7747 C.2       2 RES2    0.0000
     41 O6         0.8433    3.0013    1.3742 O.2       2 RES2    0.0000
     42 C24        2.6400    2.9796    2.9092 C.3       2 RES2    0.0000
     43 N4         1.0715   -1.7868   -4.9344 N.pl3     2 RES2    0.0000
     44 O7         2.0278   -1.2170   -5.3720 O.2       2 RES2    0.0000
     45 O8         0.2791   -2.4363   -5.5962 O.2       2 RES2    0.0000
     46 H10        3.3407   -0.2656   -0.6627 H         2 RES2    0.0000
     47 H11        1.3241    1.3280   -0.3898 H         2 RES2    0.0000
     48 H12       -0.7231   -0.0483    0.6335 H         2 RES2    0.0000
     49 H13       -0.3055    0.0000    1.7933 H         2 RES2    0.0000
     50 H14        0.0917   -2.2214    1.3157 H         2 RES2    0.0000
     51 H15       -1.0592   -3.1148   -1.2767 H         2 RES2    0.0000
     52 H16        2.6685   -0.6278   -3.1577 H         2 RES2    0.0000
     53 H17        2.3527   -1.1590    1.7738 H         2 RES2    0.0000
     54 H18        2.4546   -2.2697    0.5653 H         2 RES2    0.0000
@<TRIPOS>BOND
     1    1    2 1
     2    2    3 1
     3    3    4 1
     4    4    5 1
     5    5    6 ar
     6    6    7 ar
     7    7    8 ar
     8    8    9 ar
     9    9   10 ar
    10   10    1 1
    11   11    1 1
    12   12    2 1
    13   13   12 1
    14   14   13 2
    15   15   13 1
    16   16    8 1
    17   17   16 2
    18   18   16 2
    19   19    1 1
    20   20    2 1
    21   21    3 1
    22   22    3 1
    23   23    4 1
    24   24    6 1
    25   25    9 1
    26   26   11 1
    27   27   11 1
    28   28   29 1
    29   29   30 1
    30   30   31 1
    31   31   32 1
    32   32   33 ar
    33   33   34 ar
    34   34   35 ar
    35   35   36 ar
    36   36   37 ar
    37   37   28 1
    38   38   28 1
    39   39   29 1
    40   40   39 1
    41   41   40 2
    42   42   40 1
    43   43   35 1
    44   44   43 2
    45   45   43 2
    46   46   28 1
    47   47   29 1
    48   48   30 1
    49   49   30 1
    50   50   31 1
    51   51   33 1
    52   52   36 1
    53   53   38 1
    54   54   38 1
    55    4   11 1
    56    5   10 ar
    57   31   38 1
    58   32   37 ar
@<TRIPOS>SUBSTRUCTURE
     1 RES1 1
     2 RES2 28

@<TRIPOS>CRYSIN
  10.1850   24.1460    9.7460  90.0000  90.0000  90.0000  33 4

