# MOL2 file generated by ConQuest
# Please check atom types

@<TRIPOS>MOLECULE
GAFPEI
    43    45     1
SMALL
NO_CHARGES
****
Generated from CSD

@<TRIPOS>ATOM
      1 O1         6.7923    0.6726    8.0762 O.3       1 RES1    0.0000
      2 O2         6.1959    3.4538    9.6802 O.3       1 RES1    0.0000
      3 O3         6.2406    1.2639   10.2700 O.3       1 RES1    0.0000
      4 O4         4.6586    0.1267    5.9518 O.3       1 RES1    0.0000
      5 O5         6.2021   -0.7138    4.5317 O.3       1 RES1    0.0000
      6 O6         7.9080    2.8562    6.5317 O.3       1 RES1    0.0000
      7 O7         4.2860    5.4854    6.6109 O.3       1 RES1    0.0000
      8 N1         4.7846    4.1497    6.8641 N.2       1 RES1    0.0000
      9 N2         6.8120    5.3027    7.0267 N.3       1 RES1    0.0000
     10 C1         6.7777    2.9016    7.3973 C.3       1 RES1    0.0000
     11 C2         7.2200    2.8858    8.8711 C.3       1 RES1    0.0000
     12 C3         7.2117    1.3906    9.2417 C.3       1 RES1    0.0000
     13 C4         5.9752    1.5986    7.3181 C.3       1 RES1    0.0000
     14 C5         5.8930    2.5701   10.7480 C.3       1 RES1    0.0000
     15 C6         4.3891    2.6038   10.9729 C.3       1 RES1    0.0000
     16 C7         6.6913    2.9238   11.9715 C.3       1 RES1    0.0000
     17 C8         5.7150    1.0812    5.8924 C.3       1 RES1    0.0000
     18 C9         6.8287    0.3316    5.1725 C.3       1 RES1    0.0000
     19 C10        4.8366   -0.7951    4.8655 C.3       1 RES1    0.0000
     20 C11        4.4890   -2.1667    5.3592 C.3       1 RES1    0.0000
     21 C12        3.9935   -0.3675    3.6760 C.3       1 RES1    0.0000
     22 C13        6.0523    4.1793    7.0536 C.2       1 RES1    0.0000
     23 H1         8.1807    3.4179    9.0196 H         1 RES1    0.0000
     24 H2         8.1880    0.9862    9.5896 H         1 RES1    0.0000
     25 H3         4.9459    1.7581    7.7014 H         1 RES1    0.0000
     26 H4         4.1091    1.9165   11.8159 H         1 RES1    0.0000
     27 H5         4.0935    3.6270   11.3265 H         1 RES1    0.0000
     28 H6         3.7833    2.3557   10.1271 H         1 RES1    0.0000
     29 H7         6.4394    3.9290   12.3039 H         1 RES1    0.0000
     30 H8         6.4550    2.2174   12.7947 H         1 RES1    0.0000
     31 H9         7.7748    2.8720   11.8032 H         1 RES1    0.0000
     32 H10        5.5194    1.9999    5.3337 H         1 RES1    0.0000
     33 H11        7.3845    1.0189    4.4808 H         1 RES1    0.0000
     34 H12        7.6093   -0.0169    5.9094 H         1 RES1    0.0000
     35 H13        3.4169   -2.2385    5.6237 H         1 RES1    0.0000
     36 H14        4.6524   -2.9164    4.5360 H         1 RES1    0.0000
     37 H15        5.0625   -2.5268    6.2135 H         1 RES1    0.0000
     38 H16        4.1674   -1.0643    2.8330 H         1 RES1    0.0000
     39 H17        2.9330   -0.3865    3.9221 H         1 RES1    0.0000
     40 H18        4.2381    0.6409    3.3083 H         1 RES1    0.0000
     41 H19        6.4155    6.2361    6.7354 H         1 RES1    0.0000
     42 H20        7.8789    5.2573    7.2870 H         1 RES1    0.0000
     43 H21        8.8093    2.3430    6.7297 H         1 RES1    0.0000
@<TRIPOS>BOND
     1    1   12 1
     2    2   11 1
     3    3   12 1
     4    4   17 1
     5    5   18 1
     6    6   10 1
     7    7    8 1
     8    8   22 2
     9    9   22 1
    10   10   11 1
    11   11   12 1
    12   12   24 1
    13   13    1 1
    14   14    2 1
    15   15   14 1
    16   16   14 1
    17   17   13 1
    18   18   17 1
    19   19    4 1
    20   20   19 1
    21   21   19 1
    22   22   10 1
    23   23   11 1
    24   25   13 1
    25   26   15 1
    26   27   15 1
    27   28   15 1
    28   29   16 1
    29   30   16 1
    30   31   16 1
    31   32   17 1
    32   33   18 1
    33   34   18 1
    34   35   20 1
    35   36   20 1
    36   37   20 1
    37   38   21 1
    38   39   21 1
    39   40   21 1
    40   41    9 1
    41   42    9 1
    42   43    6 1
    43    3   14 1
    44    5   19 1
    45   10   13 1
@<TRIPOS>SUBSTRUCTURE
     1 RES1 1

@<TRIPOS>CRYSIN
  10.4080   10.5590   14.1440  90.0000  90.0000  90.0000  19 1

