# MOL2 file generated by ConQuest
# Please check atom types

@<TRIPOS>MOLECULE
GAFPIM
    49    51     1
SMALL
NO_CHARGES
****
Generated from CSD

@<TRIPOS>ATOM
      1 O1         2.5549   10.9479   12.0842 O.3       1 RES1    0.0000
      2 O2         0.3103    9.6878   13.6872 O.3       1 RES1    0.0000
      3 O3         1.2677   11.7543   13.8797 O.3       1 RES1    0.0000
      4 O4         4.8131    9.1867   11.3599 O.3       1 RES1    0.0000
      5 O5         5.0376    9.8666    9.1915 O.3       1 RES1    0.0000
      6 O6         0.6343    7.9278   11.5952 O.3       1 RES1    0.0000
      7 O7         0.3845   11.0598    8.3205 O.3       1 RES1    0.0000
      8 O8        -0.9710   12.7639    8.8126 O.2       1 RES1    0.0000
      9 N1         0.5367   10.8713    9.7554 N.2       1 RES1    0.0000
     10 N2         0.6665    8.6078    9.0830 N.3       1 RES1    0.0000
     11 C1         1.0071    9.2852   11.4210 C.3       1 RES1    0.0000
     12 C2         0.3113   10.2595   12.3730 C.3       1 RES1    0.0000
     13 C3         1.2950   11.4198   12.5014 C.3       1 RES1    0.0000
     14 C4         2.4759    9.5346   11.7923 C.3       1 RES1    0.0000
     15 C5         0.6587   10.7180   14.6300 C.3       1 RES1    0.0000
     16 C6         1.6337   10.1707   15.6065 C.3       1 RES1    0.0000
     17 C7        -0.6363   11.2824   15.2306 C.3       1 RES1    0.0000
     18 C8         3.4927    9.1563   10.7655 C.3       1 RES1    0.0000
     19 C9         3.6752   10.0673    9.5415 C.3       1 RES1    0.0000
     20 C10        5.7559    9.7195   10.4278 C.3       1 RES1    0.0000
     21 C11        6.2331   11.0744   10.9351 C.3       1 RES1    0.0000
     22 C12        6.8977    8.7355   10.2123 C.3       1 RES1    0.0000
     23 C13        0.7134    9.6258    9.9754 C.2       1 RES1    0.0000
     24 C14       -0.3396   12.1362    8.0149 C.2       1 RES1    0.0000
     25 C15       -0.3484   12.4014    6.5525 C.3       1 RES1    0.0000
     26 H1        -0.5270   10.6670   12.1026 H         1 RES1    0.0000
     27 H2         1.0637   12.2968   11.9650 H         1 RES1    0.0000
     28 H3         2.6252    8.9885   12.5304 H         1 RES1    0.0000
     29 H4         1.9030   10.9710   16.2895 H         1 RES1    0.0000
     30 H5         1.1418    9.3655   16.1520 H         1 RES1    0.0000
     31 H6         2.5569    9.7669   15.1740 H         1 RES1    0.0000
     32 H7        -1.1320   10.4845   15.7853 H         1 RES1    0.0000
     33 H8        -0.3708   12.0779   15.9228 H         1 RES1    0.0000
     34 H9        -1.3565   11.6886   14.5170 H         1 RES1    0.0000
     35 H10        3.2497    8.1857   10.3758 H         1 RES1    0.0000
     36 H11        3.1424    9.8520    8.6338 H         1 RES1    0.0000
     37 H12        3.4742   11.1170    9.9938 H         1 RES1    0.0000
     38 H13        6.7532   10.9345   11.8886 H         1 RES1    0.0000
     39 H14        6.9191   11.4940   10.2077 H         1 RES1    0.0000
     40 H15        5.4162   11.7738   11.0940 H         1 RES1    0.0000
     41 H16        7.5925    9.1587    9.4742 H         1 RES1    0.0000
     42 H17        7.4168    8.5871   11.1551 H         1 RES1    0.0000
     43 H18        6.5580    7.7600    9.8562 H         1 RES1    0.0000
     44 H19        0.5758    7.8086    9.2908 H         1 RES1    0.0000
     45 H20        0.5563    8.8060    8.1601 H         1 RES1    0.0000
     46 H21        0.9076    7.6749   12.2095 H         1 RES1    0.0000
     47 H22        0.6051   12.0779    6.1277 H         1 RES1    0.0000
     48 H23       -1.1613   11.8346    6.0971 H         1 RES1    0.0000
     49 H24       -0.4879   13.4644    6.3263 H         1 RES1    0.0000
@<TRIPOS>BOND
     1    1   13 1
     2    2   12 1
     3    3   13 1
     4    4   18 1
     5    5   19 1
     6    6   11 1
     7    7    9 1
     8    8   24 2
     9    9   23 2
    10   10   23 1
    11   11   12 1
    12   12   13 1
    13   13   27 1
    14   14    1 1
    15   15    2 1
    16   16   15 1
    17   17   15 1
    18   18   14 1
    19   19   18 1
    20   20    4 1
    21   21   20 1
    22   22   20 1
    23   23   11 1
    24   24    7 1
    25   25   24 1
    26   26   12 1
    27   28   14 1
    28   29   16 1
    29   30   16 1
    30   31   16 1
    31   32   17 1
    32   33   17 1
    33   34   17 1
    34   35   18 1
    35   36   19 1
    36   37   19 1
    37   38   21 1
    38   39   21 1
    39   40   21 1
    40   41   22 1
    41   42   22 1
    42   43   22 1
    43   44   10 1
    44   45   10 1
    45   46    6 1
    46   47   25 1
    47   48   25 1
    48   49   25 1
    49    3   15 1
    50    5   20 1
    51   11   14 1
@<TRIPOS>SUBSTRUCTURE
     1 RES1 1

@<TRIPOS>CRYSIN
   9.7590   12.1630   15.2810  90.0000  90.0000  90.0000  19 1

