# MOL2 file generated by ConQuest
# Please check atom types

@<TRIPOS>MOLECULE
GAFWAL
    56    60     2
SMALL
NO_CHARGES
****
Generated from CSD

@<TRIPOS>ATOM
      1 C1         3.6549   13.3051    3.0589 C.2       1 RES1    0.0000
      2 C2         3.0291   13.1069    1.7230 C.ar      1 RES1    0.0000
      3 C3         2.5029   11.8664    1.3716 C.ar      1 RES1    0.0000
      4 C4         1.9782   11.6651    0.1213 C.ar      1 RES1    0.0000
      5 C5         1.9705   12.6903   -0.7937 C.ar      1 RES1    0.0000
      6 C6         2.4679   13.9184   -0.4584 C.ar      1 RES1    0.0000
      7 C7         2.9980   14.1382    0.7937 C.ar      1 RES1    0.0000
      8 C8         3.5383   15.5063    1.1486 C.3       1 RES1    0.0000
      9 N1         3.5188   15.6938    2.5969 N.am      1 RES1    0.0000
     10 C9         3.1830   16.8435    3.1980 C.2       1 RES1    0.0000
     11 C10        3.2577   16.6130    4.6802 C.3       1 RES1    0.0000
     12 C11        3.5025   15.1527    4.8407 C.3       1 RES1    0.0000
     13 C12        4.0497   14.7054    3.5012 C.3       1 RES1    0.0000
     14 N2         3.9191   12.2445    3.7295 N.2       1 RES1    0.0000
     15 O1         4.5519   12.5504    4.9602 O.3       1 RES1    0.0000
     16 O2         2.8698   17.8842    2.6308 O.2       1 RES1    0.0000
     17 H1         2.5122   11.1470    2.0066 H         1 RES1    0.0000
     18 H2         1.6160   10.8089   -0.1159 H         1 RES1    0.0000
     19 H3         1.6129   12.5381   -1.6730 H         1 RES1    0.0000
     20 H4         2.4462   14.6301   -1.1023 H         1 RES1    0.0000
     21 H5         2.9879   16.1764    0.7384 H         1 RES1    0.0000
     22 H6         4.4392   15.5893    0.8258 H         1 RES1    0.0000
     23 H7         2.4392   16.8743    5.1082 H         1 RES1    0.0000
     24 H8         3.9883   17.1110    5.0565 H         1 RES1    0.0000
     25 H9         4.1407   14.9867    5.5381 H         1 RES1    0.0000
     26 H10        2.6794   14.7024    5.0458 H         1 RES1    0.0000
     27 H11        5.0074   14.6393    3.5333 H         1 RES1    0.0000
     28 H12        4.7322   11.5605    5.1742 H         1 RES1    0.0000
     29 C13        7.0283    1.9567    3.2765 C.2       2 RES2    0.0000
     30 C14        6.9180    1.8353    1.8032 C.ar      2 RES2    0.0000
     31 C15        7.3183    0.6671    1.1290 C.ar      2 RES2    0.0000
     32 C16        7.0960    0.4965   -0.2087 C.ar      2 RES2    0.0000
     33 C17        6.4866    1.4987   -0.9382 C.ar      2 RES2    0.0000
     34 C18        6.1516    2.6807   -0.3210 C.ar      2 RES2    0.0000
     35 C19        6.3614    2.8667    1.0113 C.ar      2 RES2    0.0000
     36 C20        5.9953    4.1625    1.6837 C.3       2 RES2    0.0000
     37 N3         6.7003    4.3515    2.9287 N.am      2 RES2    0.0000
     38 C21        7.2755    5.4967    3.3139 C.2       2 RES2    0.0000
     39 C22        7.8266    5.2984    4.6998 C.3       2 RES2    0.0000
     40 C23        7.8360    3.7859    4.8835 C.3       2 RES2    0.0000
     41 C24        6.7625    3.2863    3.9328 C.3       2 RES2    0.0000
     42 N4         7.2336    0.8746    3.9239 N.2       2 RES2    0.0000
     43 O3         7.2087    1.0852    5.3133 O.3       2 RES2    0.0000
     44 O4         7.3159    6.5096    2.6130 O.2       2 RES2    0.0000
     45 H13        7.7497   -0.0338    1.6231 H         2 RES2    0.0000
     46 H14        7.3672   -0.3166   -0.6421 H         2 RES2    0.0000
     47 H15        6.2992    1.3726   -1.8728 H         2 RES2    0.0000
     48 H16        5.7691    3.3908   -0.8419 H         2 RES2    0.0000
     49 H17        5.0525    4.1594    1.8639 H         2 RES2    0.0000
     50 H18        6.2044    4.8911    1.0933 H         2 RES2    0.0000
     51 H19        8.7065    5.6719    4.7800 H         2 RES2    0.0000
     52 H20        7.2437    5.7073    5.3437 H         2 RES2    0.0000
     53 H21        7.6549    3.5369    5.7931 H         2 RES2    0.0000
     54 H22        8.6856    3.4247    4.6177 H         2 RES2    0.0000
     55 H23        5.9432    3.1388    4.4108 H         2 RES2    0.0000
     56 H24        7.3906   -0.0092    5.6397 H         2 RES2    0.0000
@<TRIPOS>BOND
     1    1    2 1
     2    2    3 ar
     3    3    4 ar
     4    4    5 ar
     5    5    6 ar
     6    6    7 ar
     7    7    2 ar
     8    8    7 1
     9    9    8 1
    10   10    9 1
    11   11   10 1
    12   12   11 1
    13   13    1 1
    14   14    1 2
    15   15   14 1
    16   16   10 2
    17   17    3 1
    18   18    4 1
    19   19    5 1
    20   20    6 1
    21   21    8 1
    22   22    8 1
    23   23   11 1
    24   24   11 1
    25   25   12 1
    26   26   12 1
    27   27   13 1
    28   28   15 1
    29   29   30 1
    30   30   31 ar
    31   31   32 ar
    32   32   33 ar
    33   33   34 ar
    34   34   35 ar
    35   35   30 ar
    36   36   35 1
    37   37   36 1
    38   38   37 1
    39   39   38 1
    40   40   39 1
    41   41   29 1
    42   42   29 2
    43   43   42 1
    44   44   38 2
    45   45   31 1
    46   46   32 1
    47   47   33 1
    48   48   34 1
    49   49   36 1
    50   50   36 1
    51   51   39 1
    52   52   39 1
    53   53   40 1
    54   54   40 1
    55   55   41 1
    56   56   43 1
    57    9   13 1
    58   12   13 1
    59   37   41 1
    60   40   41 1
@<TRIPOS>SUBSTRUCTURE
     1 RES1 1
     2 RES2 29

@<TRIPOS>CRYSIN
   7.7730   15.3710   17.8360  90.0000  90.0000  90.0000  19 1

