# MOL2 file generated by ConQuest
# Please check atom types

@<TRIPOS>MOLECULE
GAGBAT
    70    73     1
SMALL
USER_CHARGES
****
Generated from CSD

@<TRIPOS>ATOM
      1 N1        -4.0462    6.5410    0.5918 N.pl3     1 RES1    0.0000
      2 O1        -3.9575    5.4296   -0.0178 O.2       1 RES1    0.0000
      3 C1        -4.5843    7.7662   -0.0640 C.3       1 RES1    0.0000
      4 N2        -3.9789    8.0280    2.1763 N.pl3     1 RES1    1.0000
      5 O2        -3.8694    8.5566    3.3410 O.2       1 RES1   -1.0000
      6 C2        -4.0340    7.8750   -1.5037 C.3       1 RES1    0.0000
      7 H1        -4.4338    7.0645   -1.9517 H         1 RES1    0.0000
      8 H2        -3.0447    7.8057   -1.4061 H         1 RES1    0.0000
      9 H3        -4.4071    8.6256   -1.6789 H         1 RES1    0.0000
     10 N3        -3.1241    3.6095    3.6831 N.2       1 RES1    0.0000
     11 C3        -6.0949    7.5865   -0.1186 C.3       1 RES1    0.0000
     12 H4        -6.3649    7.6007    0.6296 H         1 RES1    0.0000
     13 H5        -6.1994    6.7334   -0.8080 H         1 RES1    0.0000
     14 H6        -6.3339    8.4206   -0.5771 H         1 RES1    0.0000
     15 N4        -2.8831    4.5588    4.6023 N.3       1 RES1    0.0000
     16 C4        -4.0997    8.8511    0.9202 C.3       1 RES1    0.0000
     17 C5        -5.0609   10.0054    1.1490 C.3       1 RES1    0.0000
     18 H7        -4.5390   10.6756    1.7838 H         1 RES1    0.0000
     19 H8        -5.8413    9.6664    1.3221 H         1 RES1    0.0000
     20 H9        -5.0875   10.4864    0.3568 H         1 RES1    0.0000
     21 C6        -2.6803    9.3542    0.6201 C.3       1 RES1    0.0000
     22 H10       -2.5265    9.8556    1.6369 H         1 RES1    0.0000
     23 H11       -2.7963    9.9660   -0.0735 H         1 RES1    0.0000
     24 H12       -1.9892    8.4680    0.5456 H         1 RES1    0.0000
     25 C7        -3.8316    6.7223    1.9160 C.2       1 RES1    0.0000
     26 C8        -3.5059    5.6690    2.8573 C.2       1 RES1    0.0000
     27 C9        -3.4882    4.2955    2.6054 C.2       1 RES1    0.0000
     28 H13       -3.6769    3.7846    1.7628 H         1 RES1    0.0000
     29 C10       -3.1070    5.7998    4.1616 C.2       1 RES1    0.0000
     30 H14       -2.9708    6.6230    4.6380 H         1 RES1    0.0000
     31 C11       -2.4641    4.1441    5.9360 C.3       1 RES1    0.0000
     32 H15       -2.0991    4.9042    6.3169 H         1 RES1    0.0000
     33 H16       -1.8704    3.3430    5.8447 H         1 RES1    0.0000
     34 C12       -3.5792    3.7357    6.7586 C.1       1 RES1    0.0000
     35 C13       -4.5466    3.5496    7.4533 C.1       1 RES1    0.0000
     36 N1A       -6.1956    6.5410   15.1479 N.pl3     1 RES1    0.0000
     37 O1A       -6.2843    5.4296   15.7575 O.2       1 RES1    0.0000
     38 C1A       -5.6575    7.7662   15.8037 C.3       1 RES1    0.0000
     39 N2A       -6.2629    8.0280   13.5634 N.pl3     1 RES1    1.0000
     40 O2A       -6.3724    8.5566   12.3987 O.2       1 RES1   -1.0000
     41 C2A       -6.2078    7.8750   17.2434 C.3       1 RES1    0.0000
     42 H1A       -5.8080    7.0645   17.6914 H         1 RES1    0.0000
     43 H2A       -7.1971    7.8057   17.1458 H         1 RES1    0.0000
     44 H3A       -5.8347    8.6256   17.4186 H         1 RES1    0.0000
     45 N3A       -7.1177    3.6095   12.0566 N.2       1 RES1    0.0000
     46 C3A       -4.1469    7.5865   15.8583 C.3       1 RES1    0.0000
     47 H4A       -3.8769    7.6007   15.1101 H         1 RES1    0.0000
     48 H5A       -4.0424    6.7334   16.5477 H         1 RES1    0.0000
     49 H6A       -3.9079    8.4206   16.3168 H         1 RES1    0.0000
     50 N4A       -7.3587    4.5588   11.1374 N.3       1 RES1    0.0000
     51 C4A       -6.1421    8.8511   14.8194 C.3       1 RES1    0.0000
     52 C5A       -5.1809   10.0054   14.5907 C.3       1 RES1    0.0000
     53 H7A       -5.7028   10.6756   13.9559 H         1 RES1    0.0000
     54 H8A       -4.4005    9.6664   14.4176 H         1 RES1    0.0000
     55 H9A       -5.1543   10.4864   15.3829 H         1 RES1    0.0000
     56 C6A       -7.5615    9.3542   15.1195 C.3       1 RES1    0.0000
     57 H10A      -7.7153    9.8556   14.1028 H         1 RES1    0.0000
     58 H11A      -7.4455    9.9660   15.8131 H         1 RES1    0.0000
     59 H12A      -8.2526    8.4680   15.1940 H         1 RES1    0.0000
     60 C7A       -6.4102    6.7223   13.8236 C.2       1 RES1    0.0000
     61 C8A       -6.7358    5.6690   12.8824 C.2       1 RES1    0.0000
     62 C9A       -6.7536    4.2955   13.1342 C.2       1 RES1    0.0000
     63 H13A      -6.5649    3.7846   13.9768 H         1 RES1    0.0000
     64 C10A      -7.1348    5.7998   11.5781 C.2       1 RES1    0.0000
     65 H14A      -7.2710    6.6230   11.1017 H         1 RES1    0.0000
     66 C11A      -7.7777    4.1441    9.8037 C.3       1 RES1    0.0000
     67 H15A      -8.1427    4.9042    9.4228 H         1 RES1    0.0000
     68 H16A      -8.3714    3.3430    9.8950 H         1 RES1    0.0000
     69 C12A      -6.6626    3.7357    8.9811 C.1       1 RES1    0.0000
     70 C13A      -5.6952    3.5496    8.2864 C.1       1 RES1    0.0000
@<TRIPOS>BOND
     1    1    2 1
     2    3    1 1
     3    4    5 1
     4    6    3 1
     5    7    6 1
     6    8    6 1
     7    9    6 1
     8   10   15 1
     9   11    3 1
    10   12   11 1
    11   13   11 1
    12   14   11 1
    13   15   29 1
    14   16    3 1
    15   17   16 1
    16   18   17 1
    17   19   17 1
    18   20   17 1
    19   21   16 1
    20   22   21 1
    21   23   21 1
    22   24   21 1
    23   25    1 1
    24   26   25 1
    25   27   10 2
    26   28   27 1
    27   29   26 2
    28   30   29 1
    29   31   15 1
    30   32   31 1
    31   33   31 1
    32   34   31 1
    33   35   34 3
    34   36   37 1
    35   38   36 1
    36   39   40 1
    37   41   38 1
    38   42   41 1
    39   43   41 1
    40   44   41 1
    41   45   50 1
    42   46   38 1
    43   47   46 1
    44   48   46 1
    45   49   46 1
    46   50   64 1
    47   51   38 1
    48   52   51 1
    49   53   52 1
    50   54   52 1
    51   55   52 1
    52   56   51 1
    53   57   56 1
    54   58   56 1
    55   59   56 1
    56   60   36 1
    57   61   60 1
    58   62   45 2
    59   63   62 1
    60   64   61 2
    61   65   64 1
    62   66   50 1
    63   67   66 1
    64   68   66 1
    65   69   66 1
    66   70   35 1
    67    4   16 1
    68    4   25 2
    69   26   27 1
    70   39   51 1
    71   39   60 2
    72   61   62 1
    73   69   70 3
@<TRIPOS>SUBSTRUCTURE
     1 RES1 1

@<TRIPOS>CRYSIN
  15.7130   15.7690   12.5190  90.0000 123.0520  90.0000  15 1

