# MOL2 file generated by ConQuest
# Please check atom types

@<TRIPOS>MOLECULE
GAGHOM
    57    59     1
SMALL
NO_CHARGES
****
Generated from CSD

@<TRIPOS>ATOM
      1 O1        -3.4761   -4.9730    8.7298 O.3       1 RES1    0.0000
      2 O2        -1.3425   -3.7786   11.9335 O.2       1 RES1    0.0000
      3 O3        -3.7369    2.1581    7.9176 O.3       1 RES1    0.0000
      4 O4        -6.7440   -1.1433   11.8693 O.2       1 RES1    0.0000
      5 O5        -6.7921    0.0044   13.6389 O.2       1 RES1    0.0000
      6 O6        -0.9255   -0.2154   15.5075 O.2       1 RES1    0.0000
      7 O7        -2.7316    0.7061   16.1449 O.2       1 RES1    0.0000
      8 N1        -2.0511   -2.7161   10.0509 N.am      1 RES1    0.0000
      9 N2        -6.2086   -0.6802   12.8370 N.pl3     1 RES1    0.0000
     10 N3        -2.1022    0.0177   15.3815 N.pl3     1 RES1    0.0000
     11 C1         1.9198   -4.6162   10.8155 C.2       1 RES1    0.0000
     12 C2         1.5852   -4.2586    9.8247 C.2       1 RES1    0.0000
     13 C3         0.9940   -2.9520    9.3415 C.3       1 RES1    0.0000
     14 C4         2.0261   -2.1210    8.5936 C.3       1 RES1    0.0000
     15 C5        -0.2053   -3.2191    8.4509 C.3       1 RES1    0.0000
     16 C6        -1.4298   -3.7507    9.1654 C.3       1 RES1    0.0000
     17 C7        -2.4344   -4.2631    8.2029 C.2       1 RES1    0.0000
     18 C8        -2.5748   -4.1910    6.8677 C.2       1 RES1    0.0000
     19 C9        -3.7798   -4.8775    6.5451 C.2       1 RES1    0.0000
     20 C10       -4.2814   -5.3342    7.6786 C.2       1 RES1    0.0000
     21 C11       -2.4942   -1.4811    9.4700 C.ar      1 RES1    0.0000
     22 C12       -1.7858   -0.3065    9.6808 C.ar      1 RES1    0.0000
     23 C13       -2.2261    0.8802    9.1577 C.ar      1 RES1    0.0000
     24 C14       -3.3756    0.9230    8.3944 C.ar      1 RES1    0.0000
     25 C15       -4.0771   -0.2326    8.1605 C.ar      1 RES1    0.0000
     26 C16       -3.6416   -1.4337    8.7015 C.ar      1 RES1    0.0000
     27 C17       -4.8446    2.2559    7.0360 C.3       1 RES1    0.0000
     28 C18       -1.9782   -2.8756   11.3925 C.2       1 RES1    0.0000
     29 C19       -2.7410   -1.9166   12.2651 C.ar      1 RES1    0.0000
     30 C20       -2.0890   -1.3711   13.3601 C.ar      1 RES1    0.0000
     31 C21       -2.8140   -0.5912   14.2404 C.ar      1 RES1    0.0000
     32 C22       -4.1508   -0.3524   14.1054 C.ar      1 RES1    0.0000
     33 C23       -4.7704   -0.9104   13.0156 C.ar      1 RES1    0.0000
     34 C24       -4.0932   -1.6857   12.0878 C.ar      1 RES1    0.0000
     35 H1         1.8592   -4.0329   11.5879 H         1 RES1    0.0000
     36 H2         2.2721   -5.5148   10.9119 H         1 RES1    0.0000
     37 H3         1.6926   -4.9173    9.1205 H         1 RES1    0.0000
     38 H4         0.6953   -2.4472   10.1139 H         1 RES1    0.0000
     39 H5         2.7810   -1.9408    9.1757 H         1 RES1    0.0000
     40 H6         2.3291   -2.6082    7.8122 H         1 RES1    0.0000
     41 H7         1.6259   -1.2820    8.3147 H         1 RES1    0.0000
     42 H8        -0.4483   -2.3863    8.0165 H         1 RES1    0.0000
     43 H9         0.0573   -3.8690    7.7801 H         1 RES1    0.0000
     44 H10       -1.1494   -4.4917    9.7258 H         1 RES1    0.0000
     45 H11       -1.9713   -3.7557    6.2444 H         1 RES1    0.0000
     46 H12       -4.1604   -4.9882    5.6596 H         1 RES1    0.0000
     47 H13       -5.0995   -5.8499    7.7570 H         1 RES1    0.0000
     48 H14       -0.9695   -0.3258   10.2038 H         1 RES1    0.0000
     49 H15       -1.7280    1.6955    9.3248 H         1 RES1    0.0000
     50 H16       -4.8785   -0.2092    7.6143 H         1 RES1    0.0000
     51 H17       -4.1477   -2.2461    8.5409 H         1 RES1    0.0000
     52 H18       -4.9730    3.1823    6.7803 H         1 RES1    0.0000
     53 H19       -4.6755    1.7223    6.2444 H         1 RES1    0.0000
     54 H20       -5.6420    1.9303    7.4819 H         1 RES1    0.0000
     55 H21       -1.1441   -1.5335   13.5053 H         1 RES1    0.0000
     56 H22       -4.6385    0.1846   14.7493 H         1 RES1    0.0000
     57 H23       -4.5602   -2.0601   11.3244 H         1 RES1    0.0000
@<TRIPOS>BOND
     1    1   17 1
     2    2   28 2
     3    3   24 1
     4    4    9 2
     5    5    9 2
     6    6   10 2
     7    7   10 2
     8    8   16 1
     9    9   33 1
    10   10   31 1
    11   11   12 2
    12   12   13 1
    13   13   14 1
    14   14   39 1
    15   15   13 1
    16   16   15 1
    17   17   16 1
    18   18   17 2
    19   19   18 1
    20   20    1 1
    21   21    8 1
    22   22   21 ar
    23   23   22 ar
    24   24   23 ar
    25   25   24 ar
    26   26   21 ar
    27   27    3 1
    28   28    8 1
    29   29   28 1
    30   30   29 ar
    31   31   30 ar
    32   32   31 ar
    33   33   32 ar
    34   34   29 ar
    35   35   11 1
    36   36   11 1
    37   37   12 1
    38   38   13 1
    39   40   14 1
    40   41   14 1
    41   42   15 1
    42   43   15 1
    43   44   16 1
    44   45   18 1
    45   46   19 1
    46   47   20 1
    47   48   22 1
    48   49   23 1
    49   50   25 1
    50   51   26 1
    51   52   27 1
    52   53   27 1
    53   54   27 1
    54   55   30 1
    55   56   32 1
    56   57   34 1
    57   19   20 2
    58   25   26 ar
    59   33   34 ar
@<TRIPOS>SUBSTRUCTURE
     1 RES1 1

@<TRIPOS>CRYSIN
   9.3210   10.5290   13.7730 101.2630 102.7270 109.3440   2 1

