# MOL2 file generated by ConQuest
# Please check atom types

@<TRIPOS>MOLECULE
GAGJAA
    60    62     1
SMALL
NO_CHARGES
****
Generated from CSD

@<TRIPOS>ATOM
      1 O1         0.8457    2.1409    2.5752 O.3       1 RES1    0.0000
      2 O2         3.3650    3.5266    5.5549 O.2       1 RES1    0.0000
      3 O3         4.2210    7.3994    8.7044 O.2       1 RES1    0.0000
      4 O4         2.5220    8.3874    9.4817 O.2       1 RES1    0.0000
      5 O5        -1.9796    6.2621    5.8300 O.2       1 RES1    0.0000
      6 O6        -1.8072    7.5904    7.4885 O.2       1 RES1    0.0000
      7 O7         0.7150    9.1198    1.2400 O.3       1 RES1    0.0000
      8 N1         2.4331    4.4107    3.6796 N.am      1 RES1    0.0000
      9 N2         3.0373    7.6310    8.7019 N.pl3     1 RES1    0.0000
     10 N3        -1.3317    6.8007    6.7011 N.pl3     1 RES1    0.0000
     11 C1         7.0665    3.1090    4.4771 C.3       1 RES1    0.0000
     12 C2         6.0542    2.8331    3.4184 C.2       1 RES1    0.0000
     13 C3         5.8061    1.5907    3.0659 C.2       1 RES1    0.0000
     14 C4         5.4086    4.0472    2.8199 C.3       1 RES1    0.0000
     15 C5         6.4263    4.8220    1.9755 C.3       1 RES1    0.0000
     16 C6         4.1620    3.7612    2.0097 C.3       1 RES1    0.0000
     17 C7         2.9640    3.3138    2.8237 C.3       1 RES1    0.0000
     18 C8         1.8889    2.7698    1.9539 C.2       1 RES1    0.0000
     19 C9         1.6860    2.7452    0.6314 C.2       1 RES1    0.0000
     20 C10        0.4565    2.0745    0.4019 C.2       1 RES1    0.0000
     21 C11       -0.0065    1.7306    1.5811 C.2       1 RES1    0.0000
     22 C12        2.6775    4.3754    5.0134 C.2       1 RES1    0.0000
     23 C13        2.0292    5.4283    5.8782 C.ar      1 RES1    0.0000
     24 C14        2.8029    6.0681    6.8266 C.ar      1 RES1    0.0000
     25 C15        2.1990    6.9357    7.7129 C.ar      1 RES1    0.0000
     26 C16        0.8593    7.1838    7.7167 C.ar      1 RES1    0.0000
     27 C17        0.1140    6.5323    6.7632 C.ar      1 RES1    0.0000
     28 C18        0.6658    5.6657    5.8440 C.ar      1 RES1    0.0000
     29 C19        1.9553    5.6124    3.0418 C.ar      1 RES1    0.0000
     30 C20        2.7435    6.7545    3.0253 C.ar      1 RES1    0.0000
     31 C21        2.2945    7.9001    2.4218 C.ar      1 RES1    0.0000
     32 C22        1.0524    7.9330    1.8132 C.ar      1 RES1    0.0000
     33 C23        0.2728    6.8077    1.8094 C.ar      1 RES1    0.0000
     34 C24        0.7253    5.6447    2.4281 C.ar      1 RES1    0.0000
     35 C25       -0.5585    9.2612    0.6492 C.3       1 RES1    0.0000
     36 H1         6.8008    2.6707    5.3025 H         1 RES1    0.0000
     37 H2         7.9304    2.7697    4.1956 H         1 RES1    0.0000
     38 H3         7.1273    4.0656    4.6255 H         1 RES1    0.0000
     39 H4         6.2683    0.8591    3.5021 H         1 RES1    0.0000
     40 H5         5.1624    1.4078    2.3622 H         1 RES1    0.0000
     41 H6         5.1451    4.6268    3.5540 H         1 RES1    0.0000
     42 H7         7.1658    5.1020    2.5372 H         1 RES1    0.0000
     43 H8         6.7603    4.2466    1.2667 H         1 RES1    0.0000
     44 H9         6.0007    5.6000    1.5875 H         1 RES1    0.0000
     45 H10        3.9177    4.5699    1.5291 H         1 RES1    0.0000
     46 H11        4.3725    3.0607    1.3681 H         1 RES1    0.0000
     47 H12        3.2580    2.5972    3.4070 H         1 RES1    0.0000
     48 H13        2.2726    3.1151   -0.0456 H         1 RES1    0.0000
     49 H14        0.0415    1.9055   -0.4615 H         1 RES1    0.0000
     50 H15       -0.8332    1.2537    1.7193 H         1 RES1    0.0000
     51 H16        3.7566    5.9085    6.8723 H         1 RES1    0.0000
     52 H17        0.4533    7.7907    8.3557 H         1 RES1    0.0000
     53 H18        0.1085    5.2278    5.1834 H         1 RES1    0.0000
     54 H19        3.6181    6.7432    3.4463 H         1 RES1    0.0000
     55 H20        2.8511    8.6942    2.4218 H         1 RES1    0.0000
     56 H21       -0.5917    6.8214    1.3795 H         1 RES1    0.0000
     57 H22        0.1657    4.8533    2.4256 H         1 RES1    0.0000
     58 H23       -1.2488    9.1109    1.3199 H         1 RES1    0.0000
     59 H24       -0.6581   10.1521    0.2815 H         1 RES1    0.0000
     60 H25       -0.6654    8.6058   -0.0634 H         1 RES1    0.0000
@<TRIPOS>BOND
     1    1   18 1
     2    2   22 2
     3    3    9 2
     4    4    9 2
     5    5   10 2
     6    6   10 2
     7    7   32 1
     8    8   17 1
     9    9   25 1
    10   10   27 1
    11   11   12 1
    12   12   13 2
    13   13   39 1
    14   14   12 1
    15   15   14 1
    16   16   14 1
    17   17   16 1
    18   18   17 1
    19   19   18 2
    20   20   19 1
    21   21    1 1
    22   22    8 1
    23   23   22 1
    24   24   23 ar
    25   25   24 ar
    26   26   25 ar
    27   27   26 ar
    28   28   23 ar
    29   29    8 1
    30   30   29 ar
    31   31   30 ar
    32   32   31 ar
    33   33   32 ar
    34   34   29 ar
    35   35    7 1
    36   36   11 1
    37   37   11 1
    38   38   11 1
    39   40   13 1
    40   41   14 1
    41   42   15 1
    42   43   15 1
    43   44   15 1
    44   45   16 1
    45   46   16 1
    46   47   17 1
    47   48   19 1
    48   49   20 1
    49   50   21 1
    50   51   24 1
    51   52   26 1
    52   53   28 1
    53   54   30 1
    54   55   31 1
    55   56   33 1
    56   57   34 1
    57   58   35 1
    58   59   35 1
    59   60   35 1
    60   20   21 2
    61   27   28 ar
    62   33   34 ar
@<TRIPOS>SUBSTRUCTURE
     1 RES1 1

@<TRIPOS>CRYSIN
   9.4444   10.7490   13.3840 100.7140 100.5680 109.5580   2 1

