# MOL2 file generated by ConQuest
# Please check atom types

@<TRIPOS>MOLECULE
GAGWIX
    59    60     1
SMALL
NO_CHARGES
****
Generated from CSD

@<TRIPOS>ATOM
      1 O1         1.5461    4.0730    4.0013 O.3       1 RES1    0.0000
      2 O2         2.8112    5.5208    2.2427 O.3       1 RES1    0.0000
      3 O3         2.1979    7.4592    3.2095 O.2       1 RES1    0.0000
      4 O4         1.1943    7.1892    5.7488 O.3       1 RES1    0.0000
      5 O5         0.0150    5.0048    2.6354 O.2       1 RES1    0.0000
      6 O6        -0.2051    5.4312    5.5720 O.2       1 RES1    0.0000
      7 C1         7.0685    0.8399    4.6843 C.ar      1 RES1    0.0000
      8 H1         6.8101   -0.0422    4.4450 H         1 RES1    0.0000
      9 C2         4.1896    4.1936    4.7326 C.3       1 RES1    0.0000
     10 H2         3.8294    3.2730    4.7923 H         1 RES1    0.0000
     11 H3         4.3056    4.4153    3.7741 H         1 RES1    0.0000
     12 C3         7.8729    3.4216    5.4022 C.ar      1 RES1    0.0000
     13 H4         8.1398    4.3007    5.6446 H         1 RES1    0.0000
     14 O7         5.8477    5.1840    6.1324 O.2       1 RES1    0.0000
     15 C4         3.1891    5.1736    5.3627 C.3       1 RES1    0.0000
     16 H5         3.6453    6.0597    5.4426 H         1 RES1    0.0000
     17 C5         8.3939    1.1529    4.9302 C.ar      1 RES1    0.0000
     18 N1         9.3899    0.0686    4.8606 N.pl3     1 RES1    0.0000
     19 O8        10.5751    0.3760    4.8505 O.2       1 RES1    0.0000
     20 C6         0.8189    5.9933    5.2972 C.2       1 RES1    0.0000
     21 C7         1.9381    5.3701    4.4426 C.3       1 RES1    0.0000
     22 O9         8.9868   -1.0868    4.8232 O.2       1 RES1    0.0000
     23 C8         1.9340    4.0389    9.3389 C.ar      1 RES1    0.0000
     24 H6         1.6458    3.8000   10.2128 H         1 RES1    0.0000
     25 C9         5.5299    4.2502    5.4240 C.2       1 RES1    0.0000
     26 C10        2.3083    6.2628    3.2318 C.2       1 RES1    0.0000
     27 C11        6.5175    3.1402    5.1839 C.ar      1 RES1    0.0000
     28 C12        2.7769    4.7434    6.7635 C.ar      1 RES1    0.0000
     29 C13        0.6035    4.0276    3.0146 C.2       1 RES1    0.0000
     30 C14        2.2264    3.4826    7.0062 C.ar      1 RES1    0.0000
     31 H7         2.1373    2.8592    6.2950 H         1 RES1    0.0000
     32 C15        2.9135    5.6364    7.8281 C.ar      1 RES1    0.0000
     33 H8         3.3028    6.4893    7.6793 H         1 RES1    0.0000
     34 C16        0.8064    9.1911    6.9862 C.3       1 RES1    0.0000
     35 H9         0.2347    9.6265    7.6525 H         1 RES1    0.0000
     36 H10        0.7708    9.6950    6.1466 H         1 RES1    0.0000
     37 H11        1.7294    9.1654    7.3131 H         1 RES1    0.0000
     38 C17        8.8231    2.4278    5.2664 C.ar      1 RES1    0.0000
     39 H12        9.7449    2.6128    5.4000 H         1 RES1    0.0000
     40 C18        6.1265    1.8580    4.7986 C.ar      1 RES1    0.0000
     41 H13        5.2123    1.6786    4.6123 H         1 RES1    0.0000
     42 C19        0.4750    2.6402    2.4811 C.3       1 RES1    0.0000
     43 H14        1.3673    2.2544    2.3567 H         1 RES1    0.0000
     44 H15        0.0057    2.6629    1.6211 H         1 RES1    0.0000
     45 H16       -0.0320    2.0924    3.1159 H         1 RES1    0.0000
     46 C20        0.3216    7.7919    6.7494 C.3       1 RES1    0.0000
     47 H17        0.3555    7.2719    7.5909 H         1 RES1    0.0000
     48 H18       -0.6130    7.8043    6.4244 H         1 RES1    0.0000
     49 C21        1.8076    3.1398    8.2892 C.ar      1 RES1    0.0000
     50 H19        1.4316    2.2821    8.4480 H         1 RES1    0.0000
     51 C22        2.4852    5.2892    9.1010 C.ar      1 RES1    0.0000
     52 H20        2.5697    5.9108    9.8134 H         1 RES1    0.0000
     53 C23        3.0751    6.2338    0.9951 C.3       1 RES1    0.0000
     54 H21        3.7164    5.7172    0.4451 H         1 RES1    0.0000
     55 H22        3.4805    7.1151    1.1949 H         1 RES1    0.0000
     56 C24        1.7925    6.4289    0.2276 C.3       1 RES1    0.0000
     57 H23        1.9846    6.8846   -0.6188 H         1 RES1    0.0000
     58 H24        1.1741    6.9728    0.7577 H         1 RES1    0.0000
     59 H25        1.3856    5.5564    0.0442 H         1 RES1    0.0000
@<TRIPOS>BOND
     1    1   21 1
     2    2   26 1
     3    3   26 2
     4    4   20 1
     5    5   29 2
     6    6   20 2
     7    7    8 1
     8    9   10 1
     9   11    9 1
    10   12   13 1
    11   14   25 2
    12   15    9 1
    13   16   15 1
    14   17    7 ar
    15   18   17 1
    16   19   18 2
    17   20   21 1
    18   21   15 1
    19   22   18 2
    20   23   24 1
    21   25    9 1
    22   26   21 1
    23   27   12 ar
    24   28   15 1
    25   29    1 1
    26   30   28 ar
    27   31   30 1
    28   32   28 ar
    29   33   32 1
    30   34   35 1
    31   36   34 1
    32   37   34 1
    33   38   12 ar
    34   39   38 1
    35   40    7 ar
    36   41   40 1
    37   42   29 1
    38   43   42 1
    39   44   42 1
    40   45   42 1
    41   46    4 1
    42   47   46 1
    43   48   46 1
    44   49   23 ar
    45   50   49 1
    46   51   23 ar
    47   52   51 1
    48   53    2 1
    49   54   53 1
    50   55   53 1
    51   56   53 1
    52   57   56 1
    53   58   56 1
    54   59   56 1
    55   17   38 ar
    56   25   27 1
    57   27   40 ar
    58   30   49 ar
    59   32   51 ar
    60   34   46 1
@<TRIPOS>SUBSTRUCTURE
     1 RES1 1

@<TRIPOS>CRYSIN
  11.0111   13.1762   15.8196  90.0000  93.8020  90.0000 231 1

