# MOL2 file generated by ConQuest
# Please check atom types

@<TRIPOS>MOLECULE
GAHCOJ
    77    82     1
SMALL
NO_CHARGES
****
Generated from CSD

@<TRIPOS>ATOM
      1 O1         2.8096    3.4066   10.3666 O.3       1 RES1    0.0000
      2 O2         2.2521    2.2316    8.4776 O.3       1 RES1    0.0000
      3 O3         0.9598    4.0577    7.8507 O.3       1 RES1    0.0000
      4 O4         0.9485    6.6055    5.3191 O.3       1 RES1    0.0000
      5 O5         3.2350    5.4056    9.4318 O.2       1 RES1    0.0000
      6 O6         0.4020    7.8117    8.0566 O.3       1 RES1    0.0000
      7 O7        -1.0332    8.6226    6.5265 O.3       1 RES1    0.0000
      8 O8        -1.9972    8.4137    2.2034 O.3       1 RES1    0.0000
      9 O9        -0.1230    7.2150    2.6925 O.3       1 RES1    0.0000
     10 N1         0.8499    4.5809    6.4876 N.3       1 RES1    0.0000
     11 C1         2.2319    2.1418    9.9104 C.3       1 RES1    0.0000
     12 C2         3.1349    1.0134   10.3282 C.3       1 RES1    0.0000
     13 H1         4.0430    1.2116   10.0493 H         1 RES1    0.0000
     14 H2         2.8553    0.1993    9.8810 H         1 RES1    0.0000
     15 C3         3.1094    0.7896   11.8418 C.3       1 RES1    0.0000
     16 H3         3.6183   -0.0064   12.0619 H         1 RES1    0.0000
     17 H4         3.5241    1.5451   12.2879 H         1 RES1    0.0000
     18 C4         1.6702    0.6298   12.3374 C.3       1 RES1    0.0000
     19 H5         1.2792   -0.1652   11.9431 H         1 RES1    0.0000
     20 H6         1.6703    0.5189   13.3013 H         1 RES1    0.0000
     21 C5         0.8362    1.8360   11.9701 C.3       1 RES1    0.0000
     22 H7         1.2003    2.6256   12.3997 H         1 RES1    0.0000
     23 H8        -0.0723    1.7113   12.2879 H         1 RES1    0.0000
     24 C6         0.8251    2.0384   10.4542 C.3       1 RES1    0.0000
     25 H9         0.3697    1.2925   10.0316 H         1 RES1    0.0000
     26 H10        0.3355    2.8483   10.2399 H         1 RES1    0.0000
     27 C7         2.8276    4.2740    9.3395 C.2       1 RES1    0.0000
     28 C8         2.2951    3.5803    8.0978 C.3       1 RES1    0.0000
     29 C9         3.0763    3.8158    6.8278 C.3       1 RES1    0.0000
     30 H11        3.6650    3.0688    6.6348 H         1 RES1    0.0000
     31 H12        3.6041    4.6278    6.8867 H         1 RES1    0.0000
     32 C10        1.9795    3.9458    5.7650 C.3       1 RES1    0.0000
     33 H13        2.2857    4.5372    5.0458 H         1 RES1    0.0000
     34 C11        1.5610    2.6053    5.1788 C.3       1 RES1    0.0000
     35 H14        2.3397    2.1908    4.7751 H         1 RES1    0.0000
     36 H15        1.2697    2.0320    5.9039 H         1 RES1    0.0000
     37 C12        0.4553    2.6650    4.1372 C.3       1 RES1    0.0000
     38 H16       -0.3321    3.0752    4.5527 H         1 RES1    0.0000
     39 C13        0.0763    1.2478    3.7017 C.3       1 RES1    0.0000
     40 H17       -0.6500    1.2883    3.0743 H         1 RES1    0.0000
     41 H18       -0.1932    0.7374    4.4691 H         1 RES1    0.0000
     42 H19        0.8333    0.8269    3.2874 H         1 RES1    0.0000
     43 C14        0.8499    3.5111    2.9354 C.3       1 RES1    0.0000
     44 H20        0.9304    4.4296    3.2038 H         1 RES1    0.0000
     45 H21        0.1775    3.4343    2.2551 H         1 RES1    0.0000
     46 H22        1.6914    3.2042    2.5906 H         1 RES1    0.0000
     47 C15        1.0247    6.0397    6.6136 C.3       1 RES1    0.0000
     48 H23        1.8856    6.2496    7.0326 H         1 RES1    0.0000
     49 C16       -0.4574    6.7962    5.0164 C.3       1 RES1    0.0000
     50 H24       -0.8480    5.9469    4.7221 H         1 RES1    0.0000
     51 C17       -1.0770    7.2075    6.3441 C.3       1 RES1    0.0000
     52 H25       -1.9830    6.8516    6.4523 H         1 RES1    0.0000
     53 C18       -0.1111    6.6502    7.3963 C.3       1 RES1    0.0000
     54 H26       -0.5373    6.0173    8.0119 H         1 RES1    0.0000
     55 C19       -0.3859    8.9273    7.7671 C.3       1 RES1    0.0000
     56 C20       -1.3863    9.1927    8.8346 C.3       1 RES1    0.0000
     57 H27       -1.9413    8.4191    8.9535 H         1 RES1    0.0000
     58 H28       -1.9320    9.9418    8.5839 H         1 RES1    0.0000
     59 H29       -0.9322    9.3898    9.6573 H         1 RES1    0.0000
     60 C21        0.5226   10.1069    7.5446 C.3       1 RES1    0.0000
     61 H30        1.0184   10.2859    8.3473 H         1 RES1    0.0000
     62 H31       -0.0020   10.8773    7.3151 H         1 RES1    0.0000
     63 H32        1.1333    9.9109    6.8290 H         1 RES1    0.0000
     64 C22       -0.5782    7.8149    3.9135 C.3       1 RES1    0.0000
     65 H33       -0.0392    8.6055    4.1242 H         1 RES1    0.0000
     66 C23       -1.9940    8.2230    3.5699 C.3       1 RES1    0.0000
     67 H34       -2.6211    7.5261    3.8206 H         1 RES1    0.0000
     68 H35       -2.2360    9.0414    4.0312 H         1 RES1    0.0000
     69 C24       -0.8374    7.8266    1.6278 C.3       1 RES1    0.0000
     70 C25       -1.1876    6.7621    0.6250 C.3       1 RES1    0.0000
     71 H36       -0.3825    6.3710    0.2801 H         1 RES1    0.0000
     72 H37       -1.6882    7.1532   -0.0953 H         1 RES1    0.0000
     73 H38       -1.7170    6.0833    1.0511 H         1 RES1    0.0000
     74 C26       -0.0285    8.9401    1.0181 C.3       1 RES1    0.0000
     75 H39        0.2317    9.5592    1.7031 H         1 RES1    0.0000
     76 H40       -0.5555    9.3962    0.3578 H         1 RES1    0.0000
     77 H41        0.7567    8.5746    0.6026 H         1 RES1    0.0000
@<TRIPOS>BOND
     1    1   11 1
     2    2   11 1
     3    3   10 1
     4    4   47 1
     5    5   27 2
     6    6   53 1
     7    7   51 1
     8    8   66 1
     9    9   64 1
    10   10   32 1
    11   11   12 1
    12   12   13 1
    13   14   12 1
    14   15   12 1
    15   16   15 1
    16   17   15 1
    17   18   15 1
    18   19   18 1
    19   20   18 1
    20   21   18 1
    21   22   21 1
    22   23   21 1
    23   24   11 1
    24   25   24 1
    25   26   24 1
    26   27    1 1
    27   28    2 1
    28   29   28 1
    29   30   29 1
    30   31   29 1
    31   32   29 1
    32   33   32 1
    33   34   32 1
    34   35   34 1
    35   36   34 1
    36   37   34 1
    37   38   37 1
    38   39   37 1
    39   40   39 1
    40   41   39 1
    41   42   39 1
    42   43   37 1
    43   44   43 1
    44   45   43 1
    45   46   43 1
    46   47   10 1
    47   48   47 1
    48   49    4 1
    49   50   49 1
    50   51   49 1
    51   52   51 1
    52   53   47 1
    53   54   53 1
    54   55    6 1
    55   56   55 1
    56   57   56 1
    57   58   56 1
    58   59   56 1
    59   60   55 1
    60   61   60 1
    61   62   60 1
    62   63   60 1
    63   64   49 1
    64   65   64 1
    65   66   64 1
    66   67   66 1
    67   68   66 1
    68   69    8 1
    69   70   69 1
    70   71   70 1
    71   72   70 1
    72   73   70 1
    73   74   69 1
    74   75   74 1
    75   76   74 1
    76   77   74 1
    77    3   28 1
    78    7   55 1
    79    9   69 1
    80   21   24 1
    81   27   28 1
    82   51   53 1
@<TRIPOS>SUBSTRUCTURE
     1 RES1 1

@<TRIPOS>CRYSIN
  10.6909   10.6557   12.5470  90.0000 110.2690  90.0000   4 1

