# MOL2 file generated by ConQuest
# Please check atom types

@<TRIPOS>MOLECULE
GAHCUP
   101    82     2
SMALL
NO_CHARGES
****
Generated from CSD

@<TRIPOS>ATOM
      1 C1         1.3245    4.2718    5.2755 C.3       1 RES1    0.0000
      2 H1         0.7477    4.7969    5.8684 H         1 RES1    0.0000
      3 C2         2.7120    4.8995    5.1758 C.3       1 RES1    0.0000
      4 H2         3.3547    4.5196    5.8101 H         1 RES1    0.0000
      5 C3         3.3428    6.9214    4.2752 C.3       1 RES1    0.0000
      6 C4         3.1216    4.6998    3.7036 C.3       1 RES1    0.0000
      7 H3         3.9486    4.1812    3.6139 H         1 RES1    0.0000
      8 C5         1.9204    3.9880    3.0770 C.3       1 RES1    0.0000
      9 H4         2.0893    3.0218    3.0664 H         1 RES1    0.0000
     10 C6         1.5277    4.4345    1.6897 C.3       1 RES1    0.0000
     11 H5         1.2920    5.3854    1.6924 H         1 RES1    0.0000
     12 C7         2.6168    4.1605    0.6541 C.3       1 RES1    0.0000
     13 H6         2.5566    4.7718   -0.0958 H         1 RES1    0.0000
     14 H7         3.5029    4.2161    1.0450 H         1 RES1    0.0000
     15 C8         0.8494    2.8046    0.1688 C.3       1 RES1    0.0000
     16 C9         4.7868    7.0862    4.7222 C.3       1 RES1    0.0000
     17 H8         5.1603    6.2249    4.9233 H         1 RES1    0.0000
     18 H9         4.8185    7.6397    5.5062 H         1 RES1    0.0000
     19 H10        5.2942    7.4989    4.0198 H         1 RES1    0.0000
     20 C10        2.6975    8.2205    3.8907 C.3       1 RES1    0.0000
     21 H11        3.1805    8.6135    3.1601 H         1 RES1    0.0000
     22 H12        2.7111    8.8188    4.6422 H         1 RES1    0.0000
     23 H13        1.7888    8.0611    3.6264 H         1 RES1    0.0000
     24 C11        0.8492    2.4640    7.9953 C.3       1 RES1    0.0000
     25 C12        0.0837    1.4858    7.1280 C.3       1 RES1    0.0000
     26 H14        0.6289    0.6779    7.0300 H         1 RES1    0.0000
     27 C13        0.0693    2.2085    5.7841 C.3       1 RES1    0.0000
     28 H15       -0.6205    2.9050    5.8080 H         1 RES1    0.0000
     29 C14       -0.1310    1.3537    4.5190 C.3       1 RES1    0.0000
     30 H16        0.1155    1.9105    3.7513 H         1 RES1    0.0000
     31 C15       -1.5999    0.9552    4.3383 C.3       1 RES1    0.0000
     32 H17       -1.8181    0.2522    4.9545 H         1 RES1    0.0000
     33 H18       -1.7406    0.6485    3.4411 H         1 RES1    0.0000
     34 H19       -2.1608    1.7162    4.5090 H         1 RES1    0.0000
     35 C16        0.7474    0.1168    4.4778 C.3       1 RES1    0.0000
     36 H20        1.6570    0.3635    4.6610 H         1 RES1    0.0000
     37 H21        0.6944   -0.2849    3.6076 H         1 RES1    0.0000
     38 H22        0.4467   -0.5109    5.1398 H         1 RES1    0.0000
     39 C17       -1.2653    1.0742    7.7101 C.3       1 RES1    0.0000
     40 H23       -1.8754    1.8144    7.6587 H         1 RES1    0.0000
     41 H24       -1.1531    0.8166    8.6287 H         1 RES1    0.0000
     42 H25       -1.6172    0.3341    7.2111 H         1 RES1    0.0000
     43 C18        0.0656    3.5961    8.6367 C.2       1 RES1    0.0000
     44 C19        1.4208    2.5961   10.2233 C.3       1 RES1    0.0000
     45 C20        2.8657    3.0884   10.3982 C.3       1 RES1    0.0000
     46 H26        3.4782    2.3373   10.4211 H         1 RES1    0.0000
     47 H27        3.1159    3.6692    9.6634 H         1 RES1    0.0000
     48 C21        2.9134    3.8526   11.7201 C.3       1 RES1    0.0000
     49 H28        2.3534    4.6430   11.6535 H         1 RES1    0.0000
     50 H29        3.8230    4.1441   11.8887 H         1 RES1    0.0000
     51 C22        2.4318    2.9858   12.8880 C.3       1 RES1    0.0000
     52 H30        3.0553    2.2544   13.0212 H         1 RES1    0.0000
     53 H31        2.4190    3.5185   13.6977 H         1 RES1    0.0000
     54 C23        1.0494    2.4236   12.6361 C.3       1 RES1    0.0000
     55 H32        0.4077    3.1506   12.5986 H         1 RES1    0.0000
     56 H33        0.7998    1.8417   13.3709 H         1 RES1    0.0000
     57 C24        1.0032    1.6386   11.3308 C.3       1 RES1    0.0000
     58 H34        1.6102    0.8832   11.3704 H         1 RES1    0.0000
     59 H35        0.1068    1.3068   11.1685 H         1 RES1    0.0000
     60 N1         1.4158    2.8657    5.7406 N.3       1 RES1    0.0000
     61 O1         2.5643    6.3061    5.3024 O.3       1 RES1    0.0000
     62 O2         3.2525    6.0218    3.1819 O.3       1 RES1    0.0000
     63 O3         0.8154    4.2640    3.9603 O.3       1 RES1    0.0000
     64 O4         0.4266    3.6485    1.2114 O.3       1 RES1    0.0000
     65 O5         1.8512    3.0175    7.1449 O.3       1 RES1    0.0000
     66 O6        -0.7009    4.3548    8.1071 O.2       1 RES1    0.0000
     67 O7         0.4266    3.6332    9.9334 O.3       1 RES1    0.0000
     68 O8         1.4542    1.8013    9.0630 O.3       1 RES1    0.0000
     69 O9         2.2756    2.7456    0.2477 O.3       1 RES1    0.0000
     70 C25        0.4414    1.3428    0.6391 C.3       1 RES1    0.0000
     71 H36        0.7006    0.7063   -0.0312 H         1 RES1    0.0000
     72 H37       -0.5093    1.3013    0.7682 H         1 RES1    0.0000
     73 H38        0.8856    1.1365    1.4655 H         1 RES1    0.0000
     74 C26        0.2942    3.1146   -1.1429 C.3       1 RES1    0.0000
     75 H39        0.6330    2.4913   -1.7903 H         1 RES1    0.0000
     76 H40        0.5472    4.0065   -1.3948 H         1 RES1    0.0000
     77 H41       -0.6629    3.0524   -1.1096 H         1 RES1    0.0000
     78 C27        1.5212    1.5196    0.2665 Du        2 SUP2    0.0000
     79 C28       -0.2054    2.9782   -0.9576 Du        2 SUP2    0.0000
     80 C29        2.4101    3.6867   10.7126 Du        2 SUP2    0.0000
     81 C30        3.5090    2.8526   11.3433 Du        2 SUP2    0.0000
     82 C31        2.9583    2.1212   12.5674 Du        2 SUP2    0.0000
     83 C32        1.7607    1.2915   12.1448 Du        2 SUP2    0.0000
     84 C33        0.6977    2.1736   11.5265 Du        2 SUP2    0.0000
     85 H42        2.1484    1.5415    0.9930 Du        2 SUP2    0.0000
     86 H43        1.9847    1.3373   -0.5517 Du        2 SUP2    0.0000
     87 H44        0.8706    0.8308    0.4268 Du        2 SUP2    0.0000
     88 H45       -0.5237    3.8843   -0.9638 Du        2 SUP2    0.0000
     89 H46       -0.9433    2.3821   -0.8015 Du        2 SUP2    0.0000
     90 H47        0.1940    2.7740   -1.8069 Du        2 SUP2    0.0000
     91 H48        2.7477    4.2151    9.9735 Du        2 SUP2    0.0000
     92 H49        1.9946    4.2740   11.3641 Du        2 SUP2    0.0000
     93 H50        4.2448    3.4268   11.6077 Du        2 SUP2    0.0000
     94 H51        3.8423    2.2085   10.6980 Du        2 SUP2    0.0000
     95 H52        3.6453    1.5458   12.9442 Du        2 SUP2    0.0000
     96 H53        2.6967    2.7631   13.2460 Du        2 SUP2    0.0000
     97 H54        2.0402    0.6212   11.5015 Du        2 SUP2    0.0000
     98 H55        1.3947    0.8330   12.9171 Du        2 SUP2    0.0000
     99 H56        0.4918    2.9367   12.0886 Du        2 SUP2    0.0000
    100 H57       -0.1177    1.6790   11.3433 Du        2 SUP2    0.0000
    101 O10        1.8719    3.9443   -0.5288 Du        2 SUP2    0.0000
@<TRIPOS>BOND
     1    1    2 1
     2    3    1 1
     3    4    3 1
     4    5   16 1
     5    6    3 1
     6    7    6 1
     7    8    6 1
     8    9    8 1
     9   10    8 1
    10   11   10 1
    11   12   10 1
    12   13   12 1
    13   14   12 1
    14   15   64 1
    15   16   17 1
    16   18   16 1
    17   19   16 1
    18   20    5 1
    19   21   20 1
    20   22   20 1
    21   23   20 1
    22   24   25 1
    23   25   26 1
    24   27   25 1
    25   28   27 1
    26   29   27 1
    27   30   29 1
    28   31   29 1
    29   32   31 1
    30   33   31 1
    31   34   31 1
    32   35   29 1
    33   36   35 1
    34   37   35 1
    35   38   35 1
    36   39   25 1
    37   40   39 1
    38   41   39 1
    39   42   39 1
    40   43   24 1
    41   44   45 1
    42   45   46 1
    43   47   45 1
    44   48   45 1
    45   49   48 1
    46   50   48 1
    47   51   48 1
    48   52   51 1
    49   53   51 1
    50   54   51 1
    51   55   54 1
    52   56   54 1
    53   57   44 1
    54   58   57 1
    55   59   57 1
    56   60    1 1
    57   61    3 1
    58   62    5 1
    59   63    1 1
    60   64   10 1
    61   65   24 1
    62   66   43 2
    63   67   43 1
    64   68   24 1
    65   69   12 1
    66   70   15 1
    67   71   70 1
    68   72   70 1
    69   73   70 1
    70   74   15 1
    71   75   74 1
    72   76   74 1
    73   77   74 1
    74    5   61 1
    75    6   62 1
    76    8   63 1
    77   15   69 1
    78   27   60 1
    79   44   67 1
    80   44   68 1
    81   54   57 1
    82   60   65 1
@<TRIPOS>SUBSTRUCTURE
     1 RES1 1
     2 SUP2 78

@<TRIPOS>CRYSIN
   5.9601   10.9170   20.8910  90.0000  94.8160  90.0000   4 1

