# MOL2 file generated by ConQuest
# Please check atom types

@<TRIPOS>MOLECULE
GAHGEC
   109   114     3
SMALL
NO_CHARGES
****
Generated from CSD

@<TRIPOS>ATOM
      1 O1         4.1606    0.4692    2.7374 O.3       1 RES1    0.0000
      2 C1         3.9249    0.0130    4.0380 C.3       1 RES1    0.0000
      3 H1         3.4874   -0.8635    4.0013 H         1 RES1    0.0000
      4 C2         3.0222    0.9977    4.7605 C.3       1 RES1    0.0000
      5 H2         3.4677    1.2476    5.5970 H         1 RES1    0.0000
      6 C3         3.0875    2.2092    3.8222 C.3       1 RES1    0.0000
      7 H3         3.7971    2.8024    4.1438 H         1 RES1    0.0000
      8 C4         1.7965    3.0523    3.6614 C.3       1 RES1    0.0000
      9 H4         1.0466    2.4331    3.7754 H         1 RES1    0.0000
     10 C5         1.6960    3.5909    2.2306 C.3       1 RES1    0.0000
     11 H5         2.4425    4.1999    2.0414 H         1 RES1    0.0000
     12 C6         0.3548    4.2906    1.9640 C.3       1 RES1    0.0000
     13 H6         0.0717    4.8061    2.7354 H         1 RES1    0.0000
     14 H7         0.4155    4.8792    1.1947 H         1 RES1    0.0000
     15 C7        -0.5990    3.1384    1.6954 C.3       1 RES1    0.0000
     16 H8        -1.3536    3.4373    1.1642 H         1 RES1    0.0000
     17 H9        -0.9325    2.7700    2.5298 H         1 RES1    0.0000
     18 C8         0.2165    2.0944    0.9342 C.3       1 RES1    0.0000
     19 H10        0.0397    2.1499   -0.0183 H         1 RES1    0.0000
     20 H11       -0.0000    1.2004    1.2415 H         1 RES1    0.0000
     21 C9         1.6956    2.4350    1.2374 C.3       1 RES1    0.0000
     22 O2         2.2663    1.2642    1.8175 O.3       1 RES1    0.0000
     23 N1         3.4896    1.7020    2.4790 N.3       1 RES1    0.0000
     24 O3         2.4240    2.8367    0.1119 O.3       1 RES1    0.0000
     25 C10        2.4723    1.8982   -0.9566 C.3       1 RES1    0.0000
     26 H12        2.7158    1.0347   -0.6146 H         1 RES1    0.0000
     27 H13        3.1257    2.1814   -1.6018 H         1 RES1    0.0000
     28 H14        1.6122    1.8445   -1.3779 H         1 RES1    0.0000
     29 N2         5.2662   -0.1268    4.7259 N.pl3     1 RES1    0.0000
     30 O4         6.2247    0.3286    4.2354 O.2       1 RES1    0.0000
     31 O5         5.2078   -0.6960    5.7924 O.2       1 RES1    0.0000
     32 C11        1.6596    0.4313    5.1167 C.ar      1 RES1    0.0000
     33 C12        1.1327    0.6358    6.3500 C.ar      1 RES1    0.0000
     34 H15        1.6180    1.1236    6.9769 H         1 RES1    0.0000
     35 C13       -0.1249    0.1296    6.7042 C.ar      1 RES1    0.0000
     36 H16       -0.4670    0.2527    7.5610 H         1 RES1    0.0000
     37 C14       -0.8230   -0.5377    5.7740 C.ar      1 RES1    0.0000
     38 H17       -1.6733   -0.8478    5.9959 H         1 RES1    0.0000
     39 C15       -0.3459   -0.7839    4.5122 C.ar      1 RES1    0.0000
     40 H18       -0.8400   -1.2689    3.8914 H         1 RES1    0.0000
     41 C16        0.9189   -0.2684    4.2069 C.ar      1 RES1    0.0000
     42 H19        1.2674   -0.4072    3.3561 H         1 RES1    0.0000
     43 C17        1.6596    4.0916    4.7401 C.ar      1 RES1    0.0000
     44 C18        2.5866    5.1254    4.8704 C.ar      1 RES1    0.0000
     45 H20        3.3120    5.1689    4.2863 H         1 RES1    0.0000
     46 C19        2.4470    6.0824    5.8493 C.ar      1 RES1    0.0000
     47 H21        3.0964    6.7367    5.9674 H         1 RES1    0.0000
     48 C20        1.3261    6.0555    6.6533 C.ar      1 RES1    0.0000
     49 H22        1.2061    6.7127    7.3005 H         1 RES1    0.0000
     50 C21        0.3973    5.0773    6.5108 C.ar      1 RES1    0.0000
     51 H23       -0.3509    5.0662    7.0583 H         1 RES1    0.0000
     52 C22        0.5653    4.0935    5.5481 C.ar      1 RES1    0.0000
     53 H24       -0.0783    3.4281    5.4545 H         1 RES1    0.0000
     54 O6         5.0221   -2.3832    2.4810 O.3       2 RES2    0.0000
     55 C23        5.0779   -1.9713    1.1459 C.3       2 RES2    0.0000
     56 H25        5.4506   -1.0671    1.0807 H         2 RES2    0.0000
     57 C24        5.9614   -2.9709    0.3887 C.3       2 RES2    0.0000
     58 H26        5.5562   -3.1504   -0.4844 H         2 RES2    0.0000
     59 C25        5.8051   -4.2323    1.2761 C.3       2 RES2    0.0000
     60 H27        5.0441   -4.7441    0.9301 H         2 RES2    0.0000
     61 C26        7.0155   -5.1865    1.3473 C.3       2 RES2    0.0000
     62 H28        7.8219   -4.6294    1.3066 H         2 RES2    0.0000
     63 C27        7.0455   -5.9213    2.6967 C.3       2 RES2    0.0000
     64 H29        6.2584   -6.4952    2.7944 H         2 RES2    0.0000
     65 C28        8.3315   -6.7284    2.8982 C.3       2 RES2    0.0000
     66 H30        8.9388   -6.5970    2.1533 H         2 RES2    0.0000
     67 H31        8.1336   -7.6742    2.9776 H         2 RES2    0.0000
     68 C29        8.9739   -6.1823    4.2476 C.3       2 RES2    0.0000
     69 H32        8.6409   -6.6617    5.0190 H         2 RES2    0.0000
     70 H33        9.9418   -6.2397    4.2272 H         2 RES2    0.0000
     71 C30        9.3103   -5.7566    3.3215 Du        3 SUP3    0.0000
     72 H34        9.6691   -5.2735    2.5563 Du        3 SUP3    0.0000
     73 H35       10.0399   -6.1805    3.7937 Du        3 SUP3    0.0000
     74 C31        8.5332   -4.7867    4.2639 C.3       2 RES2    0.0000
     75 H36        9.0625   -4.2480    3.6533 H         2 RES2    0.0000
     76 H37        8.6012   -4.4109    5.1553 H         2 RES2    0.0000
     77 C32        7.0834   -4.8515    3.8120 C.3       2 RES2    0.0000
     78 O7         6.7228   -3.5548    3.3460 O.3       2 RES2    0.0000
     79 N3         5.4467   -3.7631    2.6357 N.3       2 RES2    0.0000
     80 O8         6.2224   -5.2920    4.8480 O.3       2 RES2    0.0000
     81 C33        6.1441   -4.4045    5.9491 C.3       2 RES2    0.0000
     82 H38        6.9680   -4.4350    6.4416 H         2 RES2    0.0000
     83 H39        5.4191   -4.6654    6.5210 H         2 RES2    0.0000
     84 H40        5.9962   -3.5113    5.6295 H         2 RES2    0.0000
     85 N4         3.6392   -2.0046    0.5923 N.pl3     2 RES2    0.0000
     86 O9         2.7468   -2.4628    1.2598 O.2       2 RES2    0.0000
     87 O10        3.5241   -1.5141   -0.5088 O.2       2 RES2    0.0000
     88 C34        7.3632   -2.4424    0.1730 C.ar      2 RES2    0.0000
     89 C35        8.0449   -1.7224    1.1174 C.ar      2 RES2    0.0000
     90 H41        7.6193   -1.4827    1.9091 H         2 RES2    0.0000
     91 C36        9.3742   -1.3429    0.9037 C.ar      2 RES2    0.0000
     92 H42        9.8389   -0.8792    1.5610 H         2 RES2    0.0000
     93 C37        9.9894   -1.6557   -0.2829 C.ar      2 RES2    0.0000
     94 H43       10.8713   -1.4003   -0.4294 H         2 RES2    0.0000
     95 C38        9.3131   -2.3397   -1.2415 C.ar      2 RES2    0.0000
     96 H44        9.7354   -2.5562   -2.0414 H         2 RES2    0.0000
     97 C39        7.9927   -2.7173   -1.0339 C.ar      2 RES2    0.0000
     98 H45        7.5278   -3.1578   -1.7076 H         2 RES2    0.0000
     99 C40        7.0852   -6.1425    0.1730 C.ar      2 RES2    0.0000
    100 C41        8.1575   -6.1518   -0.6737 C.ar      2 RES2    0.0000
    101 H46        8.8387   -5.5308   -0.5536 H         2 RES2    0.0000
    102 C42        8.2467   -7.0708   -1.7076 C.ar      2 RES2    0.0000
    103 H47        8.9713   -7.0560   -2.2897 H         2 RES2    0.0000
    104 C43        7.2488   -8.0046   -1.8623 C.ar      2 RES2    0.0000
    105 H48        7.3037   -8.6432   -2.5380 H         2 RES2    0.0000
    106 C44        6.1853   -7.9861   -1.0217 C.ar      2 RES2    0.0000
    107 H49        5.5097   -8.6136   -1.1336 H         2 RES2    0.0000
    108 C45        6.0811   -7.0764   -0.0163 C.ar      2 RES2    0.0000
    109 H50        5.3369   -7.0819    0.5434 H         2 RES2    0.0000
@<TRIPOS>BOND
     1    1    2 1
     2    2    3 1
     3    4    2 1
     4    5    4 1
     5    6    4 1
     6    7    6 1
     7    8    6 1
     8    9    8 1
     9   10    8 1
    10   11   10 1
    11   12   10 1
    12   13   12 1
    13   14   12 1
    14   15   12 1
    15   16   15 1
    16   17   15 1
    17   18   15 1
    18   19   18 1
    19   20   18 1
    20   21   10 1
    21   22   21 1
    22   23    1 1
    23   24   21 1
    24   25   24 1
    25   26   25 1
    26   27   25 1
    27   28   25 1
    28   29    2 1
    29   30   29 2
    30   31   29 2
    31   32    4 1
    32   33   32 ar
    33   34   33 1
    34   35   33 ar
    35   36   35 1
    36   37   35 ar
    37   38   37 1
    38   39   37 ar
    39   40   39 1
    40   41   32 ar
    41   42   41 1
    42   43    8 1
    43   44   43 ar
    44   45   44 1
    45   46   44 ar
    46   47   46 1
    47   48   46 ar
    48   49   48 1
    49   50   48 ar
    50   51   50 1
    51   52   43 ar
    52   53   52 1
    53   54   55 1
    54   55   56 1
    55   57   55 1
    56   58   57 1
    57   59   57 1
    58   60   59 1
    59   61   59 1
    60   62   61 1
    61   63   61 1
    62   64   63 1
    63   65   63 1
    64   66   65 1
    65   67   65 1
    66   68   65 1
    67   69   68 1
    68   70   68 1
    69   74   68 1
    70   75   74 1
    71   76   74 1
    72   77   63 1
    73   78   77 1
    74   79   54 1
    75   80   77 1
    76   81   80 1
    77   82   81 1
    78   83   81 1
    79   84   81 1
    80   85   55 1
    81   86   85 2
    82   87   85 2
    83   88   57 1
    84   89   88 ar
    85   90   89 1
    86   91   89 ar
    87   92   91 1
    88   93   91 ar
    89   94   93 1
    90   95   93 ar
    91   96   95 1
    92   97   88 ar
    93   98   97 1
    94   99   61 1
    95  100   99 ar
    96  101  100 1
    97  102  100 ar
    98  103  102 1
    99  104  102 ar
   100  105  104 1
   101  106  104 ar
   102  107  106 1
   103  108   99 ar
   104  109  108 1
   105    6   23 1
   106   18   21 1
   107   22   23 1
   108   39   41 ar
   109   50   52 ar
   110   59   79 1
   111   74   77 1
   112   78   79 1
   113   95   97 ar
   114  106  108 ar
@<TRIPOS>SUBSTRUCTURE
     1 RES1 1
     2 RES2 54
     3 SUP3 71

@<TRIPOS>CRYSIN
  21.7190    9.2550   21.8210  90.0000 111.1390  90.0000  14 1

