# MOL2 file generated by ConQuest
# Please check atom types

@<TRIPOS>MOLECULE
GAHLEG10
    42    42     3
SMALL
USER_CHARGES
****
Generated from CSD

@<TRIPOS>ATOM
      1 O1         0.0000    0.0000   14.8279 O.2       1 RES1   -1.0000
      2 N1         0.0000    0.0000   16.1754 N.4       1 RES1    1.0000
      3 N2         0.0000    0.0000   18.7863 N.3       1 RES1    0.0000
      4 C1        -0.9448   -1.0414   16.6856 C.3       1 RES1    0.0000
      5 C2        -0.8466   -1.1051   18.2461 C.3       1 RES1    0.0000
      6 H1        -1.8773   -0.8288   16.4155 H         1 RES1    0.0000
      7 H2        -0.7178   -1.9233   16.3254 H         1 RES1    0.0000
      8 H3        -1.7669   -0.9989   18.6362 H         1 RES1    0.0000
      9 H4        -0.4785   -1.9552   18.5162 H         1 RES1    0.0000
     10 O2        -2.8037   -0.4782   23.0777 O.2       2 RES2   -1.0000
     11 N3        -2.7853    0.8713   22.8076 N.4       2 RES2    1.0000
     12 N4        -2.8344    3.3791   22.2074 N.3       2 RES2    0.0000
     13 C3        -2.2270    1.6471   23.9180 C.3       2 RES2    0.0000
     14 C4        -2.2699    3.1453   23.5879 C.3       2 RES2    0.0000
     15 C5        -2.0061    1.1370   21.5772 C.3       2 RES2    0.0000
     16 C6        -1.9877    2.6140   21.2771 C.3       2 RES2    0.0000
     17 C7        -4.1902    1.3495   22.5975 C.3       2 RES2    0.0000
     18 C8        -4.1657    2.7734   22.1474 C.3       2 RES2    0.0000
     19 H5        -2.7792    1.4770   24.7583 H         2 RES2    0.0000
     20 H6        -1.3190    1.3708   24.1280 H         2 RES2    0.0000
     21 H7        -2.8466    3.6341   24.2481 H         2 RES2    0.0000
     22 H8        -1.0859    0.8182   21.6972 H         2 RES2    0.0000
     23 H9        -2.4172    0.6588   20.8269 H         2 RES2    0.0000
     24 H10       -2.3252    2.7734   20.3768 H         2 RES2    0.0000
     25 H11       -4.6687    1.3070   23.4978 H         2 RES2    0.0000
     26 H12       -4.6503    0.7863   21.9673 H         2 RES2    0.0000
     27 H13       -4.7853    3.3154   22.7176 H         2 RES2    0.0000
     28 H14       -4.4908    2.8053   21.2171 H         2 RES2    0.0000
     29 H15       -2.6933    3.5172   23.6179 Du        3 SUP3    0.0000
     30 H16       -2.3374    2.9647   21.3371 Du        3 SUP3    0.0000
     31 C1C        1.3742   -0.2975   16.6856 C.3       1 RES1    0.0000
     32 C1D       -0.4294    1.3389   16.6856 C.3       1 RES1    0.0000
     33 C2C        1.3804   -0.1806   18.2461 C.3       1 RES1    0.0000
     34 C2D       -0.5337    1.2858   18.2461 C.3       1 RES1    0.0000
     35 H1C        1.6565   -1.2114   16.4155 H         1 RES1    0.0000
     36 H2C        2.0246    0.3400   16.3254 H         1 RES1    0.0000
     37 H1D        0.2209    2.0402   16.4155 H         1 RES1    0.0000
     38 H2D       -1.3068    1.5833   16.3254 H         1 RES1    0.0000
     39 H3C        1.7485   -1.0307   18.6362 H         1 RES1    0.0000
     40 H4C        1.9325    0.5632   18.5162 H         1 RES1    0.0000
     41 H3D        0.0184    2.0296   18.6362 H         1 RES1    0.0000
     42 H4D       -1.4540    1.3920   18.5162 H         1 RES1    0.0000
@<TRIPOS>BOND
     1    1    2 1
     2    2    4 1
     3    3    5 1
     4    4    5 1
     5    5    8 1
     6    6    4 1
     7    7    4 1
     8    9    5 1
     9   10   11 1
    10   11   13 1
    11   12   14 1
    12   13   14 1
    13   14   21 1
    14   15   11 1
    15   16   12 1
    16   17   11 1
    17   18   12 1
    18   19   13 1
    19   20   13 1
    20   22   15 1
    21   23   15 1
    22   24   16 1
    23   25   17 1
    24   26   17 1
    25   27   18 1
    26   28   18 1
    27   31    2 1
    28   32    2 1
    29   33    3 1
    30   34    3 1
    31   35   31 1
    32   36   31 1
    33   37   32 1
    34   38   32 1
    35   39   33 1
    36   40   33 1
    37   41   34 1
    38   42   34 1
    39   15   16 1
    40   17   18 1
    41   31   33 1
    42   32   34 1
@<TRIPOS>SUBSTRUCTURE
     1 RES1 1
     2 RES2 10
     3 SUP3 29

@<TRIPOS>CRYSIN
  12.2700   12.2700   30.0100  90.0000  90.0000 120.0000 236 1

