# MOL2 file generated by ConQuest
# Please check atom types

@<TRIPOS>MOLECULE
GAHPIO
    22    21     1
SMALL
NO_CHARGES
****
Generated from CSD

@<TRIPOS>ATOM
      1 O1        -3.9335    1.9888    6.1729 O.2       1 RES1    0.0000
      2 O2        -4.5287    1.3427    8.2298 O.3       1 RES1    0.0000
      3 O3        -2.2311    4.4865    6.6117 O.3       1 RES1    0.0000
      4 O4         0.0887    2.0984    7.6150 O.2       1 RES1    0.0000
      5 N1        -1.7269    3.2800    7.1071 N.am      1 RES1    0.0000
      6 C1        -3.7539    1.9373    7.3574 C.2       1 RES1    0.0000
      7 C2        -2.5819    2.6083    8.0727 C.3       1 RES1    0.0000
      8 C3        -3.0498    3.5523    9.1797 C.3       1 RES1    0.0000
      9 C4        -1.9255    4.3498    9.8102 C.3       1 RES1    0.0000
     10 C5        -0.3985    3.0912    7.0725 C.2       1 RES1    0.0000
     11 C6         0.4363    4.0986    6.3540 C.3       1 RES1    0.0000
     12 H1         0.3460    4.9205    6.7761 H         1 RES1    0.0000
     13 H2         1.3167    3.7433    6.2734 H         1 RES1    0.0000
     14 H3         0.1226    4.2695    5.4670 H         1 RES1    0.0000
     15 H4        -2.2104    4.9476   10.5779 H         1 RES1    0.0000
     16 H5        -1.2564    3.7541   10.1170 H         1 RES1    0.0000
     17 H6        -1.4201    4.9042    9.1849 H         1 RES1    0.0000
     18 H7        -2.0442    1.9205    8.4413 H         1 RES1    0.0000
     19 H8        -3.7216    4.1773    8.8288 H         1 RES1    0.0000
     20 H9        -3.5226    2.9783    9.8657 H         1 RES1    0.0000
     21 H10       -5.2550    0.9819    7.8548 H         1 RES1    0.0000
     22 H11       -2.6471    4.2424    5.8545 H         1 RES1    0.0000
@<TRIPOS>BOND
     1    1    6 2
     2    2    6 1
     3    3    5 1
     4    4   10 2
     5    5    7 1
     6    6    7 1
     7    7    8 1
     8    8    9 1
     9    9   15 1
    10   10    5 1
    11   11   10 1
    12   12   11 1
    13   13   11 1
    14   14   11 1
    15   16    9 1
    16   17    9 1
    17   18    7 1
    18   19    8 1
    19   20    8 1
    20   21    2 1
    21   22    3 1
@<TRIPOS>SUBSTRUCTURE
     1 RES1 1

@<TRIPOS>CRYSIN
  14.0030    5.4250   10.4950  90.0000  93.7000  90.0000  14 2

