# MOL2 file generated by ConQuest
# Please check atom types

@<TRIPOS>MOLECULE
GAHPEK
    25    24     1
SMALL
NO_CHARGES
****
Generated from CSD

@<TRIPOS>ATOM
      1 O1        -1.4687    3.7850    6.7167 O.2       1 RES1    0.0000
      2 O2        -1.1330    5.0124    8.5269 O.3       1 RES1    0.0000
      3 O3         0.8825    2.1339    6.0614 O.3       1 RES1    0.0000
      4 O4         2.9376    4.0915    8.0485 O.2       1 RES1    0.0000
      5 N1         1.2490    3.0741    7.0342 N.am      1 RES1    0.0000
      6 C1        -0.8633    4.0226    7.7022 C.2       1 RES1    0.0000
      7 C2         0.3267    3.1643    8.1487 C.3       1 RES1    0.0000
      8 C3        -0.1044    1.8033    8.6803 C.3       1 RES1    0.0000
      9 C4         1.1357    0.9905    9.0767 C.3       1 RES1    0.0000
     10 C5        -1.0757    1.9424    9.8268 C.3       1 RES1    0.0000
     11 C6         2.5740    3.3951    7.0992 C.2       1 RES1    0.0000
     12 C7         3.4394    2.8840    6.0124 C.3       1 RES1    0.0000
     13 H1         0.6403    3.6024    8.8007 H         1 RES1    0.0000
     14 H2        -0.3538    1.3776    7.8418 H         1 RES1    0.0000
     15 H3         3.5864    1.9080    6.0838 H         1 RES1    0.0000
     16 H4         3.2523    3.1340    5.0290 H         1 RES1    0.0000
     17 H5         4.1753    3.4164    6.1584 H         1 RES1    0.0000
     18 H6         1.6959    0.7439    8.1614 H         1 RES1    0.0000
     19 H7         0.8503    0.1998    9.3974 H         1 RES1    0.0000
     20 H8         1.4606    1.4809    9.9408 H         1 RES1    0.0000
     21 H9        -1.4142    1.0332   10.1752 H         1 RES1    0.0000
     22 H10       -0.7809    2.1491   10.7931 H         1 RES1    0.0000
     23 H11       -1.8820    2.3901    9.6105 H         1 RES1    0.0000
     24 H12       -1.8289    5.3726    7.9910 H         1 RES1    0.0000
     25 H13        0.7255    2.4935    5.4765 H         1 RES1    0.0000
@<TRIPOS>BOND
     1    1    6 2
     2    2    6 1
     3    3    5 1
     4    4   11 2
     5    5    7 1
     6    6    7 1
     7    7    8 1
     8    8    9 1
     9    9   18 1
    10   10    8 1
    11   11    5 1
    12   12   11 1
    13   13    7 1
    14   14    8 1
    15   15   12 1
    16   16   12 1
    17   17   12 1
    18   19    9 1
    19   20    9 1
    20   21   10 1
    21   22   10 1
    22   23   10 1
    23   24    2 1
    24   25    3 1
@<TRIPOS>SUBSTRUCTURE
     1 RES1 1

@<TRIPOS>CRYSIN
  12.5730    6.8880   10.8570  90.0000 101.0800  90.0000  14 2

