# MOL2 file generated by ConQuest
# Please check atom types

@<TRIPOS>MOLECULE
GAHTUF01
    58    60     1
SMALL
NO_CHARGES
****
Generated from CSD

@<TRIPOS>ATOM
      1 O1        -1.9967    3.2765    6.9382 O.2       1 RES1    0.0000
      2 O2         2.6019    5.0787   10.0858 O.2       1 RES1    0.0000
      3 O3         1.0190    6.3781    9.1779 O.3       1 RES1    0.0000
      4 O4         0.6223    3.2092    4.0112 O.2       1 RES1    0.0000
      5 O5        -0.7731    4.6941    3.4361 O.2       1 RES1    0.0000
      6 N1         0.1882    4.3389    4.0645 N.pl3     1 RES1    0.0000
      7 C1        -0.9547    3.0997    7.5347 C.2       1 RES1    0.0000
      8 C2        -0.2413    4.2216    8.1535 C.2       1 RES1    0.0000
      9 C3         0.9311    4.0620    8.7585 C.2       1 RES1    0.0000
     10 C4         1.6354    2.7445    8.8426 C.3       1 RES1    0.0000
     11 C5         1.0623    1.7431    7.8840 C.3       1 RES1    0.0000
     12 C6        -0.3515    1.7556    7.7200 C.3       1 RES1    0.0000
     13 C7         1.6131    5.2011    9.4263 C.2       1 RES1    0.0000
     14 C8         1.5757    7.5788    9.7814 C.3       1 RES1    0.0000
     15 C9         1.7377    8.6466    8.7063 C.3       1 RES1    0.0000
     16 C10        2.1842    9.9422    9.4199 C.3       1 RES1    0.0000
     17 C11        1.2275   10.3615   10.5127 C.3       1 RES1    0.0000
     18 C12        1.0649    9.2819   11.5736 C.3       1 RES1    0.0000
     19 C13        0.6236    7.9894   10.8811 C.3       1 RES1    0.0000
     20 C14        0.0820    9.6840   12.6685 C.3       1 RES1    0.0000
     21 C15        2.6806    8.2319    7.5325 C.3       1 RES1    0.0000
     22 C16        2.9154    9.4446    6.5867 C.3       1 RES1    0.0000
     23 C17        4.0537    7.7719    8.0566 C.3       1 RES1    0.0000
     24 C18        2.0229    7.1539    6.6542 C.ar      1 RES1    0.0000
     25 C19        0.7823    7.4073    6.0650 C.ar      1 RES1    0.0000
     26 C20        0.1790    6.5045    5.2191 C.ar      1 RES1    0.0000
     27 C21        0.8216    5.3059    4.9630 C.ar      1 RES1    0.0000
     28 C22        2.0459    5.0086    5.5067 C.ar      1 RES1    0.0000
     29 C23        2.6413    5.9412    6.3500 C.ar      1 RES1    0.0000
     30 H1        -0.6780    5.1980    8.1162 H         1 RES1    0.0000
     31 H2         2.6216    2.8838    8.6232 H         1 RES1    0.0000
     32 H3         1.5469    2.3815    9.7927 H         1 RES1    0.0000
     33 H4         1.4813    1.9136    6.9701 H         1 RES1    0.0000
     34 H5         1.3272    0.8136    8.2121 H         1 RES1    0.0000
     35 H6        -0.7685    1.3331    8.5487 H         1 RES1    0.0000
     36 H7        -0.5790    1.1923    6.9020 H         1 RES1    0.0000
     37 H8         2.4872    7.3635   10.1847 H         1 RES1    0.0000
     38 H9         0.7600    8.8312    8.2845 H         1 RES1    0.0000
     39 H10        3.0498    9.7966    9.8098 H         1 RES1    0.0000
     40 H11        2.2400   10.6479    8.7723 H         1 RES1    0.0000
     41 H12        1.5849   11.2080   10.9558 H         1 RES1    0.0000
     42 H13        0.3167   10.5540   10.0952 H         1 RES1    0.0000
     43 H14        1.9213    9.1270   11.9805 H         1 RES1    0.0000
     44 H15       -0.2479    8.1240   10.5021 H         1 RES1    0.0000
     45 H16        0.5836    7.2869   11.5331 H         1 RES1    0.0000
     46 H17        0.3731   10.5039   13.0733 H         1 RES1    0.0000
     47 H18       -0.7902    9.8076   12.2872 H         1 RES1    0.0000
     48 H19        0.0459    8.9940   13.3353 H         1 RES1    0.0000
     49 H20        3.5252   10.0595    7.0000 H         1 RES1    0.0000
     50 H21        3.2859    9.1363    5.7559 H         1 RES1    0.0000
     51 H22        2.0800    9.8858    6.4205 H         1 RES1    0.0000
     52 H23        3.9626    6.9191    8.4869 H         1 RES1    0.0000
     53 H24        4.6675    7.6968    7.3216 H         1 RES1    0.0000
     54 H25        4.3875    8.4150    8.6871 H         1 RES1    0.0000
     55 H26        0.2957    8.3149    6.2714 H         1 RES1    0.0000
     56 H27       -0.7233    6.7126    4.7909 H         1 RES1    0.0000
     57 H28        2.5180    4.1074    5.2936 H         1 RES1    0.0000
     58 H29        3.5888    5.7253    6.7720 H         1 RES1    0.0000
@<TRIPOS>BOND
     1    1    7 2
     2    2   13 2
     3    3   13 1
     4    4    6 2
     5    5    6 2
     6    6   27 1
     7    7    8 1
     8    8    9 2
     9    9   10 1
    10   10   11 1
    11   11   12 1
    12   12    7 1
    13   13    9 1
    14   14    3 1
    15   15   14 1
    16   16   15 1
    17   17   16 1
    18   18   17 1
    19   19   14 1
    20   20   18 1
    21   21   15 1
    22   22   21 1
    23   23   21 1
    24   24   21 1
    25   25   24 ar
    26   26   25 ar
    27   27   26 ar
    28   28   27 ar
    29   29   24 ar
    30   30    8 1
    31   31   10 1
    32   32   10 1
    33   33   11 1
    34   34   11 1
    35   35   12 1
    36   36   12 1
    37   37   14 1
    38   38   15 1
    39   39   16 1
    40   40   16 1
    41   41   17 1
    42   42   17 1
    43   43   18 1
    44   44   19 1
    45   45   19 1
    46   46   20 1
    47   47   20 1
    48   48   20 1
    49   49   22 1
    50   50   22 1
    51   51   22 1
    52   52   23 1
    53   53   23 1
    54   54   23 1
    55   55   25 1
    56   56   26 1
    57   57   28 1
    58   58   29 1
    59   18   19 1
    60   28   29 ar
@<TRIPOS>SUBSTRUCTURE
     1 RES1 1

@<TRIPOS>CRYSIN
   6.5573   15.6471   21.3024  90.0000  90.0000  90.0000  19 1

