# MOL2 file generated by ConQuest
# Please check atom types

@<TRIPOS>MOLECULE
GAHVIX
    35    37     1
SMALL
NO_CHARGES
****
Generated from CSD

@<TRIPOS>ATOM
      1 O1         4.1637    2.1866    4.3038 O.3       1 RES1    0.0000
      2 O2         5.1680    1.2158    6.6234 O.2       1 RES1    0.0000
      3 O3         5.8074   -0.7583    6.0034 O.2       1 RES1    0.0000
      4 N1        10.1979    0.0610    3.3552 N.pl3     1 RES1    0.0000
      5 H1        10.0584   -0.1823    4.1676 H         1 RES1    0.0000
      6 N2         9.8263    0.9829    1.3492 N.2       1 RES1    0.0000
      7 N3         5.6728    0.4484    5.8198 N.pl3     1 RES1    0.0000
      8 C1        11.3447   -0.1581    2.6173 C.ar      1 RES1    0.0000
      9 C2        11.1069    0.4180    1.3657 C.ar      1 RES1    0.0000
     10 C3        12.0649    0.3347    0.3526 C.ar      1 RES1    0.0000
     11 H2        11.9169    0.7062   -0.4870 H         1 RES1    0.0000
     12 C4        13.2417   -0.3207    0.6503 C.ar      1 RES1    0.0000
     13 H3        13.8945   -0.3987   -0.0074 H         1 RES1    0.0000
     14 C5        13.4801   -0.8727    1.9179 C.ar      1 RES1    0.0000
     15 H4        14.2915   -1.2951    2.0838 H         1 RES1    0.0000
     16 C6        12.5399   -0.8044    2.9195 C.ar      1 RES1    0.0000
     17 H5        12.6950   -1.1724    3.7597 H         1 RES1    0.0000
     18 C7         9.3293    0.7362    2.5509 C.2       1 RES1    0.0000
     19 C8         7.9843    1.1190    2.9857 C.ar      1 RES1    0.0000
     20 C9         7.2281    2.0390    2.2608 C.ar      1 RES1    0.0000
     21 H6         7.5830    2.3965    1.4793 H         1 RES1    0.0000
     22 C10        5.9654    2.4368    2.6689 C.ar      1 RES1    0.0000
     23 H7         5.4879    3.0546    2.1628 H         1 RES1    0.0000
     24 C11        5.4082    1.9146    3.8348 C.ar      1 RES1    0.0000
     25 C12        6.1801    1.0061    4.5634 C.ar      1 RES1    0.0000
     26 C13        7.4226    0.5906    4.1485 C.ar      1 RES1    0.0000
     27 H8         7.8897   -0.0429    4.6436 H         1 RES1    0.0000
     28 C14        3.3578    3.1439    3.5890 C.3       1 RES1    0.0000
     29 H9         2.4298    3.0379    3.8516 H         1 RES1    0.0000
     30 H10        3.4208    2.9652    2.6369 H         1 RES1    0.0000
     31 C15        3.7862    4.5512    3.8549 C.2       1 RES1    0.0000
     32 H11        3.3604    5.2268    3.3793 H         1 RES1    0.0000
     33 C16        4.7238    4.9087    4.7132 C.2       1 RES1    0.0000
     34 H12        5.1733    4.2620    5.2077 H         1 RES1    0.0000
     35 H13        4.9350    5.8077    4.8236 H         1 RES1    0.0000
@<TRIPOS>BOND
     1    1   24 1
     2    2    7 2
     3    3    7 2
     4    4    5 1
     5    6    9 1
     6    7   25 1
     7    8    4 1
     8    9    8 ar
     9   10    9 ar
    10   11   10 1
    11   12   10 ar
    12   13   12 1
    13   14   12 ar
    14   15   14 1
    15   16    8 ar
    16   17   16 1
    17   18    4 1
    18   19   18 1
    19   20   19 ar
    20   21   20 1
    21   22   20 ar
    22   23   22 1
    23   24   22 ar
    24   25   24 ar
    25   26   19 ar
    26   27   26 1
    27   28    1 1
    28   29   28 1
    29   30   28 1
    30   31   28 1
    31   32   31 1
    32   33   31 2
    33   34   33 1
    34   35   33 1
    35    6   18 2
    36   14   16 ar
    37   25   26 ar
@<TRIPOS>SUBSTRUCTURE
     1 RES1 1

@<TRIPOS>CRYSIN
   8.7624    8.7624   18.3758  90.0000  90.0000  90.0000  78 1

