# MOL2 file generated by ConQuest
# Please check atom types

@<TRIPOS>MOLECULE
GAHYOD
    22    24     1
SMALL
NO_CHARGES
****
Generated from CSD

@<TRIPOS>ATOM
      1 C1        -2.6007    2.8964    8.5042 C.3       1 RES1    0.0000
      2 C2        -2.3605    4.2065    9.2486 C.3       1 RES1    0.0000
      3 C3        -1.1779    3.3698    8.8659 C.3       1 RES1    0.0000
      4 C4        -3.1029    1.7746    9.2779 C.1       1 RES1    0.0000
      5 N1        -3.5015    0.8761    9.8408 N.1       1 RES1    0.0000
      6 C5        -3.1109    2.8742    7.0892 C.ar      1 RES1    0.0000
      7 C6        -2.7208    1.8650    6.2348 C.ar      1 RES1    0.0000
      8 C7        -3.2234    1.8162    4.9509 C.ar      1 RES1    0.0000
      9 C8        -4.0907    2.7617    4.4979 C.ar      1 RES1    0.0000
     10 C9        -4.4769    3.7545    5.3312 C.ar      1 RES1    0.0000
     11 C10       -3.9962    3.8209    6.6257 C.ar      1 RES1    0.0000
     12 C11       -2.7887    4.4317   10.6601 C.ar      1 RES1    0.0000
     13 C12       -4.0615    4.0995   11.0885 C.ar      1 RES1    0.0000
     14 C13       -4.4757    4.3718   12.3748 C.ar      1 RES1    0.0000
     15 C14       -3.6130    4.9877   13.2690 C.ar      1 RES1    0.0000
     16 C15       -2.3573    5.3222   12.8254 C.ar      1 RES1    0.0000
     17 C16       -1.9247    5.0575   11.5461 C.ar      1 RES1    0.0000
     18 N2        -1.4302    6.0039   13.7453 N.pl3     1 RES1    0.0000
     19 O1        -1.8286    6.2558   14.8631 O.2       1 RES1    0.0000
     20 O2        -0.3161    6.2937   13.3579 O.2       1 RES1    0.0000
     21 C17       -0.4337    2.6082    9.9251 C.3       1 RES1    0.0000
     22 C18       -0.3269    3.8540    7.7177 C.3       1 RES1    0.0000
@<TRIPOS>BOND
     1    1    2 1
     2    2    3 1
     3    3    1 1
     4    4    1 1
     5    5    4 3
     6    6    1 1
     7    7    6 ar
     8    8    7 ar
     9    9    8 ar
    10   10    9 ar
    11   11    6 ar
    12   12    2 1
    13   13   12 ar
    14   14   13 ar
    15   15   14 ar
    16   16   15 ar
    17   17   12 ar
    18   18   16 1
    19   19   18 2
    20   20   18 2
    21   21    3 1
    22   22    3 1
    23   10   11 ar
    24   16   17 ar
@<TRIPOS>SUBSTRUCTURE
     1 RES1 1

@<TRIPOS>CRYSIN
   7.2280    9.8370   11.9900  78.9800  98.9600 107.5700   2 1

