# MOL2 file generated by ConQuest
# Please check atom types

@<TRIPOS>MOLECULE
GAHYIX
    41    45     1
SMALL
NO_CHARGES
****
Generated from CSD

@<TRIPOS>ATOM
      1 C1         3.0358    5.5638    7.5705 C.3       1 RES1    0.0000
      2 C2         2.9587    4.0692    7.3639 C.3       1 RES1    0.0000
      3 O1         1.9539    3.8663    6.3808 O.3       1 RES1    0.0000
      4 N1         2.2197    2.5166    5.8819 N.3       1 RES1    0.0000
      5 C3         3.6893    2.5280    5.6123 C.3       1 RES1    0.0000
      6 C4         4.2386    3.4275    6.7620 C.3       1 RES1    0.0000
      7 C5         5.2527    4.4265    6.2480 C.2       1 RES1    0.0000
      8 O2         6.2157    4.0902    5.6084 O.2       1 RES1    0.0000
      9 C6         5.0036    5.8747    6.5595 C.3       1 RES1    0.0000
     10 O3         5.2732    6.0805    7.9582 O.3       1 RES1    0.0000
     11 C7         4.0118    5.9223    8.6734 C.3       1 RES1    0.0000
     12 O4         3.6512    6.1723    6.3935 O.3       1 RES1    0.0000
     13 C8         4.2753    1.1481    5.5863 C.ar      1 RES1    0.0000
     14 C9         3.7775    0.1249    6.3935 C.ar      1 RES1    0.0000
     15 C10        4.3067   -1.1621    6.2940 C.ar      1 RES1    0.0000
     16 C11        5.3336   -1.4258    5.3873 C.ar      1 RES1    0.0000
     17 C12        5.8313   -0.4026    4.5803 C.ar      1 RES1    0.0000
     18 C13        5.3023    0.8843    4.6796 C.ar      1 RES1    0.0000
     19 C14        1.3502    2.3136    4.7537 C.ar      1 RES1    0.0000
     20 C15        0.1543    3.0255    4.6603 C.ar      1 RES1    0.0000
     21 C16       -0.7342    2.7630    3.6175 C.ar      1 RES1    0.0000
     22 C17       -0.4268    1.7884    2.6681 C.ar      1 RES1    0.0000
     23 C18        0.7691    1.0764    2.7612 C.ar      1 RES1    0.0000
     24 C19        1.6576    1.3390    3.8043 C.ar      1 RES1    0.0000
     25 H1         2.0310    5.8957    7.7828 H         1 RES1    0.0000
     26 H2         2.7867    3.6222    8.3317 H         1 RES1    0.0000
     27 H3         3.9440    2.9141    4.6361 H         1 RES1    0.0000
     28 H4         4.7898    2.8831    7.5136 H         1 RES1    0.0000
     29 H5         5.6217    6.4788    5.9123 H         1 RES1    0.0000
     30 H6         3.7237    6.8406    9.1633 H         1 RES1    0.0000
     31 H7         4.0825    5.1301    9.4037 H         1 RES1    0.0000
     32 H8         2.9828    0.3286    7.0948 H         1 RES1    0.0000
     33 H9         3.9216   -1.9538    6.9179 H         1 RES1    0.0000
     34 H10        5.7435   -2.4218    5.3105 H         1 RES1    0.0000
     35 H11        6.6265   -0.6074    3.8785 H         1 RES1    0.0000
     36 H12        5.6877    1.6761    4.0555 H         1 RES1    0.0000
     37 H13       -0.0837    3.7804    5.3952 H         1 RES1    0.0000
     38 H14       -1.6601    3.3146    3.5459 H         1 RES1    0.0000
     39 H15       -1.1145    1.5854    1.8599 H         1 RES1    0.0000
     40 H16        1.0067    0.3219    2.0262 H         1 RES1    0.0000
     41 H17        2.5831    0.7877    3.8755 H         1 RES1    0.0000
@<TRIPOS>BOND
     1    1    2 1
     2    2    3 1
     3    3    4 1
     4    4    5 1
     5    5    6 1
     6    6    2 1
     7    7    6 1
     8    8    7 2
     9    9    7 1
    10   10    9 1
    11   11    1 1
    12   12    1 1
    13   13    5 1
    14   14   13 ar
    15   15   14 ar
    16   16   15 ar
    17   17   16 ar
    18   18   13 ar
    19   19    4 1
    20   20   19 ar
    21   21   20 ar
    22   22   21 ar
    23   23   22 ar
    24   24   19 ar
    25   25    1 1
    26   26    2 1
    27   27    5 1
    28   28    6 1
    29   29    9 1
    30   30   11 1
    31   31   11 1
    32   32   14 1
    33   33   15 1
    34   34   16 1
    35   35   17 1
    36   36   18 1
    37   37   20 1
    38   38   21 1
    39   39   22 1
    40   40   23 1
    41   41   24 1
    42    9   12 1
    43   10   11 1
    44   17   18 ar
    45   23   24 ar
@<TRIPOS>SUBSTRUCTURE
     1 RES1 1

@<TRIPOS>CRYSIN
   9.2952   11.0635   15.1210  90.0000  90.0000  90.0000  19 1

