# MOL2 file generated by ConQuest
# Please check atom types

@<TRIPOS>MOLECULE
GAKHOS
    95    58     2
SMALL
NO_CHARGES
****
Generated from CSD

@<TRIPOS>ATOM
      1 C1         6.5330    3.5446    8.0691 C.2       1 RES1    0.0000
      2 C2         6.1782    3.1823    9.3224 C.2       1 RES1    0.0000
      3 C3         7.1951    3.2291   10.4523 C.3       1 RES1    0.0000
      4 H1         6.7366    3.5160   11.2698 H         1 RES1    0.0000
      5 C4         8.2841    4.2401   10.1313 C.2       1 RES1    0.0000
      6 C5         8.6149    4.5139    8.8458 C.2       1 RES1    0.0000
      7 C6         8.8920    4.8811   11.2802 C.2       1 RES1    0.0000
      8 C7         4.8225    2.7104    9.6357 C.2       1 RES1    0.0000
      9 C8         5.6705    3.5505    6.8385 C.3       1 RES1    0.0000
     10 H2         4.9481    2.9291    6.9512 H         1 RES1    0.0000
     11 H3         6.1968    3.2959    6.0771 H         1 RES1    0.0000
     12 H4         5.3151    4.4312    6.7015 H         1 RES1    0.0000
     13 C9         9.7749    5.3083    8.3351 C.3       1 RES1    0.0000
     14 H5         9.5906    6.2451    8.4353 H         1 RES1    0.0000
     15 H6         9.9161    5.1080    7.4072 H         1 RES1    0.0000
     16 H7        10.5628    5.0823    8.8346 H         1 RES1    0.0000
     17 N1         7.7992    4.0286    7.8472 N.pl3     1 RES1    0.0000
     18 C10        7.8062    1.8491   10.7004 C.ar      1 RES1    0.0000
     19 O1         6.8206    2.5366   13.3811 O.2       1 RES1    0.0000
     20 O2         6.3892    0.4981   13.6446 O.2       1 RES1    0.0000
     21 O3         9.7263   -0.5337    8.7141 O.3       1 RES1    0.0000
     22 O4         9.8834   -1.7681   11.0912 O.3       1 RES1    0.0000
     23 N2         6.9425    1.3958   13.0414 N.pl3     1 RES1    0.0000
     24 C11        7.7442    1.0656   11.8448 C.ar      1 RES1    0.0000
     25 C12        8.3455   -0.1724   12.0249 C.ar      1 RES1    0.0000
     26 H8         8.1948   -0.6749   12.7930 H         1 RES1    0.0000
     27 C13        9.1660   -0.6273   11.0316 C.ar      1 RES1    0.0000
     28 C14        9.1152    0.0275    9.7959 C.ar      1 RES1    0.0000
     29 C15        8.4848    1.2472    9.6434 C.ar      1 RES1    0.0000
     30 H9         8.5147    1.6745    8.8172 H         1 RES1    0.0000
     31 C16       10.0570    0.1541    7.5088 C.3       1 RES1    0.0000
     32 H10        9.2506    0.4347    7.0688 H         1 RES1    0.0000
     33 H11       10.5506   -0.4310    6.9294 H         1 RES1    0.0000
     34 H12       10.5910    0.9244    7.7165 H         1 RES1    0.0000
     35 C17       10.1254   -2.3880   12.3139 C.3       1 RES1    0.0000
     36 H13       10.6357   -1.8011   12.8758 H         1 RES1    0.0000
     37 H14       10.6182   -3.2005   12.1701 H         1 RES1    0.0000
     38 H15        9.2902   -2.5934   12.7408 H         1 RES1    0.0000
     39 O5        10.0271    5.5592   10.9895 O.3       1 RES1    0.0000
     40 O6         8.5414    4.8659   12.4344 O.2       1 RES1    0.0000
     41 C18       10.7238    6.3607   11.9712 C.3       1 RES1    0.0000
     42 H16       11.6349    6.0342   12.0423 H         1 RES1    0.0000
     43 H17       10.2994    6.2268   12.8337 H         1 RES1    0.0000
     44 C19       10.7698    7.8224   11.6924 C.3       1 RES1    0.0000
     45 H18       11.1423    7.9710   10.8196 H         1 RES1    0.0000
     46 H19       11.3157    8.2571   12.3516 H         1 RES1    0.0000
     47 H20        9.8800    8.1838   11.7257 H         1 RES1    0.0000
     48 C20        3.2322    2.0487   11.2538 C.3       1 RES1    0.0000
     49 H21        2.5347    2.5054   10.7586 H         1 RES1    0.0000
     50 H22        3.1916    1.0986   11.0563 H         1 RES1    0.0000
     51 C21        3.1070    2.2871   12.6609 C.3       1 RES1    0.0000
     52 H23        3.8205    1.8433   13.1256 H         1 RES1    0.0000
     53 H24        2.2643    1.9478   12.9688 H         1 RES1    0.0000
     54 H25        3.1527    3.2317   12.8293 H         1 RES1    0.0000
     55 O7         4.5483    2.5953   10.9344 O.3       1 RES1    0.0000
     56 O8         4.0434    2.3715    8.7576 O.2       1 RES1    0.0000
     57 H26        8.0586    4.2129    7.0079 H         1 RES1    0.0000
     58 O9         6.3215    2.4577   13.0994 Du        2 SUP2    0.0000
     59 O10        7.9630    1.5993   14.1406 Du        2 SUP2    0.0000
     60 O11       10.0466   -0.5521    8.8128 Du        2 SUP2    0.0000
     61 O12        9.7533   -1.8781   10.8414 Du        2 SUP2    0.0000
     62 N3         7.3298    1.8176   13.1212 Du        2 SUP2    0.0000
     63 C22        7.8501    1.1683   11.9044 Du        2 SUP2    0.0000
     64 C23        8.5533   -0.0275   11.9653 Du        2 SUP2    0.0000
     65 H27        8.6950   -0.4182   12.7989 Du        2 SUP2    0.0000
     66 C24        9.0561   -0.6658   10.8487 Du        2 SUP2    0.0000
     67 C25        9.2041    0.0770    9.6725 Du        2 SUP2    0.0000
     68 C26        8.5325    1.2894    9.6565 Du        2 SUP2    0.0000
     69 H28        8.5694    1.7772    8.8666 Du        2 SUP2    0.0000
     70 C27       10.1362    0.2604    7.6439 Du        2 SUP2    0.0000
     71 H29        9.2634    0.3521    7.2533 Du        2 SUP2    0.0000
     72 H30       10.7271   -0.1522    7.0093 Du        2 SUP2    0.0000
     73 H31       10.4750    1.1261    7.8806 Du        2 SUP2    0.0000
     74 C28       10.0715   -2.3238   12.2412 Du        2 SUP2    0.0000
     75 H32       10.4875   -1.6030   12.7190 Du        2 SUP2    0.0000
     76 H33       10.6700   -3.0740   12.2093 Du        2 SUP2    0.0000
     77 H34        9.2621   -2.5787   12.6885 Du        2 SUP2    0.0000
     78 O13        9.6101    5.9645   11.0273 Du        2 SUP2    0.0000
     79 O14        8.6196    4.4624   12.3806 Du        2 SUP2    0.0000
     80 C29       10.1004    6.6816   12.1962 Du        2 SUP2    0.0000
     81 H35       10.6114    6.1021   12.7829 Du        2 SUP2    0.0000
     82 H36        9.3747    7.0870   12.6972 Du        2 SUP2    0.0000
     83 C30       10.9652    7.7124   11.5588 Du        2 SUP2    0.0000
     84 H37       11.7390    7.2905   11.1798 Du        2 SUP2    0.0000
     85 H38       11.2406    8.3525   12.2180 Du        2 SUP2    0.0000
     86 H39       10.4727    8.1581   10.8661 Du        2 SUP2    0.0000
     87 C31        3.4740    2.0652   11.5123 Du        2 SUP2    0.0000
     88 H40        2.8267    2.7512   11.2959 Du        2 SUP2    0.0000
     89 H41        3.1924    1.2435   11.0825 Du        2 SUP2    0.0000
     90 C32        3.4756    1.8634   12.9237 Du        2 SUP2    0.0000
     91 H42        4.0233    1.1060   13.1401 Du        2 SUP2    0.0000
     92 H43        2.5759    1.7020   13.2214 Du        2 SUP2    0.0000
     93 H44        3.8209    2.6448   13.3594 Du        2 SUP2    0.0000
     94 O15        4.7707    2.4577   10.9576 Du        2 SUP2    0.0000
     95 O16        3.8014    2.6594    8.9914 Du        2 SUP2    0.0000
@<TRIPOS>BOND
     1    1    2 2
     2    2    3 1
     3    3    4 1
     4    5    3 1
     5    6    5 2
     6    7    5 1
     7    8    2 1
     8    9    1 1
     9   10    9 1
    10   11    9 1
    11   12    9 1
    12   13    6 1
    13   14   13 1
    14   15   13 1
    15   16   13 1
    16   17    1 1
    17   18    3 1
    18   19   23 2
    19   20   23 2
    20   21   28 1
    21   22   27 1
    22   23   24 1
    23   24   18 ar
    24   25   24 ar
    25   26   25 1
    26   27   25 ar
    27   28   27 ar
    28   29   18 ar
    29   30   29 1
    30   31   21 1
    31   32   31 1
    32   33   31 1
    33   34   31 1
    34   35   22 1
    35   36   35 1
    36   37   35 1
    37   38   35 1
    38   39    7 1
    39   40    7 2
    40   41   39 1
    41   42   41 1
    42   43   41 1
    43   44   41 1
    44   45   44 1
    45   46   44 1
    46   47   44 1
    47   48   49 1
    48   50   48 1
    49   51   48 1
    50   52   51 1
    51   53   51 1
    52   54   51 1
    53   55    8 1
    54   56    8 2
    55   57   17 1
    56    6   17 1
    57   28   29 ar
    58   48   55 1
@<TRIPOS>SUBSTRUCTURE
     1 RES1 1
     2 SUP2 58

@<TRIPOS>CRYSIN
   8.2977   18.3410   14.5295  90.0000  91.9540  90.0000  14 1

