# MOL2 file generated by ConQuest
# Please check atom types

@<TRIPOS>MOLECULE
GAKJOR
    40    41     1
SMALL
NO_CHARGES
****
Generated from CSD

@<TRIPOS>ATOM
      1 O1         3.3692    6.9794   11.1215 O.3       1 RES1    0.0000
      2 C1         3.6623    5.6074   10.9704 C.3       1 RES1    0.0000
      3 C2         4.4878    5.3143    9.7253 C.3       1 RES1    0.0000
      4 C3         3.6295    5.8260    8.5572 C.3       1 RES1    0.0000
      5 C4         3.1516    7.2647    8.7069 C.3       1 RES1    0.0000
      6 C5         2.5156    7.4310   10.0624 C.3       1 RES1    0.0000
      7 O2         4.4246    5.2583   12.1210 O.3       1 RES1    0.0000
      8 C6         3.7392    4.9059   13.2383 C.2       1 RES1    0.0000
      9 O3         2.5376    4.8706   13.3153 O.2       1 RES1    0.0000
     10 C7         4.6775    4.4710   14.3293 C.ar      1 RES1    0.0000
     11 C8         4.1426    4.0414   15.5250 C.ar      1 RES1    0.0000
     12 C9         4.9642    3.5243   16.5159 C.ar      1 RES1    0.0000
     13 C10        6.3252    3.4596   16.2761 C.ar      1 RES1    0.0000
     14 C11        6.8990    3.9159   15.1240 C.ar      1 RES1    0.0000
     15 C12        6.0701    4.4300   14.1376 C.ar      1 RES1    0.0000
     16 N1         7.2029    2.8185   17.2946 N.pl3     1 RES1    0.0000
     17 O4         8.3582    2.5517   16.9706 O.2       1 RES1    0.0000
     18 O5         6.7161    2.6148   18.4017 O.2       1 RES1    0.0000
     19 C13        2.1854    7.6754    7.5969 C.3       1 RES1    0.0000
     20 C14        5.8382    6.0321    9.7863 C.3       1 RES1    0.0000
     21 C15        4.7082    3.8063    9.5887 C.3       1 RES1    0.0000
     22 H1         2.8480    5.1071   10.8789 H         1 RES1    0.0000
     23 H2         2.8574    5.2599    8.4817 H         1 RES1    0.0000
     24 H3         4.1499    5.7641    7.7523 H         1 RES1    0.0000
     25 H4         3.9125    7.8450    8.6284 H         1 RES1    0.0000
     26 H5         1.7007    6.9243   10.0856 H         1 RES1    0.0000
     27 H6         2.3184    8.3600   10.1989 H         1 RES1    0.0000
     28 H7         3.1958    4.1004   15.6718 H         1 RES1    0.0000
     29 H8         4.5973    3.2195   17.3498 H         1 RES1    0.0000
     30 H9         7.4893    3.1288   14.9991 H         1 RES1    0.0000
     31 H10        6.4493    4.7600   13.3196 H         1 RES1    0.0000
     32 H11        2.5762    7.5350    6.7310 H         1 RES1    0.0000
     33 H12        1.9772    8.6060    7.7073 H         1 RES1    0.0000
     34 H13        1.3811    7.1563    7.6724 H         1 RES1    0.0000
     35 H14        5.7610    6.9739    9.9592 H         1 RES1    0.0000
     36 H15        6.3073    5.8967    8.9597 H         1 RES1    0.0000
     37 H16        6.3232    5.6145   10.5026 H         1 RES1    0.0000
     38 H17        5.2567    3.5284   10.3268 H         1 RES1    0.0000
     39 H18        5.1543    3.6012    8.7635 H         1 RES1    0.0000
     40 H19        3.8680    3.3441    9.6221 H         1 RES1    0.0000
@<TRIPOS>BOND
     1    1    2 1
     2    2    3 1
     3    3    4 1
     4    4    5 1
     5    5    6 1
     6    6    1 1
     7    7    2 1
     8    8    7 1
     9    9    8 2
    10   10    8 1
    11   11   10 ar
    12   12   11 ar
    13   13   12 ar
    14   14   13 ar
    15   15   10 ar
    16   16   13 1
    17   17   16 2
    18   18   16 2
    19   19    5 1
    20   20    3 1
    21   21    3 1
    22   22    2 1
    23   23    4 1
    24   24    4 1
    25   25    5 1
    26   26    6 1
    27   27    6 1
    28   28   11 1
    29   29   12 1
    30   30   14 1
    31   31   15 1
    32   32   19 1
    33   33   19 1
    34   34   19 1
    35   35   20 1
    36   36   20 1
    37   37   20 1
    38   38   21 1
    39   39   21 1
    40   40   21 1
    41   14   15 ar
@<TRIPOS>SUBSTRUCTURE
     1 RES1 1

@<TRIPOS>CRYSIN
   7.0150    8.3410   14.7440  80.3400  87.3700  64.3700   2 1

