# MOL2 file generated by ConQuest
# Please check atom types

@<TRIPOS>MOLECULE
GAKMEN
   102   108     2
SMALL
NO_CHARGES
****
Generated from CSD

@<TRIPOS>ATOM
      1 C1         4.2943    6.1703    6.3592 C.3       1 RES1    0.0000
      2 H1         5.1469    6.3485    6.7625 H         1 RES1    0.0000
      3 H2         4.0972    5.2324    6.4248 H         1 RES1    0.0000
      4 H3         3.6143    6.6717    6.8141 H         1 RES1    0.0000
      5 C2         4.6011    8.3596    3.6878 C.2       1 RES1    0.0000
      6 C3         4.1554    7.5648    2.5708 C.2       1 RES1    0.0000
      7 H4         3.8946    6.6827    2.7090 H         1 RES1    0.0000
      8 C4         4.1139    8.0748    1.3514 C.2       1 RES1    0.0000
      9 H5         3.8114    7.5198    0.6700 H         1 RES1    0.0000
     10 C5         4.5135    9.4785    0.9709 C.3       1 RES1    0.0000
     11 C6         4.9443   10.2647    2.2183 C.2       1 RES1    0.0000
     12 C7         4.9947    9.7647    3.4639 C.2       1 RES1    0.0000
     13 C8         5.5022   10.5319    4.6649 C.3       1 RES1    0.0000
     14 H6         5.1580   10.1111    5.4679 H         1 RES1    0.0000
     15 H7         5.1429   11.4316    4.6308 H         1 RES1    0.0000
     16 C9         7.0150   10.6189    4.7751 C.ar      1 RES1    0.0000
     17 C10        7.8473    9.6992    4.1646 C.ar      1 RES1    0.0000
     18 H8         7.4786    9.0171    3.6528 H         1 RES1    0.0000
     19 C11        9.2342    9.7818    4.3054 C.ar      1 RES1    0.0000
     20 H9         9.7854    9.1635    3.8846 H         1 RES1    0.0000
     21 C12        9.7744   10.7802    5.0690 C.ar      1 RES1    0.0000
     22 H10       10.6964   10.8266    5.1810 H         1 RES1    0.0000
     23 C13        8.9668   11.7137    5.6708 C.ar      1 RES1    0.0000
     24 H11        9.3399   12.3930    6.1860 H         1 RES1    0.0000
     25 C14        7.5934   11.6377    5.5064 C.ar      1 RES1    0.0000
     26 H12        7.0503   12.2853    5.8956 H         1 RES1    0.0000
     27 C15        5.4711   11.6040    1.7591 C.3       1 RES1    0.0000
     28 H13        4.7912   12.0090    1.1800 H         1 RES1    0.0000
     29 C16        6.7141   11.4131    0.9368 C.3       1 RES1    0.0000
     30 H14        7.3334   10.8460    1.4415 H         1 RES1    0.0000
     31 C17        6.3669   10.7031   -0.3674 C.3       1 RES1    0.0000
     32 H15        5.7738   11.2576   -0.8992 H         1 RES1    0.0000
     33 H16        7.1729   10.5366   -0.8800 H         1 RES1    0.0000
     34 C18        5.6817    9.3829   -0.0245 C.3       1 RES1    0.0000
     35 H17        6.3470    8.7795    0.3420 H         1 RES1    0.0000
     36 H18        5.3515    8.9867   -0.8467 H         1 RES1    0.0000
     37 C19        7.2725   12.8353    0.9211 C.3       1 RES1    0.0000
     38 H19        6.7898   13.3434    0.2370 H         1 RES1    0.0000
     39 C20        8.7332   13.0099    0.6849 C.3       1 RES1    0.0000
     40 H20        8.9599   13.9401    0.7575 H         1 RES1    0.0000
     41 H21        8.9546   12.6941   -0.1951 H         1 RES1    0.0000
     42 H22        9.2255   12.5091    1.3383 H         1 RES1    0.0000
     43 C21        6.8339   13.3370    2.2760 C.2       1 RES1    0.0000
     44 C22        3.2695   10.1448    0.3053 C.3       1 RES1    0.0000
     45 H23        2.8822    9.5365   -0.3289 H         1 RES1    0.0000
     46 H24        3.5396   10.9482   -0.1443 H         1 RES1    0.0000
     47 H25        2.6218   10.3598    0.9814 H         1 RES1    0.0000
     48 N1         4.6872    7.9204    4.9019 N.2       1 RES1    0.0000
     49 O1         4.3297    6.5540    4.9824 O.3       1 RES1    0.0000
     50 O2         5.8262   12.5798    2.7632 O.3       1 RES1    0.0000
     51 O3         7.2720   14.2592    2.8953 O.2       1 RES1    0.0000
     52 C23        6.1395   21.6096   10.4766 C.3       2 RES2    0.0000
     53 H26        5.2260   21.3825   10.6629 H         2 RES2    0.0000
     54 H27        6.2544   22.5594   10.5518 H         2 RES2    0.0000
     55 H28        6.7139   21.1670   11.1046 H         2 RES2    0.0000
     56 C24        6.4339   19.3901    7.8393 C.2       2 RES2    0.0000
     57 C25        6.9782   20.1960    6.7669 C.2       2 RES2    0.0000
     58 H29        7.2028   21.0842    6.9331 H         2 RES2    0.0000
     59 C26        7.1646   19.6965    5.5527 C.2       2 RES2    0.0000
     60 H30        7.5317   20.2581    4.9089 H         2 RES2    0.0000
     61 C27        6.8326   18.3116    5.1425 C.3       2 RES2    0.0000
     62 C28        6.3060   17.4867    6.3129 C.2       2 RES2    0.0000
     63 C29        6.1156   17.9773    7.5585 C.2       2 RES2    0.0000
     64 C30        5.5297   17.1729    8.7035 C.3       2 RES2    0.0000
     65 H31        5.9179   16.2828    8.6886 H         2 RES2    0.0000
     66 H32        5.7873   17.5922    9.5397 H         2 RES2    0.0000
     67 C31        4.0266   17.0441    8.6703 C.ar      2 RES2    0.0000
     68 C32        3.4256   15.8908    9.0796 C.ar      2 RES2    0.0000
     69 H33        3.9511   15.1832    9.3753 H         2 RES2    0.0000
     70 C33        2.0555   15.7523    9.0630 C.ar      2 RES2    0.0000
     71 H34        1.6658   14.9567    9.3394 H         2 RES2    0.0000
     72 C34        1.2709   16.7828    8.6431 C.ar      2 RES2    0.0000
     73 H35        0.3451   16.6944    8.6440 H         2 RES2    0.0000
     74 C35        1.8361   17.9240    8.2268 C.ar      2 RES2    0.0000
     75 H36        1.2997   18.6227    7.9276 H         2 RES2    0.0000
     76 C36        3.2214   18.0732    8.2390 C.ar      2 RES2    0.0000
     77 H37        3.6041   18.8713    7.9539 H         2 RES2    0.0000
     78 C37        5.7453   18.4105    4.0430 C.3       2 RES2    0.0000
     79 H38        5.0308   18.9791    4.3666 H         2 RES2    0.0000
     80 H39        6.1328   18.8409    3.2645 H         2 RES2    0.0000
     81 C38        5.1446   17.0745    3.6100 C.3       2 RES2    0.0000
     82 H40        4.3859   17.2248    3.0239 H         2 RES2    0.0000
     83 H41        5.8052   16.5535    3.1280 H         2 RES2    0.0000
     84 C39        4.7034   16.3358    4.8442 C.3       2 RES2    0.0000
     85 H42        4.0323   16.8850    5.3008 H         2 RES2    0.0000
     86 C40        5.8717   16.1474    5.7863 C.3       2 RES2    0.0000
     87 H43        6.6156   15.7744    5.2693 H         2 RES2    0.0000
     88 C41        4.1610   14.9197    4.7410 C.3       2 RES2    0.0000
     89 H44        4.6964   14.4263    4.0850 H         2 RES2    0.0000
     90 C42        4.4681   14.3835    6.1108 C.2       2 RES2    0.0000
     91 C43        2.6873   14.7794    4.3727 C.3       2 RES2    0.0000
     92 H45        2.4370   13.8544    4.4034 H         2 RES2    0.0000
     93 H46        2.5450   15.1197    3.4866 H         2 RES2    0.0000
     94 H47        2.1528   15.2772    4.9964 H         2 RES2    0.0000
     95 C44        8.1284   17.6895    4.5521 C.3       2 RES2    0.0000
     96 H48        8.4869   18.2746    3.8803 H         2 RES2    0.0000
     97 H49        7.9245   16.8380    4.1584 H         2 RES2    0.0000
     98 H50        8.7751   17.5729    5.2518 H         2 RES2    0.0000
     99 N2         6.1656   19.8125    9.0254 N.2       2 RES2    0.0000
    100 O4         6.4740   21.1927    9.1470 O.3       2 RES2    0.0000
    101 O5         5.4319   15.1357    6.7214 O.3       2 RES2    0.0000
    102 O6         3.9956   13.4456    6.6873 O.2       2 RES2    0.0000
@<TRIPOS>BOND
     1    1    2 1
     2    3    1 1
     3    4    1 1
     4    5    6 1
     5    6    7 1
     6    8    6 2
     7    9    8 1
     8   10    8 1
     9   11   10 1
    10   12    5 1
    11   13   12 1
    12   14   13 1
    13   15   13 1
    14   16   13 1
    15   17   16 ar
    16   18   17 1
    17   19   17 ar
    18   20   19 1
    19   21   19 ar
    20   22   21 1
    21   23   21 ar
    22   24   23 1
    23   25   16 ar
    24   26   25 1
    25   27   11 1
    26   28   27 1
    27   29   27 1
    28   30   29 1
    29   31   29 1
    30   32   31 1
    31   33   31 1
    32   34   10 1
    33   35   34 1
    34   36   34 1
    35   37   29 1
    36   38   37 1
    37   39   37 1
    38   40   39 1
    39   41   39 1
    40   42   39 1
    41   43   37 1
    42   44   10 1
    43   45   44 1
    44   46   44 1
    45   47   44 1
    46   48    5 2
    47   49    1 1
    48   50   27 1
    49   51   43 2
    50   52   53 1
    51   54   52 1
    52   55   52 1
    53   56   57 1
    54   57   58 1
    55   59   57 2
    56   60   59 1
    57   61   59 1
    58   62   61 1
    59   63   56 1
    60   64   63 1
    61   65   64 1
    62   66   64 1
    63   67   64 1
    64   68   67 ar
    65   69   68 1
    66   70   68 ar
    67   71   70 1
    68   72   70 ar
    69   73   72 1
    70   74   72 ar
    71   75   74 1
    72   76   67 ar
    73   77   76 1
    74   78   61 1
    75   79   78 1
    76   80   78 1
    77   81   78 1
    78   82   81 1
    79   83   81 1
    80   84   81 1
    81   85   84 1
    82   86   62 1
    83   87   86 1
    84   88   84 1
    85   89   88 1
    86   90   88 1
    87   91   88 1
    88   92   91 1
    89   93   91 1
    90   94   91 1
    91   95   61 1
    92   96   95 1
    93   97   95 1
    94   98   95 1
    95   99   56 2
    96  100   52 1
    97  101   86 1
    98  102   90 2
    99   11   12 2
   100   23   25 ar
   101   31   34 1
   102   43   50 1
   103   48   49 1
   104   62   63 2
   105   74   76 ar
   106   84   86 1
   107   90  101 1
   108   99  100 1
@<TRIPOS>SUBSTRUCTURE
     1 RES1 1
     2 RES2 52

@<TRIPOS>CRYSIN
   8.1343   27.6260    8.8172  90.0000  97.2230  90.0000   4 1

