# MOL2 file generated by ConQuest
# Please check atom types

@<TRIPOS>MOLECULE
GAKQEP
    21    21     1
SMALL
NO_CHARGES
****
Generated from CSD

@<TRIPOS>ATOM
      1 O1         2.1625    8.0365    0.7644 O.2       1 RES1    0.0000
      2 N1         1.7932    8.7414   -0.1746 N.pl3     1 RES1    0.0000
      3 C1         1.8435   10.1864   -0.0117 C.ar      1 RES1    0.0000
      4 O2         1.3769    8.2792   -1.2349 O.2       1 RES1    0.0000
      5 C2         2.3082   10.7204    1.1877 C.ar      1 RES1    0.0000
      6 H1         2.5683   10.1638    1.8856 H         1 RES1    0.0000
      7 O3         2.0602   14.2533    0.5181 O.3       1 RES1    0.0000
      8 C3         2.3630   12.0883    1.3305 C.ar      1 RES1    0.0000
      9 H2         2.6870   12.4606    2.1497 H         1 RES1    0.0000
     10 C4         1.9504   12.9230    0.2827 C.ar      1 RES1    0.0000
     11 C5         1.4711   12.3777   -0.9147 C.ar      1 RES1    0.0000
     12 H3         1.1805   12.9325   -1.6396 H         1 RES1    0.0000
     13 C6         1.4260   10.9957   -1.0590 C.ar      1 RES1    0.0000
     14 H4         1.1201   10.6451   -1.8765 H         1 RES1    0.0000
     15 C7         1.6951   15.1588   -0.5465 C.3       1 RES1    0.0000
     16 H5         0.7747   15.0022   -0.8016 H         1 RES1    0.0000
     17 H6         2.2650   15.0139   -1.3117 H         1 RES1    0.0000
     18 C8         1.8657   16.5597   -0.0160 C.3       1 RES1    0.0000
     19 H7         1.5972   17.2142   -0.7196 H         1 RES1    0.0000
     20 H8         2.7685   16.7001    0.2915 H         1 RES1    0.0000
     21 H9         1.2709   16.6989    0.7469 H         1 RES1    0.0000
@<TRIPOS>BOND
     1    1    2 2
     2    2    3 1
     3    3    5 ar
     4    4    2 2
     5    5    6 1
     6    7   10 1
     7    8    5 ar
     8    9    8 1
     9   10    8 ar
    10   11   10 ar
    11   12   11 1
    12   13    3 ar
    13   14   13 1
    14   15    7 1
    15   16   15 1
    16   17   15 1
    17   18   15 1
    18   19   18 1
    19   20   18 1
    20   21   18 1
    21   11   13 ar
@<TRIPOS>SUBSTRUCTURE
     1 RES1 1

@<TRIPOS>CRYSIN
   7.2796   11.7664    9.4285  90.0000 104.9570  90.0000  14 1

