# MOL2 file generated by ConQuest
# Please check atom types

@<TRIPOS>MOLECULE
GAKRAM
    33    33     2
SMALL
NO_CHARGES
****
Generated from CSD

@<TRIPOS>ATOM
      1 O1         2.0712    2.3742    7.1703 O.3       1 RES1    0.0000
      2 O2         1.7734    4.7470    5.9569 O.2       1 RES1    0.0000
      3 O3         3.1310   10.9227    7.7561 O.2       1 RES1    0.0000
      4 O4         2.5558   10.7790    7.5541 Du        2 SUP2    0.0000
      5 O5         2.1685   12.4663    6.6111 O.2       1 RES1    0.0000
      6 N1         2.5634    6.4513    7.2170 N.am      1 RES1    0.0000
      7 N2         2.7192    7.2566    6.1113 N.2       1 RES1    0.0000
      8 N3         2.7568   11.4184    6.6724 N.pl3     1 RES1    0.0000
      9 C1         1.7845    4.4778    8.3153 C.ar      1 RES1    0.0000
     10 C2         1.4531    5.1192    9.5043 C.ar      1 RES1    0.0000
     11 H1         1.4129    6.0488    9.5253 H         1 RES1    0.0000
     12 C3         1.1839    4.4072   10.6479 C.ar      1 RES1    0.0000
     13 H2         0.9663    4.8461   11.4380 H         1 RES1    0.0000
     14 C4         1.2404    3.0312   10.6061 C.ar      1 RES1    0.0000
     15 H3         1.0634    2.5416   11.3774 H         1 RES1    0.0000
     16 C5         1.5527    2.3736    9.4509 C.ar      1 RES1    0.0000
     17 H4         1.5944    1.4448    9.4445 H         1 RES1    0.0000
     18 C6         1.8059    3.0791    8.2937 C.ar      1 RES1    0.0000
     19 C7         2.0393    5.2201    7.0714 C.2       1 RES1    0.0000
     20 C8         3.0153    8.4522    6.3810 C.2       1 RES1    0.0000
     21 H5         3.0786    8.7291    7.2662 H         1 RES1    0.0000
     22 C9         3.2589    9.4043    5.2944 C.ar      1 RES1    0.0000
     23 C10        3.1734   10.7908    5.4113 C.ar      1 RES1    0.0000
     24 C11        3.4328   11.6310    4.3564 C.ar      1 RES1    0.0000
     25 H6         3.3480   12.5515    4.4603 H         1 RES1    0.0000
     26 C12        3.8162   11.1103    3.1551 C.ar      1 RES1    0.0000
     27 H7         4.0227   11.6766    2.4459 H         1 RES1    0.0000
     28 C13        3.8967    9.7555    2.9964 C.ar      1 RES1    0.0000
     29 H8         4.1436    9.3998    2.1732 H         1 RES1    0.0000
     30 C14        3.6152    8.9157    4.0433 C.ar      1 RES1    0.0000
     31 H9         3.6643    7.9954    3.9127 H         1 RES1    0.0000
     32 H10        2.8598    6.7321    8.0087 H         1 RES1    0.0000
     33 H11        2.0085    3.0232    6.5224 H         1 RES1    0.0000
@<TRIPOS>BOND
     1    1   18 1
     2    2   19 2
     3    3    8 2
     4    5    8 2
     5    6    7 1
     6    7   20 2
     7    8   23 1
     8    9   10 ar
     9   10   11 1
    10   12   10 ar
    11   13   12 1
    12   14   12 ar
    13   15   14 1
    14   16   14 ar
    15   17   16 1
    16   18    9 ar
    17   19    6 1
    18   20   21 1
    19   22   20 1
    20   23   22 ar
    21   24   23 ar
    22   25   24 1
    23   26   24 ar
    24   27   26 1
    25   28   26 ar
    26   29   28 1
    27   30   22 ar
    28   31   30 1
    29   32    6 1
    30   33    1 1
    31    9   19 1
    32   16   18 ar
    33   28   30 ar
@<TRIPOS>SUBSTRUCTURE
     1 RES1 1
     2 SUP2 4

@<TRIPOS>CRYSIN
   7.0700   25.2140    7.8700  90.0000 113.5410  90.0000 231 1

