# MOL2 file generated by ConQuest
# Please check atom types

@<TRIPOS>MOLECULE
GAKVUL
    26    27     1
SMALL
NO_CHARGES
****
Generated from CSD

@<TRIPOS>ATOM
      1 O1        -0.7850   -2.3065    7.1127 O.2       1 RES1    0.0000
      2 O2        -2.1902   -0.8149    7.7982 O.2       1 RES1    0.0000
      3 O3         2.0106    4.0287    5.4317 O.3       1 RES1    0.0000
      4 H1         2.2693    4.1400    4.6218 H         1 RES1    0.0000
      5 N1         2.3842    4.0950   10.1577 N.2       1 RES1    0.0000
      6 N2         1.8827    5.1538    9.4123 N.2       1 RES1    0.0000
      7 N3         3.0274    3.8392    8.0881 N.pl3     1 RES1    0.0000
      8 N4         3.6546    3.2370    6.9774 N.3       1 RES1    0.0000
      9 H2         4.1993    3.8503    6.6571 H         1 RES1    0.0000
     10 N5        -1.0907   -1.1500    7.3573 N.pl3     1 RES1    0.0000
     11 C1         1.7096    1.8537    6.4047 C.ar      1 RES1    0.0000
     12 C2         2.1016    0.5069    6.4359 C.ar      1 RES1    0.0000
     13 H3         2.9989    0.2712    6.2295 H         1 RES1    0.0000
     14 C3         1.1918   -0.4795    6.7644 C.ar      1 RES1    0.0000
     15 H4         1.4458   -1.3951    6.7695 H         1 RES1    0.0000
     16 C4        -0.0997   -0.0988    7.0862 C.ar      1 RES1    0.0000
     17 C5        -0.5120    1.2225    7.1127 C.ar      1 RES1    0.0000
     18 H5        -1.3965    1.4547    7.3706 H         1 RES1    0.0000
     19 C6         0.4061    2.2013    6.7512 C.ar      1 RES1    0.0000
     20 H6         0.1434    3.1148    6.7409 H         1 RES1    0.0000
     21 C7         2.6922    2.9009    5.9221 C.3       1 RES1    0.0000
     22 H7         3.2050    2.5046    5.1611 H         1 RES1    0.0000
     23 C8         3.0624    3.3303    9.3413 C.2       1 RES1    0.0000
     24 H8         3.5137    2.5333    9.5918 H         1 RES1    0.0000
     25 C9         2.2851    4.9828    8.1766 C.2       1 RES1    0.0000
     26 H9         2.0905    5.5659    7.4521 H         1 RES1    0.0000
@<TRIPOS>BOND
     1    1   10 2
     2    2   10 2
     3    3    4 1
     4    5    6 1
     5    6   25 2
     6    7    8 1
     7    8    9 1
     8   10   16 1
     9   11   12 ar
    10   12   13 1
    11   14   12 ar
    12   15   14 1
    13   16   14 ar
    14   17   16 ar
    15   18   17 1
    16   19   11 ar
    17   20   19 1
    18   21    3 1
    19   22   21 1
    20   23    5 2
    21   24   23 1
    22   25    7 1
    23   26   25 1
    24    7   23 1
    25    8   21 1
    26   11   21 1
    27   17   19 ar
@<TRIPOS>SUBSTRUCTURE
     1 RES1 1

@<TRIPOS>CRYSIN
   6.9480   20.5460    7.3620  90.0000  93.5600  90.0000   9 1

