# MOL2 file generated by ConQuest
# Please check atom types

@<TRIPOS>MOLECULE
GAKVIZ
    26    27     1
SMALL
NO_CHARGES
****
Generated from CSD

@<TRIPOS>ATOM
      1 O1         5.1416    0.0378    5.7018 O.2       1 RES1    0.0000
      2 O2         3.6774    1.5728    5.8820 O.2       1 RES1    0.0000
      3 O3         8.7604    0.4947    3.7971 O.3       1 RES1    0.0000
      4 N1         9.2740   -3.2156    6.1187 N.2       1 RES1    0.0000
      5 N2         7.9974   -3.3547    6.6454 N.2       1 RES1    0.0000
      6 N3         8.3112   -1.2593    6.1467 N.pl3     1 RES1    0.0000
      7 N4         8.0220    0.1184    6.0386 N.3       1 RES1    0.0000
      8 H1         8.7421    0.5396    6.2534 H         1 RES1    0.0000
      9 N5         4.8217    1.2088    5.6392 N.pl3     1 RES1    0.0000
     10 H2         8.7838   -0.2818    3.3197 H         1 RES1    0.0000
     11 C1         7.0816    1.9022    4.7737 C.ar      1 RES1    0.0000
     12 C2         5.8063    2.2366    5.2446 C.ar      1 RES1    0.0000
     13 C3         5.3843    3.5486    5.3742 C.ar      1 RES1    0.0000
     14 H3         4.4907    3.6947    5.7559 H         1 RES1    0.0000
     15 C4         6.2352    4.5756    5.0508 C.ar      1 RES1    0.0000
     16 H4         5.9552    5.5212    5.1468 H         1 RES1    0.0000
     17 C5         7.4923    4.2858    4.5773 C.ar      1 RES1    0.0000
     18 H5         8.0739    4.9680    4.3491 H         1 RES1    0.0000
     19 C6         7.9026    2.9730    4.4289 C.ar      1 RES1    0.0000
     20 H6         8.7724    2.7658    4.0832 H         1 RES1    0.0000
     21 C7         7.6527    0.4926    4.6665 C.3       1 RES1    0.0000
     22 H7         6.9704   -0.1461    4.3577 H         1 RES1    0.0000
     23 C8         9.4213   -1.9538    5.8202 C.2       1 RES1    0.0000
     24 H8        10.1780   -1.5864    5.4728 H         1 RES1    0.0000
     25 C9         7.4588   -2.1749    6.6532 C.2       1 RES1    0.0000
     26 H9         6.5878   -1.9726    6.9053 H         1 RES1    0.0000
@<TRIPOS>BOND
     1    1    9 2
     2    2    9 2
     3    3   10 1
     4    4    5 1
     5    5   25 2
     6    6    7 1
     7    7    8 1
     8    9   12 1
     9   11   12 ar
    10   12   13 ar
    11   13   14 1
    12   15   13 ar
    13   16   15 1
    14   17   15 ar
    15   18   17 1
    16   19   11 ar
    17   20   19 1
    18   21    3 1
    19   22   21 1
    20   23    4 2
    21   24   23 1
    22   25    6 1
    23   26   25 1
    24    6   23 1
    25    7   21 1
    26   11   21 1
    27   17   19 ar
@<TRIPOS>SUBSTRUCTURE
     1 RES1 1

@<TRIPOS>CRYSIN
  11.5910   10.4370    8.8920  90.0000 105.2700  90.0000  14 1

