# MOL2 file generated by ConQuest
# Please check atom types

@<TRIPOS>MOLECULE
GAKWUM
    50    52     2
SMALL
NO_CHARGES
****
Generated from CSD

@<TRIPOS>ATOM
      1 O1        -3.2433    6.5936    4.2499 O.2       1 RES1    0.0000
      2 O2        -4.8927    5.6469    5.2838 O.2       1 RES1    0.0000
      3 O3        -4.0734    5.5594   10.0938 O.2       1 RES1    0.0000
      4 O4        -2.3505    4.3955   10.7194 O.2       1 RES1    0.0000
      5 N1         2.5395    5.2966    1.7821 N.2       1 RES1    0.0000
      6 N2         1.3973    4.8201    1.1383 N.2       1 RES1    0.0000
      7 N3         0.9325    5.1039    3.2445 N.pl3     1 RES1    0.0000
      8 N4         0.3684    5.1887    4.5050 N.2       1 RES1    0.0000
      9 N5        -3.7144    5.9335    5.1636 N.pl3     1 RES1    0.0000
     10 N6        -3.0048    5.0058    9.8794 N.pl3     1 RES1    0.0000
     11 C1        -1.4679    5.1670    5.9376 C.ar      1 RES1    0.0000
     12 C2        -2.7937    5.4823    6.2223 C.ar      1 RES1    0.0000
     13 C3        -3.3078    5.4395    7.4988 C.ar      1 RES1    0.0000
     14 H1        -4.1968    5.6525    7.6676 H         1 RES1    0.0000
     15 C4        -2.4622    5.0710    8.5141 C.ar      1 RES1    0.0000
     16 C5        -1.1448    4.7634    8.3028 C.ar      1 RES1    0.0000
     17 H2        -0.5909    4.5321    9.0139 H         1 RES1    0.0000
     18 C6        -0.6592    4.8047    7.0153 C.ar      1 RES1    0.0000
     19 H3         0.2310    4.5854    6.8601 H         1 RES1    0.0000
     20 C7        -0.8861    5.1403    4.5895 C.2       1 RES1    0.0000
     21 H4        -1.4217    5.0892    3.8318 H         1 RES1    0.0000
     22 C8         2.2289    5.4381    3.0321 C.2       1 RES1    0.0000
     23 H5         2.8157    5.7296    3.6936 H         1 RES1    0.0000
     24 C9         0.4669    4.7206    2.0381 C.2       1 RES1    0.0000
     25 H6        -0.4005    4.4263    1.8735 H         1 RES1    0.0000
     26 O5         5.5311    6.2867   11.7562 O.2       2 RES2    0.0000
     27 O6         5.2337    5.1691   13.5645 O.2       2 RES2    0.0000
     28 O7         8.1812    1.2606   13.8342 O.2       2 RES2    0.0000
     29 O8         8.4627    0.0624   12.0823 O.2       2 RES2    0.0000
     30 N7         3.1558    6.7428    6.1295 N.2       2 RES2    0.0000
     31 N8         2.2339    6.5901    7.1497 N.2       2 RES2    0.0000
     32 N9         4.0793    5.5944    7.7343 N.pl3     2 RES2    0.0000
     33 N10        5.0649    4.8453    8.3838 N.2       2 RES2    0.0000
     34 N11        5.5753    5.2553   12.3998 N.pl3     2 RES2    0.0000
     35 N12        8.0226    1.0419   12.6665 N.pl3     2 RES2    0.0000
     36 C10        5.8008    3.8426   10.3883 C.ar      2 RES2    0.0000
     37 C11        6.0559    4.0402   11.7404 C.ar      2 RES2    0.0000
     38 C12        6.7793    3.1398   12.5004 C.ar      2 RES2    0.0000
     39 H7         6.9261    3.2807   13.4083 H         2 RES2    0.0000
     40 C13        7.2694    2.0376   11.8656 C.ar      2 RES2    0.0000
     41 C14        7.0784    1.8099   10.5249 C.ar      2 RES2    0.0000
     42 H8         7.4436    1.0574   10.1175 H         2 RES2    0.0000
     43 C15        6.3402    2.7089    9.7931 C.ar      2 RES2    0.0000
     44 H9         6.1999    2.5562    8.8856 H         2 RES2    0.0000
     45 C16        4.9004    4.7164    9.6324 C.2       2 RES2    0.0000
     46 H10        4.2152    5.1726   10.0661 H         2 RES2    0.0000
     47 C17        4.2316    6.1367    6.5156 C.2       2 RES2    0.0000
     48 H11        5.0113    6.0842    6.0132 H         2 RES2    0.0000
     49 C18        2.8066    5.9034    8.0853 C.2       2 RES2    0.0000
     50 H12        2.4020    5.6575    8.8856 H         2 RES2    0.0000
@<TRIPOS>BOND
     1    1    9 2
     2    2    9 2
     3    3   10 2
     4    4   10 2
     5    5    6 1
     6    6   24 2
     7    7    8 1
     8    8   20 2
     9    9   12 1
    10   10   15 1
    11   11   12 ar
    12   12   13 ar
    13   13   14 1
    14   15   13 ar
    15   16   15 ar
    16   17   16 1
    17   18   11 ar
    18   19   18 1
    19   20   11 1
    20   21   20 1
    21   22    5 2
    22   23   22 1
    23   24    7 1
    24   25   24 1
    25   26   34 2
    26   27   34 2
    27   28   35 2
    28   29   35 2
    29   30   31 1
    30   31   49 2
    31   32   33 1
    32   33   45 2
    33   34   37 1
    34   35   40 1
    35   36   37 ar
    36   37   38 ar
    37   38   39 1
    38   40   38 ar
    39   41   40 ar
    40   42   41 1
    41   43   36 ar
    42   44   43 1
    43   45   36 1
    44   46   45 1
    45   47   30 2
    46   48   47 1
    47   49   32 1
    48   50   49 1
    49    7   22 1
    50   16   18 ar
    51   32   47 1
    52   41   43 ar
@<TRIPOS>SUBSTRUCTURE
     1 RES1 1
     2 RES2 26

@<TRIPOS>CRYSIN
  16.2860    7.0070   19.7460  90.0000  91.2400  90.0000  14 1

