# MOL2 file generated by ConQuest
# Please check atom types

@<TRIPOS>MOLECULE
GAKXAT
    23    24     1
SMALL
NO_CHARGES
****
Generated from CSD

@<TRIPOS>ATOM
      1 O1         1.3521   -0.0953    8.4370 O.2       1 RES1    0.0000
      2 O2         0.1460   -0.4332   10.1489 O.2       1 RES1    0.0000
      3 N1         3.2466    8.6396    6.1359 N.2       1 RES1    0.0000
      4 N2         3.6211    7.5407    5.3652 N.2       1 RES1    0.0000
      5 N3         2.5302    6.8214    7.1109 N.pl3     1 RES1    0.0000
      6 N4         1.9076    6.0727    8.1055 N.2       1 RES1    0.0000
      7 N5         0.7351    0.3070    9.3916 N.pl3     1 RES1    0.0000
      8 C1         1.2181    3.9458    8.9092 C.ar      1 RES1    0.0000
      9 C2         1.2527    2.5844    8.6948 C.ar      1 RES1    0.0000
     10 H1         1.6462    2.2314    7.9181 H         1 RES1    0.0000
     11 C3         0.7002    1.7545    9.6413 C.ar      1 RES1    0.0000
     12 C4         0.1201    2.2198   10.8012 C.ar      1 RES1    0.0000
     13 H2        -0.2476    1.6277   11.4307 H         1 RES1    0.0000
     14 C5         0.0966    3.5777   11.0062 C.ar      1 RES1    0.0000
     15 H3        -0.2882    3.9225   11.7911 H         1 RES1    0.0000
     16 C6         0.6315    4.4427   10.0727 C.ar      1 RES1    0.0000
     17 H4         0.5998    5.3701   10.2208 H         1 RES1    0.0000
     18 C7         1.8273    4.8254    7.9133 C.2       1 RES1    0.0000
     19 H5         2.1649    4.4574    7.1169 H         1 RES1    0.0000
     20 C8         2.6127    8.1686    7.1640 C.2       1 RES1    0.0000
     21 H6         2.2571    8.6954    7.8561 H         1 RES1    0.0000
     22 C9         3.1781    6.4774    5.9614 C.2       1 RES1    0.0000
     23 H7         3.2877    5.5982    5.6476 H         1 RES1    0.0000
@<TRIPOS>BOND
     1    1    7 2
     2    2    7 2
     3    3    4 1
     4    4   22 2
     5    5    6 1
     6    6   18 2
     7    7   11 1
     8    8    9 ar
     9    9   10 1
    10   11    9 ar
    11   12   11 ar
    12   13   12 1
    13   14   12 ar
    14   15   14 1
    15   16    8 ar
    16   17   16 1
    17   18    8 1
    18   19   18 1
    19   20    3 2
    20   21   20 1
    21   22    5 1
    22   23   22 1
    23    5   20 1
    24   14   16 ar
@<TRIPOS>SUBSTRUCTURE
     1 RES1 1

@<TRIPOS>CRYSIN
   3.8700   10.9170   23.0190  90.0000  94.1800  90.0000  14 1

