# MOL2 file generated by ConQuest
# Please check atom types

@<TRIPOS>MOLECULE
GAKXUM
    35    32     2
SMALL
NO_CHARGES
****
Generated from CSD

@<TRIPOS>ATOM
      1 O1        -1.3834    1.4862   12.4057 O.2       1 RES1    0.0000
      2 O2        -2.9120    0.6620   11.1219 O.2       1 RES1    0.0000
      3 O3         8.0503    7.1734    7.5563 O.2       1 RES1    0.0000
      4 O4         8.3092    7.1754    5.4158 O.2       1 RES1    0.0000
      5 N1         1.2052    2.6700    6.8427 N.3       1 RES1    0.0000
      6 N2         2.9844    3.8986    5.8975 Du        2 SUP2    0.0000
      7 N3         2.3142    3.4382    6.9821 N.2       1 RES1    0.0000
      8 N4        -1.8402    1.2296   11.2858 N.pl3     1 RES1    0.0000
      9 N5         7.6716    6.8699    6.4263 N.pl3     1 RES1    0.0000
     10 C1         0.4555    2.3470    7.9418 C.ar      1 RES1    0.0000
     11 C2        -0.7703    1.6963    7.7697 C.ar      1 RES1    0.0000
     12 C3        -1.5319    1.3364    8.8574 C.ar      1 RES1    0.0000
     13 C4        -1.0587    1.6203   10.1272 C.ar      1 RES1    0.0000
     14 C5         0.1598    2.2507   10.3265 C.ar      1 RES1    0.0000
     15 C6         0.9132    2.6161    9.2360 C.ar      1 RES1    0.0000
     16 C7         4.1544    4.5925    6.0542 C.ar      1 RES1    0.0000
     17 C8         4.9178    4.9022    4.9228 C.ar      1 RES1    0.0000
     18 C9         6.0592    5.6640    5.0342 C.ar      1 RES1    0.0000
     19 C10        6.4462    6.1063    6.2898 C.ar      1 RES1    0.0000
     20 C11        5.7125    5.8128    7.4243 C.ar      1 RES1    0.0000
     21 C12        4.5662    5.0649    7.3038 C.ar      1 RES1    0.0000
     22 C13        2.9983    3.6968    5.9274 C.2       1 RES1    0.0000
     23 C14        1.2118    2.8153    6.7750 Du        2 SUP2    0.0000
     24 H1         0.9418    2.4427    6.0340 H         1 RES1    0.0000
     25 H2         2.7121    3.6546    5.0970 Du        2 SUP2    0.0000
     26 H3        -1.0803    1.5013    6.8933 H         1 RES1    0.0000
     27 H4        -2.3677    0.9015    8.7390 H         1 RES1    0.0000
     28 H5         0.4707    2.4283   11.2069 H         1 RES1    0.0000
     29 H6         1.7474    3.0526    9.3612 H         1 RES1    0.0000
     30 H7         4.6459    4.5838    4.0708 H         1 RES1    0.0000
     31 H8         6.5719    5.8822    4.2642 H         1 RES1    0.0000
     32 H9         5.9963    6.1240    8.2762 H         1 RES1    0.0000
     33 H10        4.0497    4.8677    8.0770 H         1 RES1    0.0000
     34 H11        2.7633    3.3198    5.0875 H         1 RES1    0.0000
     35 H12        0.8950    2.6611    5.8937 Du        2 SUP2    0.0000
@<TRIPOS>BOND
     1    1    8 2
     2    2    8 2
     3    3    9 2
     4    4    9 2
     5    5    7 1
     6    7   22 2
     7    8   13 1
     8    9   19 1
     9   10    5 1
    10   11   10 ar
    11   12   11 ar
    12   13   12 ar
    13   14   13 ar
    14   15   10 ar
    15   16   17 ar
    16   17   18 ar
    17   18   19 ar
    18   19   20 ar
    19   20   21 ar
    20   21   16 ar
    21   22   16 1
    22   24    5 1
    23   26   11 1
    24   27   12 1
    25   28   14 1
    26   29   15 1
    27   30   17 1
    28   31   18 1
    29   32   20 1
    30   33   21 1
    31   34   22 1
    32   14   15 ar
@<TRIPOS>SUBSTRUCTURE
     1 RES1 1
     2 SUP2 6

@<TRIPOS>CRYSIN
   5.9635   11.0881   18.9959  90.0000  93.0480  90.0000 231 1

