# MOL2 file generated by ConQuest
# Please check atom types

@<TRIPOS>MOLECULE
GALGOS
    38    39     1
SMALL
NO_CHARGES
****
Generated from CSD

@<TRIPOS>ATOM
      1 C1         2.0694    3.2051    1.4614 C.2       1 RES1    0.0000
      2 O1         2.0065    4.4055    1.2925 O.2       1 RES1    0.0000
      3 C2         2.4804    2.6874    2.8215 C.2       1 RES1    0.0000
      4 N1         1.3572    2.4674    3.6868 N.pl3     1 RES1    0.0000
      5 O2         0.2329    2.5410    3.1631 O.2       1 RES1    0.0000
      6 C3         3.7240    2.4888    3.3003 C.2       1 RES1    0.0000
      7 H1         3.7441    2.1598    4.2018 H         1 RES1    0.0000
      8 O3         1.5190    2.2296    4.8839 O.2       1 RES1    0.0000
      9 C4         4.9955    2.6740    2.6685 C.ar      1 RES1    0.0000
     10 C5         6.1508    2.3373    3.3992 C.ar      1 RES1    0.0000
     11 H2         6.0439    2.0158    4.2916 H         1 RES1    0.0000
     12 C6         7.4128    2.4499    2.8825 C.ar      1 RES1    0.0000
     13 H3         8.1535    2.2030    3.4428 H         1 RES1    0.0000
     14 C7         7.6172    2.9287    1.5661 C.ar      1 RES1    0.0000
     15 N2         8.8498    2.9949    1.0192 N.3       1 RES1    0.0000
     16 C8         6.4610    3.3221    0.8385 C.ar      1 RES1    0.0000
     17 H4         6.5356    3.6500   -0.0519 H         1 RES1    0.0000
     18 C9         5.2103    3.1877    1.3696 C.ar      1 RES1    0.0000
     19 H5         4.4487    3.4772    0.8123 H         1 RES1    0.0000
     20 C10        1.8076    2.2266    0.3806 C.ar      1 RES1    0.0000
     21 C11        1.4675    2.6983   -0.8903 C.ar      1 RES1    0.0000
     22 H6         1.3958    3.6500   -1.0326 H         1 RES1    0.0000
     23 C12        1.2349    1.8070   -1.9184 C.ar      1 RES1    0.0000
     24 H7         1.0200    2.1526   -2.8115 H         1 RES1    0.0000
     25 C13        1.3328    0.4471   -1.6907 C.ar      1 RES1    0.0000
     26 H8         1.1956   -0.1800   -2.3990 H         1 RES1    0.0000
     27 C14        1.6639   -0.0324   -0.4374 C.ar      1 RES1    0.0000
     28 H9         1.7226   -0.9935   -0.2525 H         1 RES1    0.0000
     29 C15        1.9052    0.8574    0.5961 C.ar      1 RES1    0.0000
     30 H10        2.1362    0.5255    1.4731 H         1 RES1    0.0000
     31 C16        9.0809    3.6709   -0.2475 C.3       1 RES1    0.0000
     32 H11        8.6393    3.1964   -0.9877 H         1 RES1    0.0000
     33 H12       10.0200    3.7220   -0.4433 H         1 RES1    0.0000
     34 H13        8.7485    4.5715   -0.2132 H         1 RES1    0.0000
     35 C17       10.0103    2.5384    1.7582 C.3       1 RES1    0.0000
     36 H14       10.1963    3.1389    2.5043 H         1 RES1    0.0000
     37 H15       10.7754    2.4765    1.1574 H         1 RES1    0.0000
     38 H16        9.8713    1.6126    2.1465 H         1 RES1    0.0000
@<TRIPOS>BOND
     1    1    2 2
     2    3    1 1
     3    4    3 1
     4    5    4 2
     5    6    3 2
     6    7    6 1
     7    8    4 2
     8    9    6 1
     9   10    9 ar
    10   11   10 1
    11   12   10 ar
    12   13   12 1
    13   14   12 ar
    14   15   14 1
    15   16   14 ar
    16   17   16 1
    17   18    9 ar
    18   19   18 1
    19   20    1 1
    20   21   20 ar
    21   22   21 1
    22   23   21 ar
    23   24   23 1
    24   25   23 ar
    25   26   25 1
    26   27   25 ar
    27   28   27 1
    28   29   20 ar
    29   30   29 1
    30   31   15 1
    31   32   31 1
    32   33   31 1
    33   34   31 1
    34   35   15 1
    35   36   35 1
    36   37   35 1
    37   38   35 1
    38   16   18 ar
    39   27   29 ar
@<TRIPOS>SUBSTRUCTURE
     1 RES1 1

@<TRIPOS>CRYSIN
  29.8924    7.1992   16.7644  90.0000 123.1900  90.0000  15 1

