# MOL2 file generated by ConQuest
# Please check atom types

@<TRIPOS>MOLECULE
GALTUK
    51    52     1
SMALL
NO_CHARGES
****
Generated from CSD

@<TRIPOS>ATOM
      1 O1       -13.3892    1.1587   -8.5420 O.2       1 RES1    0.0000
      2 O2       -17.9412   -0.8886   -4.6308 O.3       1 RES1    0.0000
      3 N1       -13.0553    0.0580   -8.1176 N.pl3     1 RES1    0.0000
      4 O3       -17.0583   -1.2740  -10.9824 O.2       1 RES1    0.0000
      5 O4       -17.0305   -3.4293  -10.9021 O.2       1 RES1    0.0000
      6 O5       -10.4556   -0.1317  -11.9349 O.2       1 RES1    0.0000
      7 O6       -12.4682   -0.1159   -7.0761 O.2       1 RES1    0.0000
      8 O7        -8.7877   -1.0247  -10.7809 O.3       1 RES1    0.0000
      9 C1       -16.6157   -0.0366   -7.9529 C.ar      1 RES1    0.0000
     10 H1       -16.6990    0.6280   -8.6270 H         1 RES1    0.0000
     11 N2       -16.5026   -2.3314  -10.7492 N.pl3     1 RES1    0.0000
     12 C2       -10.9200   -1.0698   -9.7738 C.3       1 RES1    0.0000
     13 H2       -10.8350   -0.3270   -9.1082 H         1 RES1    0.0000
     14 C3       -17.3904    0.0664   -6.8040 C.ar      1 RES1    0.0000
     15 H3       -17.9973    0.7890   -6.6967 H         1 RES1    0.0000
     16 C4       -14.8257   -1.1165   -9.3692 C.3       1 RES1    0.0000
     17 H4       -14.9905   -0.2864   -9.9035 H         1 RES1    0.0000
     18 C5       -16.4087   -1.9752   -6.0049 C.ar      1 RES1    0.0000
     19 H5       -16.3480   -2.6533   -5.3430 H         1 RES1    0.0000
     20 C6       -13.3436   -1.1474   -8.9780 C.3       1 RES1    0.0000
     21 H6       -13.1645   -1.9763   -8.4468 H         1 RES1    0.0000
     22 C7       -15.0821   -2.3213  -10.2731 C.3       1 RES1    0.0000
     23 H7       -14.9129   -3.1564   -9.7491 H         1 RES1    0.0000
     24 C8       -15.6404   -2.0608   -7.1558 C.ar      1 RES1    0.0000
     25 H8       -15.0497   -2.7957   -7.2732 H         1 RES1    0.0000
     26 C9       -10.0521   -0.6826  -10.9600 C.2       1 RES1    0.0000
     27 C10      -17.2668   -0.9004   -5.8191 C.ar      1 RES1    0.0000
     28 C11      -12.4023   -1.1148  -10.1887 C.3       1 RES1    0.0000
     29 H9       -12.5999   -0.2831  -10.7091 H         1 RES1    0.0000
     30 C12      -15.7252   -1.0776   -8.1436 C.ar      1 RES1    0.0000
     31 C13      -14.1861   -2.3281  -11.5043 C.3       1 RES1    0.0000
     32 H10      -14.3687   -3.1373  -12.0448 H         1 RES1    0.0000
     33 H11      -14.3794   -1.5340  -12.0628 H         1 RES1    0.0000
     34 C14      -18.7183    0.2741   -4.3176 C.3       1 RES1    0.0000
     35 H12      -19.4660    0.3466   -4.9466 H         1 RES1    0.0000
     36 H13      -18.1544    1.0726   -4.3881 H         1 RES1    0.0000
     37 H14      -19.0653    0.1986   -3.4050 H         1 RES1    0.0000
     38 C15      -12.7235   -2.3129  -11.0835 C.3       1 RES1    0.0000
     39 H15      -12.1523   -2.2797  -11.8904 H         1 RES1    0.0000
     40 H16      -12.5152   -3.1491  -10.5958 H         1 RES1    0.0000
     41 C16       -7.8138   -0.5976  -11.7877 C.3       1 RES1    0.0000
     42 H17       -7.0659   -1.2453  -11.8260 H         1 RES1    0.0000
     43 H18       -8.2448   -0.5712  -12.6779 H         1 RES1    0.0000
     44 C17      -10.4169   -2.3427   -9.0683 C.3       1 RES1    0.0000
     45 H19       -9.5037   -2.1964   -8.7428 H         1 RES1    0.0000
     46 H20      -10.4211   -3.0906   -9.7002 H         1 RES1    0.0000
     47 H21      -11.0037   -2.5509   -8.3130 H         1 RES1    0.0000
     48 C18       -7.3007    0.7304  -11.4490 C.3       1 RES1    0.0000
     49 H22       -6.8942    0.7057  -10.5572 H         1 RES1    0.0000
     50 H23       -8.0374    1.3770  -11.4554 H         1 RES1    0.0000
     51 H24       -6.6257    0.9977  -12.1091 H         1 RES1    0.0000
@<TRIPOS>BOND
     1    1    3 2
     2    2   27 1
     3    3    7 2
     4    4   11 2
     5    5   11 2
     6    6   26 2
     7    8   26 1
     8    9   10 1
     9   11   22 1
    10   12   13 1
    11   14    9 ar
    12   15   14 1
    13   16   17 1
    14   18   19 1
    15   20    3 1
    16   21   20 1
    17   22   16 1
    18   23   22 1
    19   24   18 ar
    20   25   24 1
    21   26   12 1
    22   27   14 ar
    23   28   12 1
    24   29   28 1
    25   30    9 ar
    26   31   22 1
    27   32   31 1
    28   33   31 1
    29   34    2 1
    30   35   34 1
    31   36   34 1
    32   37   34 1
    33   38   28 1
    34   39   38 1
    35   40   38 1
    36   41    8 1
    37   42   41 1
    38   43   41 1
    39   44   12 1
    40   45   44 1
    41   46   44 1
    42   47   44 1
    43   48   41 1
    44   49   48 1
    45   50   48 1
    46   51   48 1
    47   16   20 1
    48   16   30 1
    49   18   27 ar
    50   20   28 1
    51   24   30 ar
    52   31   38 1
@<TRIPOS>SUBSTRUCTURE
     1 RES1 1

@<TRIPOS>CRYSIN
  12.8847    5.6274   25.7670  90.0000  92.7760  90.0000  14 1

