# MOL2 file generated by ConQuest
# Please check atom types

@<TRIPOS>MOLECULE
GALTOC10
    25    28     1
SMALL
USER_CHARGES
****
Generated from CSD

@<TRIPOS>ATOM
      1 O1        10.2190    2.5639    3.8590 O.3       1 RES1    0.0000
      2 O2         8.8172    9.6097   -3.8152 O.2       1 RES1    0.0000
      3 O3         6.9907   10.7121   -3.6287 O.2       1 RES1    0.0000
      4 N1         7.7742    9.7901   -3.2629 N.pl3     1 RES1    0.0000
      5 N2         5.6240    7.2641    2.1780 N.2       1 RES1    0.0000
      6 N3         6.7026    6.9790    1.4413 N.pl3     1 RES1    1.0000
      7 N4         7.5722    6.1148    1.8800 N.2       1 RES1   -1.0000
      8 N5         7.5271    4.7615    3.8496 N.2       1 RES1    0.0000
      9 N6         9.1290    3.2730    4.5009 N.2       1 RES1    0.0000
     10 C1         6.1765    8.7761   -0.0844 C.ar      1 RES1    0.0000
     11 C2         6.4028    9.4617   -1.2214 C.ar      1 RES1    0.0000
     12 C3         7.4770    9.0486   -1.9894 C.ar      1 RES1    0.0000
     13 C4         8.2953    7.9912   -1.6674 C.ar      1 RES1    0.0000
     14 C5         8.0253    7.3291   -0.5315 C.ar      1 RES1    0.0000
     15 C6         6.9796    7.7459    0.2616 C.ar      1 RES1    0.0000
     16 C7         5.6839    6.3638    3.2431 C.3       1 RES1    0.0000
     17 C8         4.5496    5.3064    3.2254 C.3       1 RES1    0.0000
     18 C9         4.0655    5.1729    4.6270 C.3       1 RES1    0.0000
     19 C10        4.3982    6.3674    5.3450 C.3       1 RES1    0.0000
     20 C11        5.5646    7.0061    4.6614 C.3       1 RES1    0.0000
     21 C12        7.0455    5.6150    3.0670 C.2       1 RES1    0.0000
     22 C13        8.6564    4.0254    3.5380 C.2       1 RES1    0.0000
     23 C14        9.3691    3.9009    2.3000 C.2       1 RES1    0.0000
     24 C15       10.3388    2.9482    2.5959 C.2       1 RES1    0.0000
     25 C16       11.4129    2.3257    1.8373 C.3       1 RES1    0.0000
@<TRIPOS>BOND
     1    1    9 1
     2    2    4 2
     3    3    4 2
     4    4   12 1
     5    5    6 2
     6    6    7 1
     7    7   21 1
     8    8   21 2
     9    9   22 2
    10   10   11 ar
    11   11   12 ar
    12   12   13 ar
    13   13   14 ar
    14   14   15 ar
    15   15    6 1
    16   16    5 1
    17   17   16 1
    18   18   17 1
    19   19   18 1
    20   20   16 1
    21   21   16 1
    22   22    8 1
    23   23   22 1
    24   24    1 1
    25   25   24 1
    26   10   15 ar
    27   19   20 1
    28   23   24 2
@<TRIPOS>SUBSTRUCTURE
     1 RES1 1

@<TRIPOS>CRYSIN
   8.6310   18.0430   11.1500  90.0000 110.8300  90.0000  14 1

