# MOL2 file generated by ConQuest
# Please check atom types

@<TRIPOS>MOLECULE
GALTOC
    41    44     1
SMALL
USER_CHARGES
****
Generated from CSD

@<TRIPOS>ATOM
      1 O1        10.2470    2.5460    3.8944 O.3       1 RES1    0.0000
      2 O2         8.8218    9.5413   -3.8067 O.2       1 RES1    0.0000
      3 O3         6.9685   10.5917   -3.6407 O.2       1 RES1    0.0000
      4 N1         7.6848    9.7029   -3.3931 N.pl3     1 RES1    0.0000
      5 N2         5.6644    7.2251    2.1691 N.2       1 RES1    0.0000
      6 N3         6.6983    6.9665    1.4162 N.pl3     1 RES1    1.0000
      7 N4         7.4996    6.0903    1.9143 N.2       1 RES1   -1.0000
      8 N5         7.6006    4.7437    3.9174 N.2       1 RES1    0.0000
      9 N6         9.1764    3.2876    4.5555 N.2       1 RES1    0.0000
     10 C1         6.1472    8.7243   -0.0867 C.ar      1 RES1    0.0000
     11 C2         6.4252    9.4677   -1.2574 C.ar      1 RES1    0.0000
     12 C3         7.5209    9.0547   -2.0480 C.ar      1 RES1    0.0000
     13 C4         8.2860    8.0025   -1.6658 C.ar      1 RES1    0.0000
     14 C5         7.9503    7.2448   -0.5838 C.ar      1 RES1    0.0000
     15 C6         6.9255    7.6829    0.2768 C.ar      1 RES1    0.0000
     16 C7         5.6522    6.3309    3.2877 C.3       1 RES1    0.0000
     17 C8         4.4693    5.2285    3.1007 C.3       1 RES1    0.0000
     18 C9         4.0646    5.1459    4.6339 C.3       1 RES1    0.0000
     19 C10        4.4444    6.3220    5.3190 C.3       1 RES1    0.0000
     20 C11        5.6191    7.0186    4.6725 C.3       1 RES1    0.0000
     21 C12        7.0938    5.5571    3.1352 C.2       1 RES1    0.0000
     22 C13        8.7611    3.9878    3.4464 C.2       1 RES1    0.0000
     23 C14        9.2997    3.8496    2.2349 C.2       1 RES1    0.0000
     24 C15       10.3095    2.9177    2.6140 C.2       1 RES1    0.0000
     25 C16       11.3931    2.2426    1.7827 C.3       1 RES1    0.0000
     26 H1         5.2990    8.9883    0.5274 H         1 RES1    0.0000
     27 H2         5.8248   10.3169   -1.5352 H         1 RES1    0.0000
     28 H3         9.1755    7.7655   -2.2297 H         1 RES1    0.0000
     29 H4         8.4628    6.3202   -0.3906 H         1 RES1    0.0000
     30 H5         4.8355    4.2930    2.7143 H         1 RES1    0.0000
     31 H6         3.6647    5.5804    2.4751 H         1 RES1    0.0000
     32 H7         4.5598    4.3038    5.0861 H         1 RES1    0.0000
     33 H8         2.9965    5.0220    4.7122 H         1 RES1    0.0000
     34 H9         3.6042    6.9953    5.3315 H         1 RES1    0.0000
     35 H10        4.7094    6.0634    6.3351 H         1 RES1    0.0000
     36 H11        5.4469    8.0744    4.5806 H         1 RES1    0.0000
     37 H12        6.5304    6.8480    5.2239 H         1 RES1    0.0000
     38 H13        9.0558    4.2948    1.2814 H         1 RES1    0.0000
     39 H14       11.3576    2.6107    0.7666 H         1 RES1    0.0000
     40 H15       11.2295    1.1796    1.7817 H         1 RES1    0.0000
     41 H16       12.3591    2.4562    2.2109 H         1 RES1    0.0000
@<TRIPOS>BOND
     1    1    9 1
     2    2    4 2
     3    3    4 2
     4    4   12 1
     5    5    6 2
     6    6    7 1
     7    7   21 1
     8    8   21 2
     9    9   22 2
    10   10   11 ar
    11   11   12 ar
    12   12   13 ar
    13   13   14 ar
    14   14   15 ar
    15   15    6 1
    16   16    5 1
    17   17   16 1
    18   18   17 1
    19   19   18 1
    20   20   16 1
    21   21   16 1
    22   22    8 1
    23   23   22 1
    24   24    1 1
    25   25   24 1
    26   26   10 1
    27   27   11 1
    28   28   13 1
    29   29   14 1
    30   30   17 1
    31   31   17 1
    32   32   18 1
    33   33   18 1
    34   34   19 1
    35   35   19 1
    36   36   20 1
    37   37   20 1
    38   38   23 1
    39   39   25 1
    40   40   25 1
    41   41   25 1
    42   10   15 ar
    43   19   20 1
    44   23   24 2
@<TRIPOS>SUBSTRUCTURE
     1 RES1 1

@<TRIPOS>CRYSIN
   8.6310   17.9550   11.1740  90.0000 110.8300  90.0000  14 1

