# MOL2 file generated by ConQuest
# Please check atom types

@<TRIPOS>MOLECULE
GAMLOY
    26    26     1
SMALL
USER_CHARGES
****
Generated from CSD

@<TRIPOS>ATOM
      1 O1         2.4800    6.9959    4.2897 O.2       1 RES1   -1.0000
      2 O2        -0.8231    4.5790    5.4386 O.2       1 RES1    0.0000
      3 O3        -1.6626    4.8070    2.8784 O.2       1 RES1    0.0000
      4 O4        -0.6422    6.3438    1.7466 O.2       1 RES1    0.0000
      5 N1         1.2100    5.6007    7.1692 N.2       1 RES1    0.0000
      6 N2         2.3305    6.2018    7.5064 N.pl3     1 RES1    1.0000
      7 N3         2.9836    6.8007    6.5155 N.2       1 RES1    0.0000
      8 N4         2.2059    6.5604    5.4623 N.pl3     1 RES1    0.0000
      9 N5         0.1006    5.8762    3.7455 N.am      1 RES1    0.0000
     10 H1         0.6618    6.4064    3.5890 H         1 RES1    0.0000
     11 N6        -0.8135    5.6602    2.7336 N.pl3     1 RES1    0.0000
     12 C1         2.9062    6.1076    8.8883 C.3       1 RES1    0.0000
     13 C2         3.8679    7.2743    9.0711 C.3       1 RES1    0.0000
     14 H2         4.2339    7.2565    9.9810 H         1 RES1    0.0000
     15 H3         3.3898    8.1180    8.9288 H         1 RES1    0.0000
     16 H4         4.5994    7.1996    8.4218 H         1 RES1    0.0000
     17 C3         3.6306    4.7662    8.9752 C.3       1 RES1    0.0000
     18 H5         4.0208    4.6631    9.8681 H         1 RES1    0.0000
     19 H6         4.3421    4.7354    8.3026 H         1 RES1    0.0000
     20 H7         2.9935    4.0395    8.8116 H         1 RES1    0.0000
     21 C4         1.7470    6.1879    9.8764 C.3       1 RES1    0.0000
     22 H8         2.0926    6.1230   10.7904 H         1 RES1    0.0000
     23 H9         1.1243    5.4499    9.7083 H         1 RES1    0.0000
     24 H10        1.2802    7.0421    9.7637 H         1 RES1    0.0000
     25 C5         1.1262    5.8266    5.8682 C.2       1 RES1    0.0000
     26 C6         0.0139    5.3321    5.0182 C.2       1 RES1    0.0000
@<TRIPOS>BOND
     1    1    8 1
     2    2   26 2
     3    3   11 2
     4    4   11 2
     5    5    6 1
     6    6    7 2
     7    7    8 1
     8    8   25 1
     9    9   10 1
    10   11    9 1
    11   12    6 1
    12   13   12 1
    13   14   13 1
    14   15   13 1
    15   16   13 1
    16   17   12 1
    17   18   17 1
    18   19   17 1
    19   20   17 1
    20   21   12 1
    21   22   21 1
    22   23   21 1
    23   24   21 1
    24   25    5 2
    25   26    9 1
    26   25   26 1
@<TRIPOS>SUBSTRUCTURE
     1 RES1 1

@<TRIPOS>CRYSIN
   5.6254    8.1196   21.3380  90.0000  93.4400  90.0000  14 1

