# MOL2 file generated by ConQuest
# Please check atom types

@<TRIPOS>MOLECULE
GAMQAO
    61    63     1
SMALL
NO_CHARGES
****
Generated from CSD

@<TRIPOS>ATOM
      1 O1         1.6568    6.8593    2.8174 O.3       1 RES1    0.0000
      2 O2         0.9857    8.0367    3.4306 O.3       1 RES1    0.0000
      3 O3         1.4107    3.6933    3.9102 O.2       1 RES1    0.0000
      4 O4         0.0505    2.1546    4.6182 O.2       1 RES1    0.0000
      5 O5        -2.3709   -0.6900    1.6972 O.2       1 RES1    0.0000
      6 O6        -2.4815   -0.2195   -0.4230 O.2       1 RES1    0.0000
      7 N1         1.5127    4.3022    1.3560 N.pl3     1 RES1    0.0000
      8 H1         1.8217    4.5213    2.1278 H         1 RES1    0.0000
      9 N2         1.8710    5.0042    0.2347 N.2       1 RES1    0.0000
     10 N3         0.5710    2.7943    3.7030 N.pl3     1 RES1    0.0000
     11 N4        -2.0568   -0.0112    0.7187 N.pl3     1 RES1    0.0000
     12 C1         0.6591    3.2512    1.2238 C.ar      1 RES1    0.0000
     13 C2         0.1834    2.4835    2.3333 C.ar      1 RES1    0.0000
     14 C3        -0.6980    1.4179    2.1677 C.ar      1 RES1    0.0000
     15 H2        -1.0006    0.9357    2.9029 H         1 RES1    0.0000
     16 C4        -1.1119    1.0922    0.8966 C.ar      1 RES1    0.0000
     17 C5        -0.6746    1.8145   -0.2271 C.ar      1 RES1    0.0000
     18 H3        -0.9707    1.5821   -1.0774 H         1 RES1    0.0000
     19 C6         0.1903    2.8606   -0.0610 C.ar      1 RES1    0.0000
     20 H4         0.4805    3.3302   -0.8096 H         1 RES1    0.0000
     21 C7         2.7898    5.9128    0.3408 C.2       1 RES1    0.0000
     22 C8         3.1071    6.6214   -0.9359 C.ar      1 RES1    0.0000
     23 C9         2.4741    6.2266   -2.1327 C.ar      1 RES1    0.0000
     24 H5         1.8265    5.5592   -2.1074 H         1 RES1    0.0000
     25 C10        2.7991    6.8141   -3.3443 C.ar      1 RES1    0.0000
     26 H6         2.3697    6.5392   -4.1225 H         1 RES1    0.0000
     27 C11        3.7663    7.8160   -3.4034 C.ar      1 RES1    0.0000
     28 H7         3.9917    8.2050   -4.2173 H         1 RES1    0.0000
     29 C12        4.3916    8.2286   -2.2279 C.ar      1 RES1    0.0000
     30 H8         5.0350    8.8990   -2.2611 H         1 RES1    0.0000
     31 C13        4.0637    7.6461   -1.0017 C.ar      1 RES1    0.0000
     32 H9         4.4804    7.9399   -0.2242 H         1 RES1    0.0000
     33 C14        3.5723    6.2125    1.6107 C.3       1 RES1    0.0000
     34 H10        4.4742    6.4663    1.3618 H         1 RES1    0.0000
     35 H11        3.6324    5.3972    2.1330 H         1 RES1    0.0000
     36 C15        2.9845    7.3208    2.5059 C.3       1 RES1    0.0000
     37 H12        2.9259    8.1539    1.9933 H         1 RES1    0.0000
     38 C16        3.8037    7.5589    3.7593 C.ar      1 RES1    0.0000
     39 C17        4.1346    6.5092    4.6249 C.ar      1 RES1    0.0000
     40 H13        3.8992    5.6374    4.4017 H         1 RES1    0.0000
     41 C18        4.8128    6.7548    5.8150 C.ar      1 RES1    0.0000
     42 H14        5.0262    6.0495    6.3823 H         1 RES1    0.0000
     43 C19        5.1698    8.0548    6.1571 C.ar      1 RES1    0.0000
     44 H15        5.6116    8.2210    6.9587 H         1 RES1    0.0000
     45 C20        4.8669    9.1024    5.2984 C.ar      1 RES1    0.0000
     46 H16        5.1163    9.9702    5.5188 H         1 RES1    0.0000
     47 C21        4.1863    8.8558    4.1040 C.ar      1 RES1    0.0000
     48 H17        3.9876    9.5623    3.5332 H         1 RES1    0.0000
     49 C22        0.1193    7.5766    4.5087 C.3       1 RES1    0.0000
     50 C23        0.9144    6.8982    5.6149 C.3       1 RES1    0.0000
     51 H18        1.3076    6.0896    5.2767 H         1 RES1    0.0000
     52 H19        0.3298    6.6877    6.3464 H         1 RES1    0.0000
     53 H20        1.6085    7.4887    5.9185 H         1 RES1    0.0000
     54 C24       -0.9659    6.6584    3.9500 C.3       1 RES1    0.0000
     55 H21       -1.4724    7.1295    3.2846 H         1 RES1    0.0000
     56 H22       -1.5491    6.3835    4.6605 H         1 RES1    0.0000
     57 H23       -0.5578    5.8850    3.5537 H         1 RES1    0.0000
     58 C25       -0.4735    8.8994    4.9868 C.3       1 RES1    0.0000
     59 H24        0.2352    9.4934    5.2434 H         1 RES1    0.0000
     60 H25       -1.0460    8.7396    5.7405 H         1 RES1    0.0000
     61 H26       -0.9834    9.2974    4.2775 H         1 RES1    0.0000
@<TRIPOS>BOND
     1    1    2 1
     2    2   49 1
     3    3   10 2
     4    4   10 2
     5    5   11 2
     6    6   11 2
     7    7    8 1
     8    9    7 1
     9   10   13 1
    10   11   16 1
    11   12    7 1
    12   13   12 ar
    13   14   13 ar
    14   15   14 1
    15   16   14 ar
    16   17   16 ar
    17   18   17 1
    18   19   12 ar
    19   20   19 1
    20   21    9 2
    21   22   21 1
    22   23   22 ar
    23   24   23 1
    24   25   23 ar
    25   26   25 1
    26   27   25 ar
    27   28   27 1
    28   29   27 ar
    29   30   29 1
    30   31   22 ar
    31   32   31 1
    32   33   21 1
    33   34   33 1
    34   35   33 1
    35   36    1 1
    36   37   36 1
    37   38   36 1
    38   39   38 ar
    39   40   39 1
    40   41   39 ar
    41   42   41 1
    42   43   41 ar
    43   44   43 1
    44   45   43 ar
    45   46   45 1
    46   47   38 ar
    47   48   47 1
    48   49   50 1
    49   50   51 1
    50   52   50 1
    51   53   50 1
    52   54   49 1
    53   55   54 1
    54   56   54 1
    55   57   54 1
    56   58   49 1
    57   59   58 1
    58   60   58 1
    59   61   58 1
    60   17   19 ar
    61   29   31 ar
    62   33   36 1
    63   45   47 ar
@<TRIPOS>SUBSTRUCTURE
     1 RES1 1

@<TRIPOS>CRYSIN
   9.1415   10.2680   12.8390  91.6090  93.3790  92.4500   2 1

