# MOL2 file generated by ConQuest
# Please check atom types

@<TRIPOS>MOLECULE
GANBUV
    27    29     1
SMALL
NO_CHARGES
****
Generated from CSD

@<TRIPOS>ATOM
      1 C1         1.9858    1.8128    4.9676 C.2       1 RES1    0.0000
      2 N1         3.1441    2.0518    4.4992 N.2       1 RES1    0.0000
      3 C2         1.5935    1.2796    6.3118 C.3       1 RES1    0.0000
      4 H1         2.3492    1.3117    6.9661 H         1 RES1    0.0000
      5 H2         1.6745   -0.5796    5.7656 H         1 RES1    0.0000
      6 O1         1.0319   -0.0392    6.1946 O.3       1 RES1    0.0000
      7 C3         0.4377    2.2462    6.7006 C.3       1 RES1    0.0000
      8 H3        -0.3857    1.7281    6.9323 H         1 RES1    0.0000
      9 O2         0.7732    3.1415    7.7532 O.3       1 RES1    0.0000
     10 C4         0.1729    3.1620    5.4866 C.3       1 RES1    0.0000
     11 H4        -0.7992    3.3519    5.3480 H         1 RES1    0.0000
     12 O3         0.9316    4.3408    5.8030 O.3       1 RES1    0.0000
     13 C5         1.5603    3.2913    3.2345 C.3       1 RES1    0.0000
     14 H5         1.1818    3.1308    2.3333 H         1 RES1    0.0000
     15 H6         1.5022    4.2579    3.4374 H         1 RES1    0.0000
     16 O4         2.9579    2.8258    3.3038 O.3       1 RES1    0.0000
     17 C6         0.8197    2.4754    4.2828 C.3       1 RES1    0.0000
     18 H7         0.2067    1.8048    3.8652 H         1 RES1    0.0000
     19 C7         2.6943    4.5735    7.3770 C.3       1 RES1    0.0000
     20 H8         2.9005    4.6466    8.3323 H         1 RES1    0.0000
     21 H9         2.9839    5.3894    6.9171 H         1 RES1    0.0000
     22 H10        3.1647    3.8013    6.9982 H         1 RES1    0.0000
     23 C8         0.3929    5.5009    7.8402 C.3       1 RES1    0.0000
     24 H11        0.5048    5.4643    8.8124 H         1 RES1    0.0000
     25 H12       -0.5537    5.3859    7.6154 H         1 RES1    0.0000
     26 H13        0.7037    6.3694    7.5088 H         1 RES1    0.0000
     27 C9         1.2036    4.3943    7.1944 C.3       1 RES1    0.0000
@<TRIPOS>BOND
     1    1    2 2
     2    2   16 1
     3    3    1 1
     4    4    3 1
     5    5    6 1
     6    6    3 1
     7    7    3 1
     8    8    7 1
     9    9    7 1
    10   10    7 1
    11   11   10 1
    12   12   10 1
    13   13   14 1
    14   15   13 1
    15   16   13 1
    16   17    1 1
    17   18   17 1
    18   19   20 1
    19   21   19 1
    20   22   19 1
    21   23   24 1
    22   25   23 1
    23   26   23 1
    24   27    9 1
    25   10   17 1
    26   12   27 1
    27   13   17 1
    28   19   27 1
    29   23   27 1
@<TRIPOS>SUBSTRUCTURE
     1 RES1 1

@<TRIPOS>CRYSIN
   6.0452    8.9170   16.9080  90.0000  90.0000  90.0000  19 1

