# MOL2 file generated by ConQuest
# Please check atom types

@<TRIPOS>MOLECULE
GANBOP
    42    45     1
SMALL
NO_CHARGES
****
Generated from CSD

@<TRIPOS>ATOM
      1 C1         1.1101    5.5351    6.7984 C.3       1 RES1    0.0000
      2 H1         0.2971    5.8313    6.2974 H         1 RES1    0.0000
      3 N1         2.1743    5.1128    5.8613 N.3       1 RES1    0.0000
      4 O1        -0.2816    3.5537    7.3584 O.3       1 RES1    0.0000
      5 H2        -0.9889    3.9873    7.1879 H         1 RES1    0.0000
      6 C2         0.7540    4.4209    7.7991 C.3       1 RES1    0.0000
      7 H3         1.5742    3.8664    7.9362 H         1 RES1    0.0000
      8 C3         0.4579    5.1466    9.1201 C.3       1 RES1    0.0000
      9 H4        -0.4957    5.4439    9.1662 H         1 RES1    0.0000
     10 O2         0.8225    4.3871   10.2745 O.3       1 RES1    0.0000
     11 C4         1.4108    6.3356    9.1162 C.3       1 RES1    0.0000
     12 H5         1.0440    7.1085    9.6338 H         1 RES1    0.0000
     13 O3         2.5719    5.7678    9.7499 O.3       1 RES1    0.0000
     14 C5         1.6858    6.7057    7.6517 C.3       1 RES1    0.0000
     15 H6         1.2373    7.5677    7.4160 H         1 RES1    0.0000
     16 C6         3.1560    6.7323    7.2379 C.3       1 RES1    0.0000
     17 H7         3.3289    7.4714    6.6011 H         1 RES1    0.0000
     18 H8         3.7425    6.8461    8.0271 H         1 RES1    0.0000
     19 O4         3.3811    5.4439    6.6071 O.3       1 RES1    0.0000
     20 C7         2.0834    4.8822   10.7626 C.3       1 RES1    0.0000
     21 C8         3.0513    3.7403   10.9010 C.3       1 RES1    0.0000
     22 H9         3.1596    3.2965   10.0336 H         1 RES1    0.0000
     23 H10        2.7075    3.0986   11.5557 H         1 RES1    0.0000
     24 H11        3.9190    4.0827   11.2034 H         1 RES1    0.0000
     25 C9         1.8587    5.6345   12.0618 C.3       1 RES1    0.0000
     26 H12        1.2386    6.3777   11.9055 H         1 RES1    0.0000
     27 H13        2.7132    5.9851   12.3886 H         1 RES1    0.0000
     28 H14        1.4785    5.0267   12.7294 H         1 RES1    0.0000
     29 C10        2.1671    5.9431    4.6331 C.3       1 RES1    0.0000
     30 H15        3.0834    5.9953    4.2615 H         1 RES1    0.0000
     31 H16        1.8728    6.8625    4.8560 H         1 RES1    0.0000
     32 C11        1.2378    5.3516    3.6029 C.ar      1 RES1    0.0000
     33 C12        1.4983    4.0919    3.0686 C.ar      1 RES1    0.0000
     34 H17        2.2575    3.6060    3.3684 H         1 RES1    0.0000
     35 C13        0.6733    3.5353    2.1077 C.ar      1 RES1    0.0000
     36 H18        0.8634    2.6743    1.7541 H         1 RES1    0.0000
     37 C14       -0.4393    4.2456    1.6644 C.ar      1 RES1    0.0000
     38 H19       -1.0163    3.8695    1.0109 H         1 RES1    0.0000
     39 C15       -0.6992    5.4962    2.1769 C.ar      1 RES1    0.0000
     40 H20       -1.4485    5.9882    1.8630 H         1 RES1    0.0000
     41 C16        0.1283    6.0445    3.1506 C.ar      1 RES1    0.0000
     42 H21       -0.0704    6.9015    3.5094 H         1 RES1    0.0000
@<TRIPOS>BOND
     1    1    2 1
     2    3    1 1
     3    4    5 1
     4    6    1 1
     5    7    6 1
     6    8    6 1
     7    9    8 1
     8   10    8 1
     9   11    8 1
    10   12   11 1
    11   13   11 1
    12   14    1 1
    13   15   14 1
    14   16   14 1
    15   17   16 1
    16   18   16 1
    17   19    3 1
    18   20   10 1
    19   21   20 1
    20   22   21 1
    21   23   21 1
    22   24   21 1
    23   25   20 1
    24   26   25 1
    25   27   25 1
    26   28   25 1
    27   29    3 1
    28   30   29 1
    29   31   29 1
    30   32   29 1
    31   33   32 ar
    32   34   33 1
    33   35   33 ar
    34   36   35 1
    35   37   35 ar
    36   38   37 1
    37   39   37 ar
    38   40   39 1
    39   41   32 ar
    40   42   41 1
    41    4    6 1
    42   11   14 1
    43   13   20 1
    44   16   19 1
    45   39   41 ar
@<TRIPOS>SUBSTRUCTURE
     1 RES1 1

@<TRIPOS>CRYSIN
   5.6214   10.2502   12.8180  90.0000  91.6540  90.0000   4 1

