# MOL2 file generated by ConQuest
# Please check atom types

@<TRIPOS>MOLECULE
GANTAT
    24    26     1
SMALL
NO_CHARGES
****
Generated from CSD

@<TRIPOS>ATOM
      1 O1         4.1906    4.4926    1.1192 O.2       1 RES1    0.0000
      2 O2         4.3219    3.2582   -0.6751 O.2       1 RES1    0.0000
      3 O3        -0.2509    0.1791    2.7911 O.2       1 RES1    0.0000
      4 O4        -0.2149    2.1283    3.7707 O.2       1 RES1    0.0000
      5 N1         1.3148    8.9259    0.8554 N.2       1 RES1    0.0000
      6 N2         1.1702    8.6225   -0.4514 N.2       1 RES1    0.0000
      7 N3         1.3490    6.7376    0.6185 N.pl3     1 RES1    0.0000
      8 N4         1.4492    5.4264    0.9767 N.2       1 RES1    0.0000
      9 N5         1.6838    6.3189    3.2251 N.2       1 RES1    0.0000
     10 N6         1.5873    7.5514    2.8299 N.2       1 RES1    0.0000
     11 N7         1.7714    4.0622    2.8119 N.3       1 RES1    0.0000
     12 N8         2.6957    1.4543    0.4332 N.2       1 RES1    0.0000
     13 N9         1.7716    0.8613    1.1899 N.3       1 RES1    0.0000
     14 N10        3.8399    3.5460    0.4207 N.pl3     1 RES1    0.0000
     15 N11        0.2148    1.3068    2.9717 N.pl3     1 RES1    0.0000
     16 C1         1.4258    7.7785    1.5116 C.2       1 RES1    0.0000
     17 C2         1.1956    7.2967   -0.5887 C.2       1 RES1    0.0000
     18 C3         1.6268    5.3043    2.2666 C.2       1 RES1    0.0000
     19 C4         1.9503    2.9206    2.0385 C.2       1 RES1    0.0000
     20 C5         2.8125    2.6822    0.9494 C.2       1 RES1    0.0000
     21 C6         1.3052    1.6940    2.1405 C.2       1 RES1    0.0000
     22 H1         1.1709    6.7988   -1.3949 H         1 RES1    0.0000
     23 H2         1.6559    4.0145    3.6630 H         1 RES1    0.0000
     24 H3         1.5743   -0.1295    1.0660 H         1 RES1    0.0000
@<TRIPOS>BOND
     1    1   14 2
     2    2   14 2
     3    3   15 2
     4    4   15 2
     5    5    6 1
     6    6   17 2
     7    7    8 1
     8    8   18 2
     9    9   10 2
    10   10   16 1
    11   11   18 1
    12   12   13 1
    13   13   21 1
    14   14   20 1
    15   15   21 1
    16   16    5 2
    17   17    7 1
    18   18    9 1
    19   19   11 1
    20   20   12 2
    21   21   19 2
    22   22   17 1
    23   23   11 1
    24   24   13 1
    25    7   16 1
    26   19   20 1
@<TRIPOS>SUBSTRUCTURE
     1 RES1 1

@<TRIPOS>CRYSIN
   8.5068   10.7917   11.8488  90.0000 106.8420  90.0000  14 1

