# MOL2 file generated by ConQuest
# Please check atom types

@<TRIPOS>MOLECULE
GANTAT01
    24    26     1
SMALL
NO_CHARGES
****
Generated from CSD

@<TRIPOS>ATOM
      1 O1         4.2702    4.4603    1.1172 O.2       1 RES1    0.0000
      2 O2         4.3828    3.2200   -0.6633 O.2       1 RES1    0.0000
      3 O3        -0.1986    0.2153    2.8536 O.2       1 RES1    0.0000
      4 O4        -0.1425    2.1619    3.8026 O.2       1 RES1    0.0000
      5 N1         1.3350    8.9134    0.8641 N.2       1 RES1    0.0000
      6 N2         1.1574    8.6045   -0.4377 N.2       1 RES1    0.0000
      7 N3         1.3811    6.7308    0.6293 N.pl3     1 RES1    0.0000
      8 N4         1.4999    5.4201    0.9914 N.2       1 RES1    0.0000
      9 N5         1.7793    6.3234    3.2249 N.2       1 RES1    0.0000
     10 N6         1.6610    7.5520    2.8279 N.2       1 RES1    0.0000
     11 N7         1.8655    4.0704    2.8239 N.3       1 RES1    0.0000
     12 N8         2.7470    1.4415    0.4588 N.2       1 RES1    0.0000
     13 N9         1.8146    0.8689    1.2202 N.3       1 RES1    0.0000
     14 N10        3.9081    3.5135    0.4285 N.pl3     1 RES1    0.0000
     15 N11        0.2748    1.3364    3.0150 N.pl3     1 RES1    0.0000
     16 C1         1.4727    7.7716    1.5121 C.2       1 RES1    0.0000
     17 C2         1.1906    7.2844   -0.5680 C.2       1 RES1    0.0000
     18 C3         1.7039    5.3058    2.2710 C.2       1 RES1    0.0000
     19 C4         2.0200    2.9216    2.0537 C.2       1 RES1    0.0000
     20 C5         2.8737    2.6693    0.9677 C.2       1 RES1    0.0000
     21 C6         1.3625    1.7104    2.1647 C.2       1 RES1    0.0000
     22 H1         1.1393    6.8005   -1.3715 H         1 RES1    0.0000
     23 H2         1.7922    4.0200    3.6574 H         1 RES1    0.0000
     24 H3         1.6205   -0.1186    1.1315 H         1 RES1    0.0000
@<TRIPOS>BOND
     1    1   14 2
     2    2   14 2
     3    3   15 2
     4    4   15 2
     5    5    6 1
     6    6   17 2
     7    7    8 1
     8    8   18 2
     9    9   10 2
    10   10   16 1
    11   11   18 1
    12   12   13 1
    13   13   21 1
    14   14   20 1
    15   15   21 1
    16   16    5 2
    17   17    7 1
    18   18    9 1
    19   19   11 1
    20   20   12 2
    21   21   19 2
    22   22   17 1
    23   23   11 1
    24   24   13 1
    25    7   16 1
    26   19   20 1
@<TRIPOS>SUBSTRUCTURE
     1 RES1 1

@<TRIPOS>CRYSIN
   8.6514   10.7774   11.8947  90.0000 106.0770  90.0000  14 1

