# MOL2 file generated by ConQuest
# Please check atom types

@<TRIPOS>MOLECULE
GAPHOW
    49    53     1
SMALL
NO_CHARGES
****
Generated from CSD

@<TRIPOS>ATOM
      1 C1         9.1176    7.3611    9.5636 C.2       1 RES1    0.0000
      2 C2         9.4201    9.5115    8.6239 C.ar      1 RES1    0.0000
      3 C3        10.3022   10.5709    8.4250 C.ar      1 RES1    0.0000
      4 H1        11.1559   10.5581    8.7948 H         1 RES1    0.0000
      5 C4         9.8785   11.6336    7.6665 C.ar      1 RES1    0.0000
      6 H2        10.4542   12.3454    7.5113 H         1 RES1    0.0000
      7 C5         8.6011   11.6558    7.1300 C.ar      1 RES1    0.0000
      8 H3         8.3294   12.3836    6.6185 H         1 RES1    0.0000
      9 C6         7.7409   10.6290    7.3436 C.ar      1 RES1    0.0000
     10 H4         6.8840   10.6572    6.9842 H         1 RES1    0.0000
     11 C7         8.1420    9.5378    8.0978 C.ar      1 RES1    0.0000
     12 C8         7.2853    8.3933    8.3709 C.2       1 RES1    0.0000
     13 C9         7.7273    7.3825    9.1497 C.2       1 RES1    0.0000
     14 C10        6.9162    6.1710    9.5824 C.3       1 RES1    0.0000
     15 H5         7.4246    5.7977   10.3325 H         1 RES1    0.0000
     16 C11        6.9423    5.0749    8.5335 C.2       1 RES1    0.0000
     17 C12        5.9768    5.1527    7.4561 C.2       1 RES1    0.0000
     18 C13        6.8850    3.1618    6.5289 C.ar      1 RES1    0.0000
     19 C14        6.8098    2.2380    5.4798 C.ar      1 RES1    0.0000
     20 H6         6.1333    2.2840    4.8443 H         1 RES1    0.0000
     21 C15        7.7832    1.2528    5.4256 C.ar      1 RES1    0.0000
     22 H7         7.7552    0.6170    4.7464 H         1 RES1    0.0000
     23 C16        8.7916    1.2011    6.3612 C.ar      1 RES1    0.0000
     24 H8         9.4429    0.5406    6.2997 H         1 RES1    0.0000
     25 C17        8.8449    2.0927    7.3613 C.ar      1 RES1    0.0000
     26 H9         9.5326    2.0392    7.9853 H         1 RES1    0.0000
     27 C18        7.8924    3.0947    7.4780 C.ar      1 RES1    0.0000
     28 C19        7.8850    4.1042    8.5052 C.2       1 RES1    0.0000
     29 C20        5.5466    6.4806   10.1783 C.ar      1 RES1    0.0000
     30 C21        5.3010    7.7048   10.7836 C.ar      1 RES1    0.0000
     31 H10        5.9288    8.3859   10.7065 H         1 RES1    0.0000
     32 C22        4.1464    7.9308   11.4972 C.ar      1 RES1    0.0000
     33 H11        3.9959    8.7510   11.9087 H         1 RES1    0.0000
     34 C23        3.2213    6.9226   11.5878 C.ar      1 RES1    0.0000
     35 C24        3.3926    5.7233   10.9471 C.ar      1 RES1    0.0000
     36 H12        2.7326    5.0689   10.9773 H         1 RES1    0.0000
     37 C25        4.5672    5.5121   10.2564 C.ar      1 RES1    0.0000
     38 H13        4.7032    4.6953    9.8324 H         1 RES1    0.0000
     39 N1         2.0244    7.1194   12.4327 N.pl3     1 RES1    0.0000
     40 O1         9.6676    6.4095   10.0955 O.2       1 RES1    0.0000
     41 O2         9.8936    8.4325    9.3167 O.3       1 RES1    0.0000
     42 O3         6.0868    8.4481    7.8112 O.3       1 RES1    0.0000
     43 H14        5.7649    7.6954    7.7811 H         1 RES1    0.0000
     44 O4         5.9379    4.1624    6.5331 O.3       1 RES1    0.0000
     45 O5         5.1888    6.0662    7.2956 O.2       1 RES1    0.0000
     46 O6         8.8865    4.0147    9.3864 O.3       1 RES1    0.0000
     47 H15        9.0844    4.7647    9.6532 H         1 RES1    0.0000
     48 O7         1.1769    6.2378   12.4369 O.2       1 RES1    0.0000
     49 O8         1.9461    8.1322   13.0870 O.2       1 RES1    0.0000
@<TRIPOS>BOND
     1    1   13 1
     2    2    3 ar
     3    3    4 1
     4    5    3 ar
     5    6    5 1
     6    7    5 ar
     7    8    7 1
     8    9    7 ar
     9   10    9 1
    10   11    2 ar
    11   12   11 1
    12   13   12 2
    13   14   13 1
    14   15   14 1
    15   16   14 1
    16   17   16 1
    17   18   19 ar
    18   19   20 1
    19   21   19 ar
    20   22   21 1
    21   23   21 ar
    22   24   23 1
    23   25   23 ar
    24   26   25 1
    25   27   18 ar
    26   28   16 2
    27   29   14 1
    28   30   29 ar
    29   31   30 1
    30   32   30 ar
    31   33   32 1
    32   34   32 ar
    33   35   34 ar
    34   36   35 1
    35   37   29 ar
    36   38   37 1
    37   39   34 1
    38   40    1 2
    39   41    1 1
    40   42   12 1
    41   43   42 1
    42   44   17 1
    43   45   17 2
    44   46   28 1
    45   47   46 1
    46   48   39 2
    47   49   39 2
    48    2   41 1
    49    9   11 ar
    50   18   44 1
    51   25   27 ar
    52   27   28 1
    53   35   37 ar
@<TRIPOS>SUBSTRUCTURE
     1 RES1 1

@<TRIPOS>CRYSIN
  14.0061   14.1511   10.4179  90.0000  90.0000  90.0000  33 1

