# MOL2 file generated by ConQuest
# Please check atom types

@<TRIPOS>MOLECULE
GAPKIT
    52    56     1
SMALL
NO_CHARGES
****
Generated from CSD

@<TRIPOS>ATOM
      1 C1         3.7737    6.8558    4.7810 C.ar      1 RES1    0.0000
      2 H1         3.7283    7.7208    5.1200 H         1 RES1    0.0000
      3 C2         3.5797    5.7657    5.6165 C.ar      1 RES1    0.0000
      4 H2         3.4185    5.9003    6.5222 H         1 RES1    0.0000
      5 C3         3.6243    4.4767    5.1094 C.ar      1 RES1    0.0000
      6 H3         3.4795    3.7566    5.6802 H         1 RES1    0.0000
      7 C4         3.8783    4.2424    3.7802 C.ar      1 RES1    0.0000
      8 H4         3.9082    3.3772    3.4394 H         1 RES1    0.0000
      9 C5         4.0863    5.3429    2.9660 C.ar      1 RES1    0.0000
     10 C6         4.0354    6.6459    3.4410 C.ar      1 RES1    0.0000
     11 C7         4.5873    6.5757    1.1315 C.2       1 RES1    0.0000
     12 C8         4.2787    7.5950    2.2620 C.3       1 RES1    0.0000
     13 C9         3.0686    8.5369    1.9313 C.3       1 RES1    0.0000
     14 C10        2.9055    8.8960    0.4400 C.3       1 RES1    0.0000
     15 H5         2.7573    8.0819   -0.0660 H         1 RES1    0.0000
     16 H6         2.1210    9.4566    0.3343 H         1 RES1    0.0000
     17 C11        6.5839    8.2329    3.0647 C.3       1 RES1    0.0000
     18 H7         7.2878    7.9883    2.4443 H         1 RES1    0.0000
     19 H8         6.4371    7.4970    3.6787 H         1 RES1    0.0000
     20 C12        6.9409    9.4848    3.8095 C.3       1 RES1    0.0000
     21 H9         7.5400   10.0359    3.2818 H         1 RES1    0.0000
     22 H10        7.3736    9.2703    4.6504 H         1 RES1    0.0000
     23 C13        5.6368   10.2008    4.0514 C.3       1 RES1    0.0000
     24 H11        5.7730   11.1556    4.1573 H         1 RES1    0.0000
     25 H12        5.1836    9.8544    4.8360 H         1 RES1    0.0000
     26 C14        4.8583    9.8877    2.7759 C.3       1 RES1    0.0000
     27 H13        5.0781   10.5529    2.0909 H         1 RES1    0.0000
     28 C15        3.3315    9.7407    2.8704 C.3       1 RES1    0.0000
     29 H14        3.1310    9.4394    3.7816 H         1 RES1    0.0000
     30 C16        2.5234   11.0011    2.6374 C.ar      1 RES1    0.0000
     31 C17        1.4512   11.2845    3.4744 C.ar      1 RES1    0.0000
     32 H15        1.2597   10.7106    4.1808 H         1 RES1    0.0000
     33 C18        0.6634   12.4034    3.2770 C.ar      1 RES1    0.0000
     34 H16       -0.0525   12.5615    3.8487 H         1 RES1    0.0000
     35 C19        0.9149   13.2912    2.2502 C.ar      1 RES1    0.0000
     36 C20        1.9994   13.0327    1.4360 C.ar      1 RES1    0.0000
     37 H17        2.2049   13.6277    0.7514 H         1 RES1    0.0000
     38 C21        2.7927   11.9058    1.6138 C.ar      1 RES1    0.0000
     39 H18        3.5110   11.7545    1.0432 H         1 RES1    0.0000
     40 C22        0.0306   14.4716    1.9982 C.3       1 RES1    0.0000
     41 H19       -0.6322   14.5286    2.6903 H         1 RES1    0.0000
     42 H20       -0.4020   14.3718    1.1472 H         1 RES1    0.0000
     43 H21        0.5602   15.2732    1.9959 H         1 RES1    0.0000
     44 N1         4.3945    5.3301    1.6056 N.am      1 RES1    0.0000
     45 H22        4.4543    4.6163    1.1293 H         1 RES1    0.0000
     46 N2         1.7886    7.8020    2.2807 N.pl3     1 RES1    0.0000
     47 N3         5.3480    8.5666    2.3460 N.3       1 RES1    0.0000
     48 O1         1.0543    8.2419    3.1313 O.2       1 RES1    0.0000
     49 O2         1.5651    6.7751    1.6569 O.2       1 RES1    0.0000
     50 O3         4.0190    9.5657   -0.0888 O.3       1 RES1    0.0000
     51 H23        4.6703    9.0678   -0.0727 H         1 RES1    0.0000
     52 O4         4.9739    6.8623    0.0023 O.2       1 RES1    0.0000
@<TRIPOS>BOND
     1    1    2 1
     2    3    1 ar
     3    4    3 1
     4    5    3 ar
     5    6    5 1
     6    7    5 ar
     7    8    7 1
     8    9    7 ar
     9   10    1 ar
    10   11   12 1
    11   12   10 1
    12   13   12 1
    13   14   13 1
    14   15   14 1
    15   16   14 1
    16   17   18 1
    17   19   17 1
    18   20   17 1
    19   21   20 1
    20   22   20 1
    21   23   20 1
    22   24   23 1
    23   25   23 1
    24   26   23 1
    25   27   26 1
    26   28   13 1
    27   29   28 1
    28   30   28 1
    29   31   30 ar
    30   32   31 1
    31   33   31 ar
    32   34   33 1
    33   35   33 ar
    34   36   35 ar
    35   37   36 1
    36   38   30 ar
    37   39   38 1
    38   40   35 1
    39   41   40 1
    40   42   40 1
    41   43   40 1
    42   44    9 1
    43   45   44 1
    44   46   13 1
    45   47   12 1
    46   48   46 2
    47   49   46 2
    48   50   14 1
    49   51   50 1
    50   52   11 2
    51    9   10 ar
    52   11   44 1
    53   17   47 1
    54   26   28 1
    55   26   47 1
    56   36   38 ar
@<TRIPOS>SUBSTRUCTURE
     1 RES1 1

@<TRIPOS>CRYSIN
   8.9172    9.9953   11.5931  81.2570  76.6380  83.8050   2 1

