# MOL2 file generated by ConQuest
# Please check atom types

@<TRIPOS>MOLECULE
GAPLIU
    48    52     1
SMALL
NO_CHARGES
****
Generated from CSD

@<TRIPOS>ATOM
      1 C1         6.3993    2.0513    4.7889 C.ar      1 RES1    0.0000
      2 C2         6.5844    0.7422    5.1875 C.ar      1 RES1    0.0000
      3 H1         6.2150    0.0492    4.6884 H         1 RES1    0.0000
      4 C3         7.3063    0.4616    6.3050 C.ar      1 RES1    0.0000
      5 H2         7.4366   -0.4183    6.5744 H         1 RES1    0.0000
      6 C4         7.8456    1.5090    7.0404 C.ar      1 RES1    0.0000
      7 H3         8.3355    1.3308    7.8111 H         1 RES1    0.0000
      8 C5         7.6604    2.7965    6.6376 C.ar      1 RES1    0.0000
      9 H4         8.0335    3.4855    7.1375 H         1 RES1    0.0000
     10 C6         6.9260    3.1114    5.4965 C.ar      1 RES1    0.0000
     11 C7         6.7768    4.5062    5.0287 C.3       1 RES1    0.0000
     12 H5         7.6550    4.9383    4.9888 H         1 RES1    0.0000
     13 C8         6.0712    4.6332    3.6723 C.3       1 RES1    0.0000
     14 C9         5.0554    3.5002    3.5644 C.3       1 RES1    0.0000
     15 H6         4.4064    3.5839    4.2799 H         1 RES1    0.0000
     16 H7         4.5817    3.5751    2.7207 H         1 RES1    0.0000
     17 C10        7.0321    4.5407    2.5776 C.1       1 RES1    0.0000
     18 C11        5.3871    6.0240    3.7684 C.3       1 RES1    0.0000
     19 H8         4.4163    5.8941    3.7609 H         1 RES1    0.0000
     20 C12        5.7377    7.0320    2.7256 C.ar      1 RES1    0.0000
     21 C13        6.8613    7.8175    2.8351 C.ar      1 RES1    0.0000
     22 H9         7.4231    7.7161    3.5688 H         1 RES1    0.0000
     23 C14        7.1651    8.7506    1.8727 C.ar      1 RES1    0.0000
     24 H10        7.9157    9.2880    1.9809 H         1 RES1    0.0000
     25 C15        6.3831    8.9022    0.7597 C.ar      1 RES1    0.0000
     26 C16        5.2819    8.0862    0.6360 C.ar      1 RES1    0.0000
     27 H11        4.7336    8.1610   -0.1126 H         1 RES1    0.0000
     28 C17        4.9889    7.1698    1.6033 C.ar      1 RES1    0.0000
     29 H12        4.2491    6.6186    1.4885 H         1 RES1    0.0000
     30 C18        6.6761    9.9820   -0.2495 C.3       1 RES1    0.0000
     31 H13        6.4999    9.6503   -1.1329 H         1 RES1    0.0000
     32 H14        7.5984   10.2409   -0.1833 H         1 RES1    0.0000
     33 H15        6.1170   10.7429   -0.0773 H         1 RES1    0.0000
     34 C19        6.4208    5.7130    7.1159 C.ar      1 RES1    0.0000
     35 C20        5.8159    5.2602    8.2398 C.ar      1 RES1    0.0000
     36 H16        5.0410    4.7493    8.1777 H         1 RES1    0.0000
     37 C21        6.3444    5.5545    9.4696 C.ar      1 RES1    0.0000
     38 H17        5.9238    5.2454   10.2404 H         1 RES1    0.0000
     39 C22        7.4762    6.2918    9.5712 C.ar      1 RES1    0.0000
     40 H18        7.8312    6.4886   10.4082 H         1 RES1    0.0000
     41 C23        8.0946    6.7455    8.4427 C.ar      1 RES1    0.0000
     42 H19        8.8757    7.2456    8.5090 H         1 RES1    0.0000
     43 C24        7.5651    6.4640    7.2016 C.ar      1 RES1    0.0000
     44 H20        7.9795    6.7800    6.4309 H         1 RES1    0.0000
     45 N1         5.8617    5.3114    5.8558 N.3       1 RES1    0.0000
     46 N2         7.7926    4.4521    1.7449 N.1       1 RES1    0.0000
     47 O1         5.6631    2.2482    3.6408 O.3       1 RES1    0.0000
     48 O2         5.7628    6.5182    5.0367 O.3       1 RES1    0.0000
@<TRIPOS>BOND
     1    1    2 ar
     2    2    3 1
     3    4    2 ar
     4    5    4 1
     5    6    4 ar
     6    7    6 1
     7    8    6 ar
     8    9    8 1
     9   10    1 ar
    10   11   10 1
    11   12   11 1
    12   13   11 1
    13   14   13 1
    14   15   14 1
    15   16   14 1
    16   17   13 1
    17   18   13 1
    18   19   18 1
    19   20   18 1
    20   21   20 ar
    21   22   21 1
    22   23   21 ar
    23   24   23 1
    24   25   23 ar
    25   26   25 ar
    26   27   26 1
    27   28   20 ar
    28   29   28 1
    29   30   25 1
    30   31   30 1
    31   32   30 1
    32   33   30 1
    33   34   35 ar
    34   35   36 1
    35   37   35 ar
    36   38   37 1
    37   39   37 ar
    38   40   39 1
    39   41   39 ar
    40   42   41 1
    41   43   34 ar
    42   44   43 1
    43   45   11 1
    44   46   17 3
    45   47    1 1
    46   48   18 1
    47    8   10 ar
    48   14   47 1
    49   26   28 ar
    50   34   45 1
    51   41   43 ar
    52   45   48 1
@<TRIPOS>SUBSTRUCTURE
     1 RES1 1

@<TRIPOS>CRYSIN
   8.9890    9.8432   22.0840  90.0000  90.0000  90.0000  19 1

