# MOL2 file generated by ConQuest
# Please check atom types

@<TRIPOS>MOLECULE
GAPPUL
    56    60     1
SMALL
NO_CHARGES
****
Generated from CSD

@<TRIPOS>ATOM
      1 O1         0.3733   -5.4411   -1.6370 O.3       1 RES1    0.0000
      2 C1         0.9840   -4.8689    0.5814 C.2       1 RES1    0.0000
      3 O2         1.8492   -7.0690    0.2038 O.2       1 RES1    0.0000
      4 C2         1.9997   -5.9383    0.7034 C.2       1 RES1    0.0000
      5 N1         5.8196   -5.1727    3.7506 N.3       1 RES1    0.0000
      6 C3        -0.5415   -5.3059   -2.6604 C.ar      1 RES1    0.0000
      7 C4        -2.2164   -5.3040   -4.8028 C.ar      1 RES1    0.0000
      8 C5         0.2206   -4.6873   -0.4939 C.2       1 RES1    0.0000
      9 H1        -0.4364   -4.0303   -0.4743 H         1 RES1    0.0000
     10 N2         3.0981   -5.6266    1.4390 N.am      1 RES1    0.0000
     11 C6         5.4823   -6.2491    1.5622 C.3       1 RES1    0.0000
     12 H2         5.5961   -6.0784    0.6044 H         1 RES1    0.0000
     13 O3        -2.9983   -6.1722   -6.8013 O.2       1 RES1    0.0000
     14 C7        -2.5396   -4.5936   -3.7161 C.ar      1 RES1    0.0000
     15 H3        -3.3296   -4.1043   -3.6965 H         1 RES1    0.0000
     16 N3        -3.1480   -5.3296   -5.9414 N.pl3     1 RES1    0.0000
     17 C8         5.7987   -4.9567    2.2990 C.3       1 RES1    0.0000
     18 H4         6.6838   -4.6439    2.0169 H         1 RES1    0.0000
     19 C9         0.9135   -3.9099    1.7095 C.3       1 RES1    0.0000
     20 H5         0.6459   -4.3667    2.5223 H         1 RES1    0.0000
     21 H6         0.2641   -3.2143    1.5184 H         1 RES1    0.0000
     22 C10        5.0981   -2.5948    2.6616 C.3       1 RES1    0.0000
     23 H7         4.4235   -1.9229    2.4716 H         1 RES1    0.0000
     24 H8         5.9525   -2.2613    2.3473 H         1 RES1    0.0000
     25 C11        3.3325   -4.3736    2.1954 C.3       1 RES1    0.0000
     26 H9         3.2597   -4.5837    3.1497 H         1 RES1    0.0000
     27 C12       -0.2123   -5.9867   -3.8013 C.ar      1 RES1    0.0000
     28 H10        0.6009   -6.4356   -3.8531 H         1 RES1    0.0000
     29 C13        5.1662   -2.8394    4.1674 C.3       1 RES1    0.0000
     30 H11        5.4359   -2.0245    4.6186 H         1 RES1    0.0000
     31 H12        4.2891   -3.0910    4.4966 H         1 RES1    0.0000
     32 C14       -1.0778   -6.0123   -4.8788 C.ar      1 RES1    0.0000
     33 H13       -0.8769   -6.5086   -5.6386 H         1 RES1    0.0000
     34 O4        -4.0671   -4.5245   -5.9460 O.2       1 RES1    0.0000
     35 C15        4.0403   -6.6773    1.7855 C.3       1 RES1    0.0000
     36 H14        3.8540   -7.4636    1.2479 H         1 RES1    0.0000
     37 H15        3.9195   -6.9190    2.7168 H         1 RES1    0.0000
     38 C16        6.1521   -3.9365    4.4690 C.3       1 RES1    0.0000
     39 H16        7.0420   -3.6465    4.2146 H         1 RES1    0.0000
     40 H17        6.1564   -4.1102    5.4233 H         1 RES1    0.0000
     41 C17        2.2971   -3.3051    1.8753 C.3       1 RES1    0.0000
     42 H18        2.2777   -2.6510    2.5914 H         1 RES1    0.0000
     43 H19        2.5485   -2.8483    1.0580 H         1 RES1    0.0000
     44 C18        4.7560   -3.8754    1.9352 C.3       1 RES1    0.0000
     45 H20        4.8356   -3.7007    0.9739 H         1 RES1    0.0000
     46 C19        6.8191   -6.1761    4.0983 C.3       1 RES1    0.0000
     47 H21        6.8380   -6.2837    5.0619 H         1 RES1    0.0000
     48 H22        7.6932   -5.8614    3.8174 H         1 RES1    0.0000
     49 C20        6.4679   -7.3581    1.9559 C.3       1 RES1    0.0000
     50 H23        6.1814   -8.1967    1.5622 H         1 RES1    0.0000
     51 H24        7.3467   -7.1469    1.6036 H         1 RES1    0.0000
     52 C21       -1.6826   -4.5906   -2.6086 C.ar      1 RES1    0.0000
     53 H25       -1.8971   -4.1013   -1.8477 H         1 RES1    0.0000
     54 C22        6.5529   -7.5130    3.4617 C.3       1 RES1    0.0000
     55 H26        5.7205   -7.8770    3.8001 H         1 RES1    0.0000
     56 H27        7.2672   -8.1306    3.6862 H         1 RES1    0.0000
@<TRIPOS>BOND
     1    1    6 1
     2    2    4 1
     3    3    4 2
     4    4   10 1
     5    5   17 1
     6    6   27 ar
     7    7   14 ar
     8    8    1 1
     9    9    8 1
    10   10   25 1
    11   11   12 1
    12   13   16 2
    13   14   15 1
    14   16    7 1
    15   17   11 1
    16   18   17 1
    17   19    2 1
    18   20   19 1
    19   21   19 1
    20   22   23 1
    21   24   22 1
    22   25   26 1
    23   27   28 1
    24   29   22 1
    25   30   29 1
    26   31   29 1
    27   32    7 ar
    28   33   32 1
    29   34   16 2
    30   35   10 1
    31   36   35 1
    32   37   35 1
    33   38    5 1
    34   39   38 1
    35   40   38 1
    36   41   19 1
    37   42   41 1
    38   43   41 1
    39   44   17 1
    40   45   44 1
    41   46    5 1
    42   47   46 1
    43   48   46 1
    44   49   11 1
    45   50   49 1
    46   51   49 1
    47   52    6 ar
    48   53   52 1
    49   54   46 1
    50   55   54 1
    51   56   54 1
    52    2    8 2
    53   11   35 1
    54   14   52 ar
    55   22   44 1
    56   25   41 1
    57   25   44 1
    58   27   32 ar
    59   29   38 1
    60   49   54 1
@<TRIPOS>SUBSTRUCTURE
     1 RES1 1

@<TRIPOS>CRYSIN
   8.8606    9.8660   12.1556  90.0000 108.7270  90.0000   4 1

