# MOL2 file generated by ConQuest
# Please check atom types

@<TRIPOS>MOLECULE
GAQCUY
    44    46     1
SMALL
NO_CHARGES
****
Generated from CSD

@<TRIPOS>ATOM
      1 O1         2.4307    0.8066    4.4223 O.3       1 RES1    0.0000
      2 O2         5.9823    2.5695    0.1997 O.3       1 RES1    0.0000
      3 O3         2.2241    5.3928    1.6482 O.2       1 RES1    0.0000
      4 O4        -0.4001    4.9312   -3.0809 O.2       1 RES1    0.0000
      5 O5        -2.0933    3.6441   -2.9405 O.2       1 RES1    0.0000
      6 O6        -1.9953    1.5371    2.4640 O.2       1 RES1    0.0000
      7 O7        -2.0877    0.2502    0.7300 O.2       1 RES1    0.0000
      8 N1        -1.0399    4.0796   -2.5110 N.pl3     1 RES1    0.0000
      9 N2        -1.6784    1.2311    1.3265 N.pl3     1 RES1    0.0000
     10 N3         0.9737    2.0116    2.3255 N.3       1 RES1    0.0000
     11 N4         3.4867    3.7428    0.7582 N.am      1 RES1    0.0000
     12 C1        -0.5465    3.5704   -1.2354 C.ar      1 RES1    0.0000
     13 C2        -1.2498    2.5889   -0.6025 C.ar      1 RES1    0.0000
     14 H1        -2.0225    2.2325   -0.9782 H         1 RES1    0.0000
     15 C3        -0.7785    2.1426    0.6147 C.ar      1 RES1    0.0000
     16 C4         0.4099    2.6018    1.2142 C.ar      1 RES1    0.0000
     17 C5         1.0673    3.6542    0.5335 C.ar      1 RES1    0.0000
     18 C6         0.5931    4.1225   -0.6761 C.ar      1 RES1    0.0000
     19 H2         1.0405    4.8097   -1.1163 H         1 RES1    0.0000
     20 C7         1.4152    2.7899    3.4846 C.3       1 RES1    0.0000
     21 H3         0.7159    2.8057    4.1555 H         1 RES1    0.0000
     22 H4         1.6005    3.7042    3.2160 H         1 RES1    0.0000
     23 C8         2.6608    2.1641    4.0583 C.3       1 RES1    0.0000
     24 H5         3.3737    2.2066    3.4034 H         1 RES1    0.0000
     25 H6         2.9407    2.6634    4.8407 H         1 RES1    0.0000
     26 C9         2.0209    0.0616    3.2843 C.3       1 RES1    0.0000
     27 H7         1.8777   -0.8620    3.5423 H         1 RES1    0.0000
     28 H8         2.7269    0.0797    2.6196 H         1 RES1    0.0000
     29 C10        0.7547    0.6092    2.6780 C.3       1 RES1    0.0000
     30 H9         0.5206    0.1013    1.8857 H         1 RES1    0.0000
     31 H10        0.0251    0.5366    3.3131 H         1 RES1    0.0000
     32 C11        2.3180    4.3307    1.0396 C.2       1 RES1    0.0000
     33 C12        4.7316    4.4772    0.9986 C.3       1 RES1    0.0000
     34 H11        4.6229    5.0597    1.7674 H         1 RES1    0.0000
     35 H12        4.9382    5.0295    0.2284 H         1 RES1    0.0000
     36 C13        5.8627    3.5168    1.2498 C.3       1 RES1    0.0000
     37 H13        6.6931    4.0124    1.3310 H         1 RES1    0.0000
     38 H14        5.7094    3.0513    2.0861 H         1 RES1    0.0000
     39 C14        4.8043    1.7890    0.1381 C.3       1 RES1    0.0000
     40 H15        4.6666    1.3468    0.9903 H         1 RES1    0.0000
     41 H16        4.9067    1.1055   -0.5418 H         1 RES1    0.0000
     42 C15        3.6081    2.6330   -0.1829 C.3       1 RES1    0.0000
     43 H17        3.6902    2.9802   -1.0844 H         1 RES1    0.0000
     44 H18        2.8072    2.0859   -0.1434 H         1 RES1    0.0000
@<TRIPOS>BOND
     1    1   23 1
     2    2   36 1
     3    3   32 2
     4    4    8 2
     5    5    8 2
     6    6    9 2
     7    7    9 2
     8    8   12 1
     9    9   15 1
    10   10   16 1
    11   11   32 1
    12   12   13 ar
    13   13   14 1
    14   15   13 ar
    15   16   15 ar
    16   17   16 ar
    17   18   12 ar
    18   19   18 1
    19   20   10 1
    20   21   20 1
    21   22   20 1
    22   23   20 1
    23   24   23 1
    24   25   23 1
    25   26    1 1
    26   27   26 1
    27   28   26 1
    28   29   10 1
    29   30   29 1
    30   31   29 1
    31   32   17 1
    32   33   11 1
    33   34   33 1
    34   35   33 1
    35   36   33 1
    36   37   36 1
    37   38   36 1
    38   39    2 1
    39   40   39 1
    40   41   39 1
    41   42   11 1
    42   43   42 1
    43   44   42 1
    44   17   18 ar
    45   26   29 1
    46   39   42 1
@<TRIPOS>SUBSTRUCTURE
     1 RES1 1

@<TRIPOS>CRYSIN
  10.2640   21.5488    8.0061  90.0000 108.5870  90.0000  14 1

