# MOL2 file generated by ConQuest
# Please check atom types

@<TRIPOS>MOLECULE
GAQMIV
    38    40     2
SMALL
NO_CHARGES
****
Generated from CSD

@<TRIPOS>ATOM
      1 N1         1.7981    4.0854    8.8807 N.pl3     1 RES1    0.0000
      2 H1         2.1303    3.4730    9.4018 H         1 RES1    0.0000
      3 N2         2.3146    5.3169    8.9420 N.2       1 RES1    0.0000
      4 C1         1.8418    6.2254    8.1504 C.2       1 RES1    0.0000
      5 H2         2.2246    7.2176    8.2540 H         1 RES1    0.0000
      6 C2         0.7985    6.0131    7.1754 C.2       1 RES1    0.0000
      7 O1         0.3567    6.9283    6.4859 O.2       1 RES1    0.0000
      8 C3         0.3100    4.6477    7.1040 C.ar      1 RES1    0.0000
      9 C4        -0.6747    4.2733    6.1696 C.ar      1 RES1    0.0000
     10 H3        -0.9314    4.9695    5.5220 H         1 RES1    0.0000
     11 C5        -1.1791    3.0174    6.1451 C.ar      1 RES1    0.0000
     12 H4        -1.8298    2.6916    5.4943 H         1 RES1    0.0000
     13 C6        -0.7365    2.0738    7.0616 C.ar      1 RES1    0.0000
     14 H5        -1.1182    1.1599    7.0734 H         1 RES1    0.0000
     15 C7         0.2440    2.4077    7.9763 C.ar      1 RES1    0.0000
     16 N3         0.6482    1.3519    8.8865 N.pl3     1 RES1    0.0000
     17 O2         0.0107    0.3163    8.9165 O.2       1 RES1    0.0000
     18 O3         1.6172    1.5471    9.6092 O.2       1 RES1    0.0000
     19 C8         0.8101    3.6920    8.0136 C.ar      1 RES1    0.0000
     20 N4         1.6518    5.1641   13.0175 N.pl3     2 RES2    0.0000
     21 H6         2.1908    5.7576   13.4027 H         2 RES2    0.0000
     22 N5         0.9367    5.7840   12.0594 N.2       2 RES2    0.0000
     23 C9         0.0567    5.0925   11.4000 C.2       2 RES2    0.0000
     24 H7        -0.4220    5.5886   10.7540 H         2 RES2    0.0000
     25 C10       -0.2060    3.6960   11.5985 C.2       2 RES2    0.0000
     26 O4        -1.0468    3.0723   10.9341 O.2       2 RES2    0.0000
     27 C11        0.5958    3.0633   12.6363 C.ar      2 RES2    0.0000
     28 C12        0.4608    1.7101   12.9239 C.ar      2 RES2    0.0000
     29 H8        -0.1577    1.1788   12.4038 H         2 RES2    0.0000
     30 C13        1.1872    1.1166   13.9168 C.ar      2 RES2    0.0000
     31 H9         1.1138    0.2082   14.1040 H         2 RES2    0.0000
     32 C14        2.0827    1.8805   14.6428 C.ar      2 RES2    0.0000
     33 H10        2.6085    1.5830   15.3224 H         2 RES2    0.0000
     34 C15        2.2609    3.2134   14.3727 C.ar      2 RES2    0.0000
     35 N6         3.2492    3.9407   15.1595 N.pl3     2 RES2    0.0000
     36 O5         3.8245    3.3364   16.0386 O.2       2 RES2    0.0000
     37 O6         3.5057    5.1060   14.8817 O.2       2 RES2    0.0000
     38 C16        1.5171    3.8555   13.3452 C.ar      2 RES2    0.0000
@<TRIPOS>BOND
     1    1    2 1
     2    3    1 1
     3    4    3 2
     4    5    4 1
     5    6    4 1
     6    7    6 2
     7    8    6 1
     8    9    8 ar
     9   10    9 1
    10   11    9 ar
    11   12   11 1
    12   13   11 ar
    13   14   13 1
    14   15   13 ar
    15   16   15 1
    16   17   16 2
    17   18   16 2
    18   19    1 1
    19   20   21 1
    20   22   20 1
    21   23   22 2
    22   24   23 1
    23   25   23 1
    24   26   25 2
    25   27   25 1
    26   28   27 ar
    27   29   28 1
    28   30   28 ar
    29   31   30 1
    30   32   30 ar
    31   33   32 1
    32   34   32 ar
    33   35   34 1
    34   36   35 2
    35   37   35 2
    36   38   20 1
    37    8   19 ar
    38   15   19 ar
    39   27   38 ar
    40   34   38 ar
@<TRIPOS>SUBSTRUCTURE
     1 RES1 1
     2 RES2 20

@<TRIPOS>CRYSIN
   4.7025   13.5187   25.2359  90.0000  91.5840  90.0000 231 1

