# MOL2 file generated by ConQuest
# Please check atom types

@<TRIPOS>MOLECULE
GAQPUJ
    42    43     1
SMALL
NO_CHARGES
****
Generated from CSD

@<TRIPOS>ATOM
      1 O1         6.1480   30.8605    2.7843 O.3       1 RES1    0.0000
      2 N1         6.3376   32.2736    2.9624 N.2       1 RES1    0.0000
      3 C1         5.5528   30.2238    4.0544 C.3       1 RES1    0.0000
      4 C2         6.7680   32.6968    1.9264 C.2       1 RES1    0.0000
      5 C3         7.0920   34.0989    1.8256 C.2       1 RES1    0.0000
      6 C4         7.5440   34.7723    0.6832 C.2       1 RES1    0.0000
      7 C5         7.8464   36.1339    0.5600 C.ar      1 RES1    0.0000
      8 C6         8.5096   36.6307   -0.5768 C.ar      1 RES1    0.0000
      9 C7         8.7816   37.9261   -0.7616 C.ar      1 RES1    0.0000
     10 C8         8.3584   38.8093    0.1344 C.ar      1 RES1    0.0000
     11 C9         7.6824   38.4560    1.2936 C.ar      1 RES1    0.0000
     12 C10        7.4456   37.1349    1.4728 C.ar      1 RES1    0.0000
     13 C11        4.0648   30.9120    4.1944 C.ar      1 RES1    0.0000
     14 C12        3.2064   30.5734    3.1976 C.ar      1 RES1    0.0000
     15 C13        1.8640   31.1806    3.3376 C.ar      1 RES1    0.0000
     16 C14        1.5600   31.8798    4.3960 C.ar      1 RES1    0.0000
     17 C15        2.4352   32.1558    5.4096 C.ar      1 RES1    0.0000
     18 C16        3.7456   31.5707    5.2752 C.ar      1 RES1    0.0000
     19 C17        5.5448   28.8218    3.8696 C.3       1 RES1    0.0000
     20 C18        5.0880   28.1741    5.1464 C.3       1 RES1    0.0000
     21 C19        5.0152   26.6579    5.0960 C.3       1 RES1    0.0000
     22 H1         6.0856   30.4446    4.8115 H         1 RES1    0.0000
     23 H2         6.9016   32.1190    1.1833 H         1 RES1    0.0000
     24 H3         6.9848   34.6214    2.6169 H         1 RES1    0.0000
     25 H4         7.6552   34.2424   -0.0991 H         1 RES1    0.0000
     26 H5         8.7760   36.0125   -1.2482 H         1 RES1    0.0000
     27 H6         9.2736   38.2094   -1.5254 H         1 RES1    0.0000
     28 H7         8.5264   39.7293   -0.0291 H         1 RES1    0.0000
     29 H8         7.4000   39.1037    1.9270 H         1 RES1    0.0000
     30 H9         6.9840   36.8699    2.2618 H         1 RES1    0.0000
     31 H10        3.4448   30.0067    2.4774 H         1 RES1    0.0000
     32 H11        1.2192   31.0702    2.6454 H         1 RES1    0.0000
     33 H12        0.6680   32.2110    4.4716 H         1 RES1    0.0000
     34 H13        2.1952   32.7042    6.1482 H         1 RES1    0.0000
     35 H14        4.3768   31.6590    5.9814 H         1 RES1    0.0000
     36 H15        5.0640   28.5862    2.7608 H         1 RES1    0.0000
     37 H16        6.4224   28.5274    3.6551 H         1 RES1    0.0000
     38 H17        5.7016   28.4243    5.8246 H         1 RES1    0.0000
     39 H18        4.2264   28.5126    5.3446 H         1 RES1    0.0000
     40 H19        4.7008   26.3562    5.9517 H         1 RES1    0.0000
     41 H20        4.4064   26.4003    4.4285 H         1 RES1    0.0000
     42 H21        5.8736   26.3120    4.9336 H         1 RES1    0.0000
@<TRIPOS>BOND
     1    1    2 1
     2    2    4 2
     3    3    1 1
     4    4    5 1
     5    5    6 2
     6    6    7 1
     7    7    8 ar
     8    8    9 ar
     9    9   10 ar
    10   10   11 ar
    11   11   12 ar
    12   12    7 ar
    13   13    3 1
    14   14   13 ar
    15   15   14 ar
    16   16   15 ar
    17   17   16 ar
    18   18   13 ar
    19   19    3 1
    20   20   19 1
    21   21   20 1
    22   22    3 1
    23   23    4 1
    24   24    5 1
    25   25    6 1
    26   26    8 1
    27   27    9 1
    28   28   10 1
    29   29   11 1
    30   30   12 1
    31   31   14 1
    32   32   15 1
    33   33   16 1
    34   34   17 1
    35   35   18 1
    36   36   19 1
    37   37   19 1
    38   38   20 1
    39   39   20 1
    40   40   21 1
    41   41   21 1
    42   42   21 1
    43   17   18 ar
@<TRIPOS>SUBSTRUCTURE
     1 RES1 1

@<TRIPOS>CRYSIN
   8.0000   36.8000    5.6000  90.0000  90.0000  90.0000  19 1

