# MOL2 file generated by ConQuest
# Please check atom types

@<TRIPOS>MOLECULE
GAQXED
    19    19     1
SMALL
NO_CHARGES
****
Generated from CSD

@<TRIPOS>ATOM
      1 O1         8.9370    6.3514    4.4897 O.2       1 RES1    0.0000
      2 O2         8.8747    4.5688    3.2904 O.2       1 RES1    0.0000
      3 O3         5.4748    0.8760    4.8153 O.2       1 RES1    0.0000
      4 O4         4.3730    1.4112    6.6847 O.3       1 RES1    0.0000
      5 N1         8.4746    5.2416    4.2496 N.pl3     1 RES1    0.0000
      6 N2         7.1896    2.6529    3.8313 N.3       1 RES1    0.0000
      7 C1         5.5804    3.8008    6.9444 C.ar      1 RES1    0.0000
      8 H1         4.9394    3.4917    7.5733 H         1 RES1    0.0000
      9 C2         6.1576    5.0536    7.1283 C.ar      1 RES1    0.0000
     10 H2         5.9085    5.5962    7.8667 H         1 RES1    0.0000
     11 C3         7.0999    5.4952    6.2170 C.ar      1 RES1    0.0000
     12 H3         7.5071    6.3455    6.3344 H         1 RES1    0.0000
     13 C4         7.4567    4.7011    5.1277 C.ar      1 RES1    0.0000
     14 C5         6.8772    3.4181    4.8862 C.ar      1 RES1    0.0000
     15 C6         5.9166    2.9848    5.8622 C.ar      1 RES1    0.0000
     16 C7         5.2538    1.6748    5.7338 C.2       1 RES1    0.0000
     17 H4         7.8174    2.9215    3.2577 H         1 RES1    0.0000
     18 H5         6.8220    1.8659    3.7508 H         1 RES1    0.0000
     19 H6         4.0096    0.6839    6.5098 H         1 RES1    0.0000
@<TRIPOS>BOND
     1    1    5 2
     2    2    5 2
     3    3   16 2
     4    4   16 1
     5    5   13 1
     6    6   14 1
     7    7    8 1
     8    9    7 ar
     9   10    9 1
    10   11    9 ar
    11   12   11 1
    12   13   11 ar
    13   14   13 ar
    14   15    7 ar
    15   16   15 1
    16   17    6 1
    17   18    6 1
    18   19    4 1
    19   14   15 ar
@<TRIPOS>SUBSTRUCTURE
     1 RES1 1

@<TRIPOS>CRYSIN
   9.0231    7.4338   11.0392  90.0000  92.1140  90.0000  14 1

