# MOL2 file generated by ConQuest
# Please check atom types

@<TRIPOS>MOLECULE
GAQXOM
    40    42     1
SMALL
NO_CHARGES
****
Generated from CSD

@<TRIPOS>ATOM
      1 N1         9.6677    2.7727    2.1408 N.3       1 RES1    0.0000
      2 O1         9.6677    4.0477    2.1408 O.2       1 RES1    0.0000
      3 C1         8.4228    1.9771    2.0299 C.3       1 RES1    0.0000
      4 C2         7.6243    2.0275    3.3367 C.ar      1 RES1    0.0000
      5 C3         6.5073    1.2108    3.4595 C.ar      1 RES1    0.0000
      6 C4         9.0043    0.5906    1.7743 C.3       1 RES1    0.0000
      7 C5         7.5868    2.5121    0.8709 C.3       1 RES1    0.0000
      8 C6         6.0813    2.0611    5.6586 C.ar      1 RES1    0.0000
      9 C7         7.9524    2.8548    4.3989 C.ar      1 RES1    0.0000
     10 C8         5.7407    1.2283    4.6241 C.ar      1 RES1    0.0000
     11 C9         7.1761    2.8624    5.5532 C.ar      1 RES1    0.0000
     12 H1         6.2685    0.6479    2.7591 H         1 RES1    0.0000
     13 H2         8.4167   -0.0989    2.1228 H         1 RES1    0.0000
     14 H3         9.1340    0.4409    0.8246 H         1 RES1    0.0000
     15 H4         6.8002    1.9714    0.7673 H         1 RES1    0.0000
     16 H5         8.1034    2.4834    0.0634 H         1 RES1    0.0000
     17 H6         7.3300    3.4188    1.0541 H         1 RES1    0.0000
     18 H7         5.5647    2.0777    6.4318 H         1 RES1    0.0000
     19 H8         8.6970    3.4086    4.3398 H         1 RES1    0.0000
     20 H9         4.9982    0.6747    4.6995 H         1 RES1    0.0000
     21 H10        7.4074    3.4215    6.2606 H         1 RES1    0.0000
     22 C1C       10.9125    1.9771    2.2517 C.3       1 RES1    0.0000
     23 C2C       11.7110    2.0275    0.9449 C.ar      1 RES1    0.0000
     24 C3C       12.8280    1.2108    0.8221 C.ar      1 RES1    0.0000
     25 C4C       10.3310    0.5906    2.5073 C.3       1 RES1    0.0000
     26 C5C       11.7485    2.5121    3.4107 C.3       1 RES1    0.0000
     27 C6C       13.2540    2.0611   -1.3770 C.ar      1 RES1    0.0000
     28 C7C       11.3829    2.8548   -0.1173 C.ar      1 RES1    0.0000
     29 C8C       13.5946    1.2283   -0.3425 C.ar      1 RES1    0.0000
     30 C9C       12.1592    2.8624   -1.2716 C.ar      1 RES1    0.0000
     31 H1C       13.0668    0.6479    1.5225 H         1 RES1    0.0000
     32 H2C       10.9186   -0.0989    2.1588 H         1 RES1    0.0000
     33 H3C       10.2013    0.4409    3.4570 H         1 RES1    0.0000
     34 H4C       12.5351    1.9714    3.5143 H         1 RES1    0.0000
     35 H5C       11.2319    2.4834    4.2182 H         1 RES1    0.0000
     36 H6C       12.0053    3.4188    3.2275 H         1 RES1    0.0000
     37 H7C       13.7706    2.0777   -2.1502 H         1 RES1    0.0000
     38 H8C       10.6383    3.4086   -0.0582 H         1 RES1    0.0000
     39 H9C       14.3371    0.6747   -0.4179 H         1 RES1    0.0000
     40 H10C      11.9279    3.4215   -1.9790 H         1 RES1    0.0000
@<TRIPOS>BOND
     1    1    2 1
     2    3    1 1
     3    4    3 1
     4    5    4 ar
     5    6    3 1
     6    7    3 1
     7    8   10 ar
     8    9    4 ar
     9   10    5 ar
    10   11    8 ar
    11   12    5 1
    12   13    6 1
    13   14    6 1
    14   15    7 1
    15   16    7 1
    16   17    7 1
    17   18    8 1
    18   19    9 1
    19   20   10 1
    20   21   11 1
    21   22    1 1
    22   23   22 1
    23   24   23 ar
    24   25    6 1
    25   26   22 1
    26   27   29 ar
    27   28   23 ar
    28   29   24 ar
    29   30   27 ar
    30   31   24 1
    31   32   25 1
    32   33   25 1
    33   34   26 1
    34   35   26 1
    35   36   26 1
    36   37   27 1
    37   38   28 1
    38   39   29 1
    39   40   30 1
    40    9   11 ar
    41   22   25 1
    42   28   30 ar
@<TRIPOS>SUBSTRUCTURE
     1 RES1 1

@<TRIPOS>CRYSIN
  19.3353    9.2424    8.5632  90.0000  90.0000  90.0000  60 1

