# MOL2 file generated by ConQuest
# Please check atom types

@<TRIPOS>MOLECULE
GARCUZ
    18    18     1
SMALL
NO_CHARGES
****
Generated from CSD

@<TRIPOS>ATOM
      1 O1         7.9790    4.8487    0.0990 O.3       1 RES1    0.0000
      2 H1         8.4974    4.2989   -0.2181 H         1 RES1    0.0000
      3 C1         6.7817    2.8308    0.6245 C.ar      1 RES1    0.0000
      4 H2         7.5071    2.3168    0.3543 H         1 RES1    0.0000
      5 C2         4.5831    3.0268    1.4856 C.ar      1 RES1    0.0000
      6 C3         5.8241    5.0154    0.9966 C.ar      1 RES1    0.0000
      7 H3         5.8926    5.9424    0.9698 H         1 RES1    0.0000
      8 C4         4.6851    4.4165    1.4573 C.ar      1 RES1    0.0000
      9 H4         3.9752    4.9383    1.7535 H         1 RES1    0.0000
     10 C5         5.6240    0.6769    1.1038 C.3       1 RES1    0.0000
     11 H5         5.3530    0.3751    1.9738 H         1 RES1    0.0000
     12 H6         6.5062    0.3490    0.9125 H         1 RES1    0.0000
     13 H7         5.0103    0.3464    0.4443 H         1 RES1    0.0000
     14 C6         5.6305    2.1880    1.0733 C.ar      1 RES1    0.0000
     15 C7         6.8821    4.2158    0.5679 C.ar      1 RES1    0.0000
     16 N1         3.3289    2.4865    1.9731 N.pl3     1 RES1    0.0000
     17 O2         2.5543    3.2465    2.5641 O.2       1 RES1    0.0000
     18 O3         3.0517    1.3169    1.7945 O.2       1 RES1    0.0000
@<TRIPOS>BOND
     1    1    2 1
     2    3    4 1
     3    5    8 ar
     4    6    7 1
     5    8    6 ar
     6    9    8 1
     7   10   11 1
     8   12   10 1
     9   13   10 1
    10   14    3 ar
    11   15    1 1
    12   16    5 1
    13   17   16 2
    14   18   16 2
    15    3   15 ar
    16    5   14 ar
    17    6   15 ar
    18   10   14 1
@<TRIPOS>SUBSTRUCTURE
     1 RES1 1

@<TRIPOS>CRYSIN
   7.2993   13.0230    7.4445  90.0000  91.2170  90.0000  14 1

