# MOL2 file generated by ConQuest
# Please check atom types

@<TRIPOS>MOLECULE
GARMET
    40    41     1
SMALL
NO_CHARGES
****
Generated from CSD

@<TRIPOS>ATOM
      1 N1        -0.3792    1.6689   13.1577 N.2       1 RES1    0.0000
      2 N2         0.9973    4.2381    7.4085 N.2       1 RES1    0.0000
      3 O1        -1.0621    1.1066   14.2626 O.3       1 RES1    0.0000
      4 H1        -0.5265    0.9460   14.8622 H         1 RES1    0.0000
      5 O2         0.3026    5.0751    5.0835 O.3       1 RES1    0.0000
      6 H2         0.2013    4.7670    5.8375 H         1 RES1    0.0000
      7 O3         0.9237    6.0649    2.7645 O.3       1 RES1    0.0000
      8 C1        -2.6479    1.7445   12.2320 C.3       1 RES1    0.0000
      9 H3        -2.9030    1.4701   13.1150 H         1 RES1    0.0000
     10 H4        -2.8996    1.0662   11.6015 H         1 RES1    0.0000
     11 H5        -3.0906    2.5672   12.0113 H         1 RES1    0.0000
     12 C2        -1.1641    1.9473   12.1815 C.2       1 RES1    0.0000
     13 C3        -0.5426    2.5157   10.9551 C.ar      1 RES1    0.0000
     14 C4         0.8130    2.7870   10.8556 C.ar      1 RES1    0.0000
     15 H6         1.3690    2.5801   11.5712 H         1 RES1    0.0000
     16 C5         1.3629    3.3549    9.7244 C.ar      1 RES1    0.0000
     17 H7         2.2755    3.5337    9.6956 H         1 RES1    0.0000
     18 C6         0.5686    3.6603    8.6337 C.ar      1 RES1    0.0000
     19 C7        -0.7752    3.3599    8.7001 C.ar      1 RES1    0.0000
     20 H8        -1.3194    3.5337    7.9671 H         1 RES1    0.0000
     21 C8        -1.3271    2.8038    9.8399 C.ar      1 RES1    0.0000
     22 H9        -2.2388    2.6193    9.8629 H         1 RES1    0.0000
     23 C9         2.2117    4.5729    7.1490 C.2       1 RES1    0.0000
     24 H10        2.8657    4.4427    7.7969 H         1 RES1    0.0000
     25 C10        2.5870    5.1501    5.8678 C.ar      1 RES1    0.0000
     26 C11        1.6024    5.3680    4.8896 C.ar      1 RES1    0.0000
     27 C12        1.9647    5.9018    3.6330 C.ar      1 RES1    0.0000
     28 C13        3.2914    6.1954    3.3747 C.ar      1 RES1    0.0000
     29 H11        3.5336    6.5389    2.5451 H         1 RES1    0.0000
     30 C14        4.2736    5.9816    4.3500 C.ar      1 RES1    0.0000
     31 H12        5.1621    6.1867    4.1697 H         1 RES1    0.0000
     32 C15        3.9198    5.4670    5.5735 C.ar      1 RES1    0.0000
     33 H13        4.5762    5.3265    6.2170 H         1 RES1    0.0000
     34 C16        1.1992    6.6597    1.4875 C.3       1 RES1    0.0000
     35 H14        1.7529    6.0703    0.9508 H         1 RES1    0.0000
     36 H15        1.6635    7.5039    1.6001 H         1 RES1    0.0000
     37 C17       -0.1310    6.8764    0.8253 C.3       1 RES1    0.0000
     38 H16       -0.5544    6.0283    0.6723 H         1 RES1    0.0000
     39 H17       -0.0022    7.3252   -0.0130 H         1 RES1    0.0000
     40 H18       -0.6875    7.4138    1.3937 H         1 RES1    0.0000
@<TRIPOS>BOND
     1    1    3 1
     2    2   18 1
     3    3    4 1
     4    5    6 1
     5    7   27 1
     6    8    9 1
     7   10    8 1
     8   11    8 1
     9   12    1 2
    10   13   12 1
    11   14   13 ar
    12   15   14 1
    13   16   14 ar
    14   17   16 1
    15   18   16 ar
    16   19   18 ar
    17   20   19 1
    18   21   13 ar
    19   22   21 1
    20   23    2 2
    21   24   23 1
    22   25   23 1
    23   26    5 1
    24   27   26 ar
    25   28   27 ar
    26   29   28 1
    27   30   28 ar
    28   31   30 1
    29   32   25 ar
    30   33   32 1
    31   34    7 1
    32   35   34 1
    33   36   34 1
    34   37   34 1
    35   38   37 1
    36   39   37 1
    37   40   37 1
    38    8   12 1
    39   19   21 ar
    40   25   26 ar
    41   30   32 ar
@<TRIPOS>SUBSTRUCTURE
     1 RES1 1

@<TRIPOS>CRYSIN
   7.0556    7.4852   14.7821  96.8900  98.7620 102.1050   2 1

