# MOL2 file generated by ConQuest
# Please check atom types

@<TRIPOS>MOLECULE
GARWOO
    66    68     2
SMALL
NO_CHARGES
****
Generated from CSD

@<TRIPOS>ATOM
      1 C1         6.0130   -1.1118    5.0587 C.ar      1 RES1    0.0000
      2 C2         6.0467   -1.5985    3.7664 C.ar      1 RES1    0.0000
      3 H1         6.4642   -2.4279    3.5701 H         1 RES1    0.0000
      4 C3         5.4571   -0.8466    2.7621 C.ar      1 RES1    0.0000
      5 H2         5.4616   -1.1742    1.8696 H         1 RES1    0.0000
      6 C4         4.8585    0.3795    3.0388 C.ar      1 RES1    0.0000
      7 C5         4.8303    0.8222    4.3571 C.ar      1 RES1    0.0000
      8 H3         4.4108    1.6507    4.5603 H         1 RES1    0.0000
      9 C6         5.4021    0.0797    5.3829 C.ar      1 RES1    0.0000
     10 H4         5.3733    0.3857    6.2825 H         1 RES1    0.0000
     11 C7         4.2774    1.2173    1.9408 C.2       1 RES1    0.0000
     12 C8         2.9817    0.8727    1.4009 C.2       1 RES1    0.0000
     13 C9         1.1434   -0.5848    1.4588 C.3       1 RES1    0.0000
     14 H5         0.5127    0.1333    1.6708 H         1 RES1    0.0000
     15 H6         0.8445   -1.4153    1.8821 H         1 RES1    0.0000
     16 H7         1.1836   -0.7091    0.4877 H         1 RES1    0.0000
     17 C10        4.9810    2.2869    1.4181 C.2       1 RES1    0.0000
     18 C11        6.3418    2.5907    1.9132 C.3       1 RES1    0.0000
     19 H8         6.6998    1.9315    2.5731 H         1 RES1    0.0000
     20 C12        6.7972    4.0145    2.1400 C.3       1 RES1    0.0000
     21 H9         6.1688    4.7423    1.9027 H         1 RES1    0.0000
     22 H10        7.3643    4.1949    2.9306 H         1 RES1    0.0000
     23 C13        7.3916    3.2277    1.0308 C.3       1 RES1    0.0000
     24 H11        8.3273    2.9214    1.1341 H         1 RES1    0.0000
     25 H12        7.1318    3.4659    0.1062 H         1 RES1    0.0000
     26 N1         6.6525   -1.8873    6.1302 N.pl3     1 RES1    0.0000
     27 N2         4.4823    3.0981    0.4662 N.3       1 RES1    0.0000
     28 O1         7.3178   -2.8666    5.8242 O.2       1 RES1    0.0000
     29 O2         6.4860   -1.5168    7.2864 O.2       1 RES1    0.0000
     30 O3         2.3724    1.4956    0.5365 O.2       1 RES1    0.0000
     31 O4         2.4537   -0.2380    1.9537 O.3       1 RES1    0.0000
     32 H13        4.9977    3.6446    0.0331 H         1 RES1    0.0000
     33 H14        3.6673    2.8873    0.1222 H         1 RES1    0.0000
     34 C14        6.2901    7.8661    4.3562 C.ar      2 RES2    0.0000
     35 C15        5.5084    8.5775    5.2462 C.ar      2 RES2    0.0000
     36 H15        5.0252    9.3455    4.9669 H         2 RES2    0.0000
     37 C16        5.4507    8.1362    6.5566 C.ar      2 RES2    0.0000
     38 H16        4.9063    8.6024    7.1791 H         2 RES2    0.0000
     39 C17        6.1737    7.0209    6.9850 C.ar      2 RES2    0.0000
     40 C18        6.9650    6.3416    6.0533 C.ar      2 RES2    0.0000
     41 H17        7.4675    5.5846    6.3282 H         2 RES2    0.0000
     42 C19        7.0247    6.7586    4.7386 C.ar      2 RES2    0.0000
     43 H18        7.5610    6.2937    4.1080 H         2 RES2    0.0000
     44 C20        6.0719    6.5705    8.4014 C.2       2 RES2    0.0000
     45 C21        5.5389    5.2630    8.6886 C.2       2 RES2    0.0000
     46 C22        4.6737    3.2515    7.7571 C.3       2 RES2    0.0000
     47 H19        5.3933    2.6009    7.9031 H         2 RES2    0.0000
     48 H20        4.1681    3.0036    6.9552 H         2 RES2    0.0000
     49 H21        4.0756    3.2560    8.5324 H         2 RES2    0.0000
     50 C23        6.3965    7.4364    9.4373 C.2       2 RES2    0.0000
     51 C24        6.9986    8.7581    9.1560 C.3       2 RES2    0.0000
     52 H22        7.3587    8.8690    8.2298 H         2 RES2    0.0000
     53 C25        7.7192    9.5495   10.2138 C.3       2 RES2    0.0000
     54 H23        7.7837    9.1555   11.1192 H         2 RES2    0.0000
     55 H24        8.5069   10.0801    9.9349 H         2 RES2    0.0000
     56 C26        6.3823   10.0019    9.7502 C.3       2 RES2    0.0000
     57 H25        6.3414   10.8119    9.1822 H         2 RES2    0.0000
     58 H26        5.6174    9.8873   10.3677 H         2 RES2    0.0000
     59 N3         6.3300    8.2944    2.9588 N.pl3     2 RES2    0.0000
     60 N4         6.1749    7.1307   10.7222 N.3       2 RES2    0.0000
     61 O5         6.9165    7.5740    2.1560 O.2       2 RES2    0.0000
     62 O6         5.7860    9.3379    2.6422 O.2       2 RES2    0.0000
     63 O7         5.3329    4.7910    9.8076 O.2       2 RES2    0.0000
     64 O8         5.2389    4.5602    7.5806 O.3       2 RES2    0.0000
     65 H27        5.8251    6.3022   10.8908 H         2 RES2    0.0000
     66 H28        6.4398    7.6721   11.3853 H         2 RES2    0.0000
@<TRIPOS>BOND
     1    1    2 ar
     2    2    3 1
     3    4    2 ar
     4    5    4 1
     5    6    4 ar
     6    7    6 ar
     7    8    7 1
     8    9    1 ar
     9   10    9 1
    10   11    6 1
    11   12   11 1
    12   13   14 1
    13   15   13 1
    14   16   13 1
    15   17   11 2
    16   18   17 1
    17   19   18 1
    18   20   18 1
    19   21   20 1
    20   22   20 1
    21   23   18 1
    22   24   23 1
    23   25   23 1
    24   26    1 1
    25   27   17 1
    26   28   26 2
    27   29   26 2
    28   30   12 2
    29   31   12 1
    30   32   27 1
    31   33   27 1
    32   34   35 ar
    33   35   36 1
    34   37   35 ar
    35   38   37 1
    36   39   37 ar
    37   40   39 ar
    38   41   40 1
    39   42   34 ar
    40   43   42 1
    41   44   39 1
    42   45   44 1
    43   46   47 1
    44   48   46 1
    45   49   46 1
    46   50   44 2
    47   51   50 1
    48   52   51 1
    49   53   51 1
    50   54   53 1
    51   55   53 1
    52   56   51 1
    53   57   56 1
    54   58   56 1
    55   59   34 1
    56   60   50 1
    57   61   59 2
    58   62   59 2
    59   63   45 2
    60   64   45 1
    61   65   60 1
    62   66   60 1
    63    7    9 ar
    64   13   31 1
    65   20   23 1
    66   40   42 ar
    67   46   64 1
    68   53   56 1
@<TRIPOS>SUBSTRUCTURE
     1 RES1 1
     2 RES2 34

@<TRIPOS>CRYSIN
   7.7993   28.3628   11.4351  90.0000  92.8750  90.0000 231 1

