# MOL2 file generated by ConQuest
# Please check atom types

@<TRIPOS>MOLECULE
GARWII
    40    41     1
SMALL
NO_CHARGES
****
Generated from CSD

@<TRIPOS>ATOM
      1 C1         4.0363    7.6593    5.8123 C.ar      1 RES1    0.0000
      2 C2         4.9767    6.8220    6.3903 C.ar      1 RES1    0.0000
      3 H1         5.2614    6.9540    7.2864 H         1 RES1    0.0000
      4 C3         5.4891    5.7909    5.6283 C.ar      1 RES1    0.0000
      5 H2         6.1217    5.1968    6.0143 H         1 RES1    0.0000
      6 C4         5.0942    5.6030    4.2974 C.ar      1 RES1    0.0000
      7 C5         4.1324    6.4590    3.7609 C.ar      1 RES1    0.0000
      8 H3         3.8447    6.3339    2.8648 H         1 RES1    0.0000
      9 C6         3.5912    7.4862    4.5104 C.ar      1 RES1    0.0000
     10 H4         2.9294    8.0602    4.1427 H         1 RES1    0.0000
     11 C7         5.6732    4.4817    3.4995 C.2       1 RES1    0.0000
     12 C8         5.2547    3.1650    3.9663 C.2       1 RES1    0.0000
     13 C9         5.1906    0.8357    3.6142 C.3       1 RES1    0.0000
     14 H5         5.5960    0.6107    4.4776 H         1 RES1    0.0000
     15 H6         5.4406    0.1602    2.9496 H         1 RES1    0.0000
     16 H7         4.2154    0.8571    3.7072 H         1 RES1    0.0000
     17 C10        6.5046    4.7143    2.4248 C.2       1 RES1    0.0000
     18 C11        6.8950    6.1008    2.0292 C.ar      1 RES1    0.0000
     19 C12        7.4691    6.9952    2.9386 C.ar      1 RES1    0.0000
     20 H8         7.6036    6.7292    3.8409 H         1 RES1    0.0000
     21 C13        7.8405    8.2603    2.5351 C.ar      1 RES1    0.0000
     22 H9         8.2294    8.8592    3.1609 H         1 RES1    0.0000
     23 C14        7.6497    8.6684    1.2138 C.ar      1 RES1    0.0000
     24 C15        7.0991    7.7862    0.2944 C.ar      1 RES1    0.0000
     25 H10        6.9751    8.0518   -0.6095 H         1 RES1    0.0000
     26 C16        6.7294    6.5086    0.7079 C.ar      1 RES1    0.0000
     27 H11        6.3571    5.9040    0.0762 H         1 RES1    0.0000
     28 C17        8.0684   10.3365   -0.4433 C.3       1 RES1    0.0000
     29 H12        8.6017    9.6835   -0.9430 H         1 RES1    0.0000
     30 H13        8.4796   11.2225   -0.5218 H         1 RES1    0.0000
     31 H14        7.1594   10.3645   -0.8093 H         1 RES1    0.0000
     32 N1         3.4908    8.7602    6.6104 N.pl3     1 RES1    0.0000
     33 N2         7.0515    3.7607    1.6347 N.3       1 RES1    0.0000
     34 O1         3.8953    8.9229    7.7522 O.2       1 RES1    0.0000
     35 O2         2.6313    9.4769    6.1014 O.2       1 RES1    0.0000
     36 O3         4.5652    2.9756    4.9471 O.2       1 RES1    0.0000
     37 O4         5.6611    2.1313    3.1845 O.3       1 RES1    0.0000
     38 O5         8.0166    9.9557    0.9335 O.3       1 RES1    0.0000
     39 H15        6.8907    2.9131    1.8270 H         1 RES1    0.0000
     40 H16        7.6937    4.0278    1.0450 H         1 RES1    0.0000
@<TRIPOS>BOND
     1    1    2 ar
     2    2    3 1
     3    4    2 ar
     4    5    4 1
     5    6    4 ar
     6    7    6 ar
     7    8    7 1
     8    9    1 ar
     9   10    9 1
    10   11    6 1
    11   12   11 1
    12   13   14 1
    13   15   13 1
    14   16   13 1
    15   17   11 2
    16   18   17 1
    17   19   18 ar
    18   20   19 1
    19   21   19 ar
    20   22   21 1
    21   23   21 ar
    22   24   23 ar
    23   25   24 1
    24   26   18 ar
    25   27   26 1
    26   28   29 1
    27   30   28 1
    28   31   28 1
    29   32    1 1
    30   33   17 1
    31   34   32 2
    32   35   32 2
    33   36   12 2
    34   37   12 1
    35   38   23 1
    36   39   33 1
    37   40   33 1
    38    7    9 ar
    39   13   37 1
    40   24   26 ar
    41   28   38 1
@<TRIPOS>SUBSTRUCTURE
     1 RES1 1

@<TRIPOS>CRYSIN
  11.4060    9.3669   14.3848  90.0000  92.1710  90.0000 231 1

