# MOL2 file generated by ConQuest
# Please check atom types

@<TRIPOS>MOLECULE
GARXIG
    98   102     2
SMALL
NO_CHARGES
****
Generated from CSD

@<TRIPOS>ATOM
      1 O1         5.3222    4.8572    0.3402 O.3       1 RES1    0.0000
      2 O2         4.4567    6.4261   -1.4863 O.2       1 RES1    0.0000
      3 O3        -1.3845    1.8317   -3.5392 O.2       1 RES1    0.0000
      4 O4        -1.7271    0.6428   -1.7522 O.2       1 RES1    0.0000
      5 N1         3.2322    4.0229    0.0941 N.2       1 RES1    0.0000
      6 N2        -1.0892    1.4882   -2.3930 N.pl3     1 RES1    0.0000
      7 C1         4.7820    6.0778    0.7779 C.2       1 RES1    0.0000
      8 C2         4.4100    6.9106   -0.3567 C.2       1 RES1    0.0000
      9 C3         4.0470    8.3259   -0.2180 C.2       1 RES1    0.0000
     10 C4         3.8161    9.0209    0.9232 C.2       1 RES1    0.0000
     11 C5         3.9050    8.6647    2.2923 C.2       1 RES1    0.0000
     12 C6         4.3275    7.4694    2.7828 C.2       1 RES1    0.0000
     13 C7         4.7536    6.2789    2.1123 C.2       1 RES1    0.0000
     14 C8         3.8731    9.0336   -1.5342 C.3       1 RES1    0.0000
     15 C9         3.4687    9.7350    3.2766 C.3       1 RES1    0.0000
     16 C10        5.1824    5.1453    3.0239 C.3       1 RES1    0.0000
     17 C11        4.4303    3.9849   -0.2494 C.2       1 RES1    0.0000
     18 C12        2.2362    3.3025   -0.5747 C.ar      1 RES1    0.0000
     19 C13        1.9960    3.4798   -1.9438 C.ar      1 RES1    0.0000
     20 C14        0.9024    2.8766   -2.5417 C.ar      1 RES1    0.0000
     21 C15        0.0894    2.0850   -1.7787 C.ar      1 RES1    0.0000
     22 C16        0.3224    1.8587   -0.4459 C.ar      1 RES1    0.0000
     23 C17        1.3967    2.4745    0.1552 C.ar      1 RES1    0.0000
     24 C18        5.1360    3.0666   -1.1841 C.ar      1 RES1    0.0000
     25 C19        4.7811    1.7209   -1.2353 C.ar      1 RES1    0.0000
     26 C20        5.4275    0.8802   -2.1337 C.ar      1 RES1    0.0000
     27 C21        6.4029    1.3615   -2.9710 C.ar      1 RES1    0.0000
     28 C22        6.7700    2.7072   -2.9116 C.ar      1 RES1    0.0000
     29 C23        6.1239    3.5463   -2.0099 C.ar      1 RES1    0.0000
     30 O5         8.9862    4.8319    8.4557 O.3       2 RES2    0.0000
     31 O6         8.0834    6.6557   10.0031 O.2       2 RES2    0.0000
     32 O7         2.1724    1.1795   11.5423 O.2       2 RES2    0.0000
     33 O8         1.6514    0.6982    9.5325 O.2       2 RES2    0.0000
     34 N3         6.8806    4.0070    8.4821 N.2       2 RES2    0.0000
     35 N4         2.3941    1.2000   10.3384 N.pl3     2 RES2    0.0000
     36 C24        8.5006    5.9987    7.8314 C.2       2 RES2    0.0000
     37 C25        8.1193    6.9897    8.8256 C.2       2 RES2    0.0000
     38 C26        7.8389    8.3877    8.4722 C.2       2 RES2    0.0000
     39 C27        7.6735    8.9180    7.2352 C.2       2 RES2    0.0000
     40 C28        7.7731    8.3576    5.9371 C.2       2 RES2    0.0000
     41 C29        8.1523    7.0942    5.6333 C.2       2 RES2    0.0000
     42 C30        8.5372    6.0066    6.4887 C.2       2 RES2    0.0000
     43 C31        7.6781    9.3028    9.6662 C.3       2 RES2    0.0000
     44 C32        7.3839    9.2869    4.8026 C.3       2 RES2    0.0000
     45 C33        8.9634    4.7448    5.7736 C.3       2 RES2    0.0000
     46 C34        8.0464    3.9389    8.9313 C.2       2 RES2    0.0000
     47 C35        5.8105    3.2360    8.9792 C.ar      2 RES2    0.0000
     48 C36        5.4971    3.2170   10.3400 C.ar      2 RES2    0.0000
     49 C37        4.3961    2.5426   10.7826 C.ar      2 RES2    0.0000
     50 C38        3.5923    1.8840    9.8793 C.ar      2 RES2    0.0000
     51 C39        3.8814    1.8871    8.5283 C.ar      2 RES2    0.0000
     52 C40        4.9931    2.5774    8.0990 C.ar      2 RES2    0.0000
     53 C41        8.6921    2.9922    9.8842 C.ar      2 RES2    0.0000
     54 C42        8.2945    1.6544    9.8892 C.ar      2 RES2    0.0000
     55 C43        8.9163    0.7837   10.7744 C.ar      2 RES2    0.0000
     56 C44        9.8676    1.2238   11.6497 C.ar      2 RES2    0.0000
     57 C45       10.2612    2.5584   11.6365 C.ar      2 RES2    0.0000
     58 C46        9.6605    3.4387   10.7496 C.ar      2 RES2    0.0000
     59 H1         3.5077    9.9740    0.8423 H         1 RES1    0.0000
     60 H2         4.4352    7.3934    3.7489 H         1 RES1    0.0000
     61 H3         3.8735   10.0532   -1.4203 H         1 RES1    0.0000
     62 H4         3.0644    8.6441   -2.0974 H         1 RES1    0.0000
     63 H5         4.8326    8.8816   -2.1469 H         1 RES1    0.0000
     64 H6         2.9308   10.3540    2.8736 H         1 RES1    0.0000
     65 H7         4.3579   10.3065    3.4351 H         1 RES1    0.0000
     66 H8         3.3743    9.4041    4.1783 H         1 RES1    0.0000
     67 H9         5.4686    5.4461    3.8645 H         1 RES1    0.0000
     68 H10        5.9788    4.7812    2.6424 H         1 RES1    0.0000
     69 H11        4.2438    4.7654    3.2204 H         1 RES1    0.0000
     70 H12        2.6990    4.0054   -2.4442 H         1 RES1    0.0000
     71 H13        0.7337    2.9764   -3.5342 H         1 RES1    0.0000
     72 H14       -0.2851    1.0766    0.0000 H         1 RES1    0.0000
     73 H15        1.6311    2.2798    1.1891 H         1 RES1    0.0000
     74 H16        4.0443    1.3932   -0.6606 H         1 RES1    0.0000
     75 H17        5.0832   -0.1108   -2.1635 H         1 RES1    0.0000
     76 H18        7.0214    0.6649   -3.7324 H         1 RES1    0.0000
     77 H19        7.5333    3.0555   -3.5672 H         1 RES1    0.0000
     78 H20        6.3603    4.5437   -2.0479 H         1 RES1    0.0000
     79 H21        7.3344    9.9740    7.2501 H         2 RES2    0.0000
     80 H22        8.3726    6.8235    4.6242 H         2 RES2    0.0000
     81 H23        7.5230   10.3381    9.3805 H         2 RES2    0.0000
     82 H24        6.9304    8.9133   10.2558 H         2 RES2    0.0000
     83 H25        8.5888    9.1666   10.2558 H         2 RES2    0.0000
     84 H26        6.3747    9.4199    4.9050 H         2 RES2    0.0000
     85 H27        7.9471   10.1165    4.9050 H         2 RES2    0.0000
     86 H28        7.5555    8.9133    3.8480 H         2 RES2    0.0000
     87 H29        9.2502    5.0503    4.8059 H         2 RES2    0.0000
     88 H30        9.8638    4.5596    6.0940 H         2 RES2    0.0000
     89 H31        7.9586    4.1638    5.7142 H         2 RES2    0.0000
     90 H32        6.0840    3.6888   10.9825 H         2 RES2    0.0000
     91 H33        4.1830    2.4856   11.7752 H         2 RES2    0.0000
     92 H34        3.1479    1.3774    8.0263 H         2 RES2    0.0000
     93 H35        5.3142    2.5489    7.0684 H         2 RES2    0.0000
     94 H36        7.5999    1.2190    9.2649 H         2 RES2    0.0000
     95 H37        8.5683    0.0000   10.6191 H         2 RES2    0.0000
     96 H38       10.3574    0.5224   12.3532 H         2 RES2    0.0000
     97 H39       11.1468    2.8972   12.1881 H         2 RES2    0.0000
     98 H40       10.0165    4.4012   10.7347 H         2 RES2    0.0000
@<TRIPOS>BOND
     1    1    7 1
     2    2    8 2
     3    3    6 2
     4    4    6 2
     5    5   17 2
     6    6   21 1
     7    7    8 1
     8    8    9 1
     9    9   10 2
    10   10   11 1
    11   11   12 2
    12   12   13 1
    13   13    7 2
    14   14    9 1
    15   15   11 1
    16   16   13 1
    17   17    1 1
    18   18    5 1
    19   19   18 ar
    20   20   19 ar
    21   21   20 ar
    22   22   21 ar
    23   23   18 ar
    24   24   17 1
    25   25   24 ar
    26   26   25 ar
    27   27   26 ar
    28   28   27 ar
    29   29   24 ar
    30   30   36 1
    31   31   37 2
    32   32   35 2
    33   33   35 2
    34   34   46 2
    35   35   50 1
    36   36   37 1
    37   37   38 1
    38   38   39 2
    39   39   40 1
    40   40   41 2
    41   41   42 1
    42   42   36 2
    43   43   38 1
    44   44   40 1
    45   45   42 1
    46   46   30 1
    47   47   34 1
    48   48   47 ar
    49   49   48 ar
    50   50   49 ar
    51   51   50 ar
    52   52   47 ar
    53   53   46 1
    54   54   53 ar
    55   55   54 ar
    56   56   55 ar
    57   57   56 ar
    58   58   53 ar
    59   59   10 1
    60   60   12 1
    61   61   14 1
    62   62   14 1
    63   63   14 1
    64   64   15 1
    65   65   15 1
    66   66   15 1
    67   67   16 1
    68   68   16 1
    69   69   16 1
    70   70   19 1
    71   71   20 1
    72   72   22 1
    73   73   23 1
    74   74   25 1
    75   75   26 1
    76   76   27 1
    77   77   28 1
    78   78   29 1
    79   79   39 1
    80   80   41 1
    81   81   43 1
    82   82   43 1
    83   83   43 1
    84   84   44 1
    85   85   44 1
    86   86   44 1
    87   87   45 1
    88   88   45 1
    89   89   45 1
    90   90   48 1
    91   91   49 1
    92   92   51 1
    93   93   52 1
    94   94   54 1
    95   95   55 1
    96   96   56 1
    97   97   57 1
    98   98   58 1
    99   22   23 ar
   100   28   29 ar
   101   51   52 ar
   102   57   58 ar
@<TRIPOS>SUBSTRUCTURE
     1 RES1 1
     2 RES2 30

@<TRIPOS>CRYSIN
  15.2460   16.1270   16.5150  90.0000  90.0000 100.9800  13 4

