# MOL2 file generated by ConQuest
# Please check atom types

@<TRIPOS>MOLECULE
GASGAI
    45    46     1
SMALL
NO_CHARGES
****
Generated from CSD

@<TRIPOS>ATOM
      1 O1         5.4807    1.2090   -3.4422 O.2       1 RES1    0.0000
      2 O2         5.9780    2.9270    0.9547 O.3       1 RES1    0.0000
      3 O3         3.0090    0.4369    2.1241 O.2       1 RES1    0.0000
      4 O4         3.2553    3.9903    1.2834 O.3       1 RES1    0.0000
      5 O5         4.6255    5.1583    5.6837 O.3       1 RES1    0.0000
      6 N1         3.8136    1.3518    1.7205 N.pl3     1 RES1    0.0000
      7 C1         5.1475    1.2344   -2.2493 C.2       1 RES1    0.0000
      8 C2         5.7766    2.1238   -1.2890 C.2       1 RES1    0.0000
      9 C3         5.3805    2.1818   -0.0034 C.2       1 RES1    0.0000
     10 C4         4.2795    1.3504    0.4584 C.2       1 RES1    0.0000
     11 C5         3.6828    0.4313   -0.4662 C.2       1 RES1    0.0000
     12 C6         4.0891    0.3733   -1.7440 C.2       1 RES1    0.0000
     13 C7         4.1045    2.3515    2.7256 C.ar      1 RES1    0.0000
     14 C8         3.7553    3.6891    2.5109 C.ar      1 RES1    0.0000
     15 C9         3.9489    4.5913    3.5394 C.ar      1 RES1    0.0000
     16 C10        4.4989    4.1656    4.7379 C.ar      1 RES1    0.0000
     17 C11        4.8402    2.8450    4.9581 C.ar      1 RES1    0.0000
     18 C12        4.6138    1.9174    3.9318 C.ar      1 RES1    0.0000
     19 C13        7.0906    3.7528    0.5780 C.3       1 RES1    0.0000
     20 C14        7.5543    4.4569    1.8200 C.3       1 RES1    0.0000
     21 C15        3.0549    5.3845    0.9771 C.3       1 RES1    0.0000
     22 C16        2.7852    5.4863   -0.4885 C.3       1 RES1    0.0000
     23 C17        5.3437    4.8585    6.8922 C.3       1 RES1    0.0000
     24 C18        5.3641    6.1057    7.7239 C.3       1 RES1    0.0000
     25 H1         6.4888    2.6739   -1.5953 H         1 RES1    0.0000
     26 H2         2.9910    0.1400   -0.1532 H         1 RES1    0.0000
     27 H3         3.6871    0.2390   -2.3499 H         1 RES1    0.0000
     28 H4         3.7049    5.5019    3.4265 H         1 RES1    0.0000
     29 H5         5.1035    2.5664    5.7843 H         1 RES1    0.0000
     30 H6         4.8158    1.0138    4.0682 H         1 RES1    0.0000
     31 H7         6.8052    4.3947    0.0626 H         1 RES1    0.0000
     32 H8         7.7917    3.2041    0.2437 H         1 RES1    0.0000
     33 H9         8.2938    5.0155    1.6098 H         1 RES1    0.0000
     34 H10        6.6888    3.8136    2.4684 H         1 RES1    0.0000
     35 H11        6.8463    4.9844    2.1666 H         1 RES1    0.0000
     36 H12        3.8434    5.8709    1.1884 H         1 RES1    0.0000
     37 H13        2.3038    5.7097    1.4600 H         1 RES1    0.0000
     38 H14        2.6473    6.3969   -0.7222 H         1 RES1    0.0000
     39 H15        2.0091    4.9829   -0.7032 H         1 RES1    0.0000
     40 H16        3.5295    5.1441   -0.9715 H         1 RES1    0.0000
     41 H17        6.2335    4.6068    6.6775 H         1 RES1    0.0000
     42 H18        4.8909    4.1713    7.3662 H         1 RES1    0.0000
     43 H19        5.8331    5.9402    8.5322 H         1 RES1    0.0000
     44 H20        4.4734    6.3687    7.9229 H         1 RES1    0.0000
     45 H21        5.7990    6.7999    7.2421 H         1 RES1    0.0000
@<TRIPOS>BOND
     1    1    7 2
     2    2    9 1
     3    3    6 1
     4    4   14 1
     5    5   16 1
     6    6   10 2
     7    7    8 1
     8    8    9 2
     9    9   10 1
    10   10   11 1
    11   11   12 2
    12   12    7 1
    13   13    6 1
    14   14   13 ar
    15   15   14 ar
    16   16   15 ar
    17   17   16 ar
    18   18   13 ar
    19   19    2 1
    20   20   19 1
    21   21    4 1
    22   22   21 1
    23   23    5 1
    24   24   23 1
    25   25    8 1
    26   26   11 1
    27   27   12 1
    28   28   15 1
    29   29   17 1
    30   30   18 1
    31   31   19 1
    32   32   19 1
    33   33   20 1
    34   34   20 1
    35   35   20 1
    36   36   21 1
    37   37   21 1
    38   38   22 1
    39   39   22 1
    40   40   22 1
    41   41   23 1
    42   42   23 1
    43   43   24 1
    44   44   24 1
    45   45   24 1
    46   17   18 ar
@<TRIPOS>SUBSTRUCTURE
     1 RES1 1

@<TRIPOS>CRYSIN
  11.2940   14.1400   11.1800  90.0000  90.5400  90.0000 231 1

