# MOL2 file generated by ConQuest
# Please check atom types

@<TRIPOS>MOLECULE
GASWII
    90    94     2
SMALL
NO_CHARGES
****
Generated from CSD

@<TRIPOS>ATOM
      1 O1        -1.4113    9.4549   16.1269 O.2       1 RES1    0.0000
      2 O2         0.7765    9.6522    8.4152 O.2       2 RES2    0.0000
      3 O3        -5.3731    6.5586   14.8378 O.2       1 RES1    0.0000
      4 O4        -4.7648    6.9292   17.9585 O.2       1 RES1    0.0000
      5 O5        -5.2862    9.1206   18.1636 O.3       1 RES1    0.0000
      6 O6        -1.1019    1.3844   13.4744 O.2       1 RES1    0.0000
      7 O7        -2.2819    0.4690   11.9825 O.2       1 RES1    0.0000
      8 O8        -3.3445    6.7482    7.2240 O.2       2 RES2    0.0000
      9 O9        -2.2604    7.3082   10.3657 O.2       2 RES2    0.0000
     10 O10       -3.2576    9.3333   10.3688 O.3       2 RES2    0.0000
     11 O11       -4.4839    2.6297    3.1009 O.2       2 RES2    0.0000
     12 O12       -4.7932    4.6901    3.5641 O.2       2 RES2    0.0000
     13 N1        -3.1941    5.8316   14.3688 N.am      1 RES1    0.0000
     14 N2        -3.4513    7.5789   15.6517 N.am      1 RES1    0.0000
     15 N3        -4.0765    8.4963   16.4606 N.am      1 RES1    0.0000
     16 N4        -2.0571    1.3794   12.7408 N.pl3     1 RES1    0.0000
     17 N5        -1.1816    6.0027    6.6927 N.am      2 RES2    0.0000
     18 N6        -1.3974    7.8472    7.8549 N.am      2 RES2    0.0000
     19 N7        -2.0023    8.7903    8.6617 N.am      2 RES2    0.0000
     20 N8        -4.1558    3.6689    3.6384 N.pl3     2 RES2    0.0000
     21 C1         1.3147    8.8266   16.2455 C.ar      1 RES1    0.0000
     22 C2         2.6142    8.4967   16.5744 C.ar      1 RES1    0.0000
     23 C3         2.9276    7.2247   17.0006 C.ar      1 RES1    0.0000
     24 C4         1.9460    6.2636   17.1026 C.ar      1 RES1    0.0000
     25 C5         0.6377    6.5756   16.7543 C.ar      1 RES1    0.0000
     26 C6         0.3159    7.8568   16.3292 C.ar      1 RES1    0.0000
     27 C7        -1.0765    8.2881   16.0417 C.2       1 RES1    0.0000
     28 C8        -2.0741    7.2976   15.6112 C.2       1 RES1    0.0000
     29 C9         3.4217    8.8276    8.6724 C.ar      2 RES2    0.0000
     30 C10        4.6804    8.4135    9.0662 C.ar      2 RES2    0.0000
     31 C11        4.8922    7.1074    9.4493 C.ar      2 RES2    0.0000
     32 C12        3.8488    6.2079    9.4439 C.ar      2 RES2    0.0000
     33 C13        2.5858    6.6114    9.0288 C.ar      2 RES2    0.0000
     34 C14        2.3620    7.9229    8.6387 C.ar      2 RES2    0.0000
     35 C15        1.0174    8.4582    8.2921 C.2       2 RES2    0.0000
     36 C16       -0.0247    7.5446    7.8128 C.2       2 RES2    0.0000
     37 C17       -1.9365    6.2219   14.8173 C.2       1 RES1    0.0000
     38 C18       -4.1651    6.6556   14.9349 C.2       1 RES1    0.0000
     39 C19       -4.7009    8.0646   17.5786 C.2       1 RES1    0.0000
     40 C20       -5.9922    8.8531   19.3945 C.3       1 RES1    0.0000
     41 C21       -5.1721    9.1137   20.5614 C.3       1 RES1    0.0000
     42 C22       -3.4832    4.7153   13.5406 C.ar      1 RES1    0.0000
     43 C23       -4.6145    4.7274   12.7211 C.ar      1 RES1    0.0000
     44 C24       -4.9208    3.6036   11.9663 C.ar      1 RES1    0.0000
     45 C25       -4.1079    2.4940   11.9785 C.ar      1 RES1    0.0000
     46 C26       -2.9697    2.5354   12.7530 C.ar      1 RES1    0.0000
     47 C27       -2.6423    3.6115   13.5566 C.ar      1 RES1    0.0000
     48 C28        0.0849    6.4127    7.0822 C.2       2 RES2    0.0000
     49 C29       -2.1354    6.8551    7.2486 C.2       2 RES2    0.0000
     50 C30       -2.4942    8.3710    9.8569 C.2       2 RES2    0.0000
     51 C31       -3.8853    9.0826   11.6590 C.3       2 RES2    0.0000
     52 C32       -3.0610    9.5219   12.7543 C.3       2 RES2    0.0000
     53 C33       -1.4904    4.8448    5.9239 C.ar      2 RES2    0.0000
     54 C34       -0.6762    3.7282    5.9867 C.ar      2 RES2    0.0000
     55 C35       -0.9853    2.6050    5.2368 C.ar      2 RES2    0.0000
     56 C36       -2.1237    2.5657    4.4504 C.ar      2 RES2    0.0000
     57 C37       -2.9101    3.6902    4.4224 C.ar      2 RES2    0.0000
     58 C38       -2.6198    4.8492    5.1132 C.ar      2 RES2    0.0000
     59 H1         1.0823    9.7910   15.9377 H         1 RES1    0.0000
     60 H2         3.3626    9.2190   16.4906 H         1 RES1    0.0000
     61 H3         3.9113    6.9856   17.2457 H         1 RES1    0.0000
     62 H4         2.1857    5.3093   17.4354 H         1 RES1    0.0000
     63 H5        -0.1034    5.8447   16.8108 H         1 RES1    0.0000
     64 H6         3.2663    9.8183    8.3894 H         2 RES2    0.0000
     65 H7         5.4691    9.0913    9.0695 H         2 RES2    0.0000
     66 H8         5.8355    6.7983    9.7542 H         2 RES2    0.0000
     67 H9         4.0065    5.2294    9.7512 H         2 RES2    0.0000
     68 H10        1.8001    5.9261    9.0173 H         2 RES2    0.0000
     69 H11       -1.0375    5.7593   14.5777 H         1 RES1    0.0000
     70 H12       -4.0071    9.3725   16.2219 H         1 RES1    0.0000
     71 H13       -5.2226    5.5747   12.6821 H         1 RES1    0.0000
     72 H14       -5.7839    3.6086   11.3806 H         1 RES1    0.0000
     73 H15       -4.3455    1.6562   11.4200 H         1 RES1    0.0000
     74 H16       -1.7964    3.5949   14.1596 H         1 RES1    0.0000
     75 H17        0.9762    5.9282    6.8487 H         2 RES2    0.0000
     76 H18       -2.4122    9.6049    8.2575 H         2 RES2    0.0000
     77 H19        0.1676    3.7379    6.5949 H         2 RES2    0.0000
     78 H20       -0.3600    1.7759    5.2737 H         2 RES2    0.0000
     79 H21       -2.3719    1.7216    3.9020 H         2 RES2    0.0000
     80 H22       -3.2227    5.6936    5.0319 H         2 RES2    0.0000
     81 H23       -6.2689    7.8468   19.4085 H         1 RES1    0.0000
     82 H24       -6.8302    9.4493   19.4462 H         1 RES1    0.0000
     83 H25       -5.6944    8.9018   21.4190 H         1 RES1    0.0000
     84 H26       -4.8704   10.1088   20.5541 H         1 RES1    0.0000
     85 H27       -4.3108    8.5059   20.5175 H         1 RES1    0.0000
     86 H28       -3.9982    8.0540   11.7865 H         2 RES2    0.0000
     87 H29       -4.7881    9.5554   11.7105 H         2 RES2    0.0000
     88 H30       -3.5929    9.3360   13.6143 H         2 RES2    0.0000
     89 H31       -2.9575   10.5565   12.6188 H         2 RES2    0.0000
     90 H32       -2.1844    9.0470   12.7106 H         2 RES2    0.0000
@<TRIPOS>BOND
     1    1   27 2
     2    2   35 2
     3    3   38 2
     4    4   39 2
     5    5   39 1
     6    6   16 2
     7    7   16 2
     8    8   49 2
     9    9   50 2
    10   10   50 1
    11   11   20 2
    12   12   20 2
    13   13   37 1
    14   14   15 1
    15   15   39 1
    16   16   46 1
    17   17   48 1
    18   18   19 1
    19   19   50 1
    20   20   57 1
    21   21   22 ar
    22   22   23 ar
    23   23   24 ar
    24   24   25 ar
    25   25   26 ar
    26   26   21 ar
    27   27   26 1
    28   28   14 1
    29   29   30 ar
    30   30   31 ar
    31   31   32 ar
    32   32   33 ar
    33   33   34 ar
    34   34   29 ar
    35   35   34 1
    36   36   18 1
    37   37   28 2
    38   38   13 1
    39   40    5 1
    40   41   40 1
    41   42   13 1
    42   43   42 ar
    43   44   43 ar
    44   45   44 ar
    45   46   45 ar
    46   47   42 ar
    47   48   36 2
    48   49   17 1
    49   51   10 1
    50   52   51 1
    51   53   17 1
    52   54   53 ar
    53   55   54 ar
    54   56   55 ar
    55   57   56 ar
    56   58   53 ar
    57   59   21 1
    58   60   22 1
    59   61   23 1
    60   62   24 1
    61   63   25 1
    62   64   29 1
    63   65   30 1
    64   66   31 1
    65   67   32 1
    66   68   33 1
    67   69   37 1
    68   70   15 1
    69   71   43 1
    70   72   44 1
    71   73   45 1
    72   74   47 1
    73   75   48 1
    74   76   19 1
    75   77   54 1
    76   78   55 1
    77   79   56 1
    78   80   58 1
    79   81   40 1
    80   82   40 1
    81   83   41 1
    82   84   41 1
    83   85   41 1
    84   86   51 1
    85   87   51 1
    86   88   52 1
    87   89   52 1
    88   90   52 1
    89   14   38 1
    90   18   49 1
    91   27   28 1
    92   35   36 1
    93   46   47 ar
    94   57   58 ar
@<TRIPOS>SUBSTRUCTURE
     1 RES1 1
     2 RES2 2

@<TRIPOS>CRYSIN
  11.2412   20.7177   16.1227  90.0000  99.5948  90.0000  14 2

