# MOL2 file generated by ConQuest
# Please check atom types

@<TRIPOS>MOLECULE
GASYOP
    44    35     2
SMALL
NO_CHARGES
****
Generated from CSD

@<TRIPOS>ATOM
      1 O1         0.9798   -2.4028    9.9777 O.3       1 RES1    0.0000
      2 C1        -0.3163   -2.0700   10.0395 C.3       1 RES1    0.0000
      3 H1        -0.8376   -2.5858   10.6891 H         1 RES1    0.0000
      4 C2         0.0197    0.0759    8.8054 C.3       1 RES1    0.0000
      5 H2        -0.3993    0.9364    8.6499 H         1 RES1    0.0000
      6 H3         0.9408    0.2419    9.0613 H         1 RES1    0.0000
      7 C3         0.0147   -0.6606    7.5758 C.3       1 RES1    0.0000
      8 H4         0.6237   -0.2147    6.9676 H         1 RES1    0.0000
      9 H5        -0.8740   -0.5844    7.1952 H         1 RES1    0.0000
     10 C4        -0.0525   -2.7540    8.8171 C.3       1 RES1    0.0000
     11 H6        -0.3528   -3.6838    8.7483 H         1 RES1    0.0000
     12 O2         1.3067   -0.0809    8.6416 Du        2 SUP2    0.0000
     13 C5        -0.3163   -2.0700   10.0395 Du        2 SUP2    0.0000
     14 H7         0.4705   -2.1490   10.6013 Du        2 SUP2    0.0000
     15 H8        -1.0385   -2.5339   10.4911 Du        2 SUP2    0.0000
     16 C6         0.0197    0.0759    8.8054 Du        2 SUP2    0.0000
     17 H9        -0.2630    1.0069    8.6866 Du        2 SUP2    0.0000
     18 C7         0.0147   -0.6606    7.5758 Du        2 SUP2    0.0000
     19 H10       -0.1674   -0.2037    6.7281 Du        2 SUP2    0.0000
     20 C8        -0.0525   -2.7540    8.8171 Du        2 SUP2    0.0000
     21 H11       -0.8603   -3.2444    8.5989 Du        2 SUP2    0.0000
     22 H12        0.6257   -3.4175    9.0174 Du        2 SUP2    0.0000
     23 O3        -2.5165    0.2956   11.8580 O.2       1 RES1    0.0000
     24 O4         1.2845    3.8582   16.7734 O.2       1 RES1    0.0000
     25 O5        -0.4224    3.1070   17.7753 O.2       1 RES1    0.0000
     26 N1        -0.3795    0.0853   11.2013 N.am      1 RES1    0.0000
     27 H13        0.4431    0.2404   11.3992 H         1 RES1    0.0000
     28 N2         0.2618    3.2218   16.7864 N.pl3     1 RES1    0.0000
     29 C9        -0.6855   -0.6005    9.9610 C.3       1 RES1    0.0000
     30 H14       -1.6517   -0.5369    9.8082 H         1 RES1    0.0000
     31 C10        0.3699   -2.0937    7.5864 C.3       1 RES1    0.0000
     32 H15       -0.0489   -2.5321    6.8300 H         1 RES1    0.0000
     33 H16        1.3311   -2.1855    7.4904 H         1 RES1    0.0000
     34 C11       -1.3389    0.4858   12.0493 C.2       1 RES1    0.0000
     35 C12       -0.8632    1.2042   13.2741 C.ar      1 RES1    0.0000
     36 C13        0.1519    2.1340   13.2509 C.ar      1 RES1    0.0000
     37 H17        0.5930    2.3122   12.4520 H         1 RES1    0.0000
     38 C14        0.5224    2.8022   14.3942 C.ar      1 RES1    0.0000
     39 H18        1.2023    3.4364   14.3785 H         1 RES1    0.0000
     40 C15       -0.1418    2.5070   15.5641 C.ar      1 RES1    0.0000
     41 C16       -1.1446    1.6086   15.6228 C.ar      1 RES1    0.0000
     42 H19       -1.5746    1.4315   16.4284 H         1 RES1    0.0000
     43 C17       -1.5194    0.9579   14.4746 C.ar      1 RES1    0.0000
     44 H20       -2.2196    0.3472   14.4995 H         1 RES1    0.0000
@<TRIPOS>BOND
     1    1    2 1
     2    2    3 1
     3    4    5 1
     4    6    4 1
     5    7    4 1
     6    8    7 1
     7    9    7 1
     8   10    1 1
     9   11   10 1
    10   23   34 2
    11   24   28 2
    12   25   28 2
    13   26   27 1
    14   28   40 1
    15   29    2 1
    16   30   29 1
    17   31    7 1
    18   32   31 1
    19   33   31 1
    20   34   26 1
    21   35   34 1
    22   36   35 ar
    23   37   36 1
    24   38   36 ar
    25   39   38 1
    26   40   38 ar
    27   41   40 ar
    28   42   41 1
    29   43   35 ar
    30   44   43 1
    31    2   10 1
    32    4   29 1
    33   10   31 1
    34   26   29 1
    35   41   43 ar
@<TRIPOS>SUBSTRUCTURE
     1 RES1 1
     2 SUP2 12

@<TRIPOS>CRYSIN
   4.9690   10.9110   12.2800  98.4600 100.2400 102.6200   2 1

