# MOL2 file generated by ConQuest
# Please check atom types

@<TRIPOS>MOLECULE
GATFUF
    93    96     3
SMALL
NO_CHARGES
****
Generated from CSD

@<TRIPOS>ATOM
      1 O1         1.4115    4.8023    1.4417 O.2       1 RES1    0.0000
      2 O2         1.8540    5.8773   -0.4033 O.2       1 RES1    0.0000
      3 O3         3.0716    8.7670   -1.0067 O.2       1 RES1    0.0000
      4 O4         1.0532    9.2161   -0.3399 O.2       1 RES1    0.0000
      5 O5         3.3823   10.8567    1.2920 O.2       1 RES1    0.0000
      6 O6         3.9357   10.6023    3.3801 O.2       1 RES1    0.0000
      7 O7         4.5438    4.9531    1.5608 O.2       1 RES1    0.0000
      8 O8         6.7191    4.9286    1.7778 O.2       1 RES1    0.0000
      9 O9         8.5334    4.7653    4.3580 O.2       1 RES1    0.0000
     10 O10        8.4405    6.8455    3.7834 O.2       1 RES1    0.0000
     11 O11        7.6342    6.8112    6.8194 O.2       1 RES1    0.0000
     12 O12        5.7149    6.6492    7.8394 O.2       1 RES1    0.0000
     13 N1         2.7427    6.8369    2.8443 N.3       1 RES1    0.0000
     14 N2         3.1911    8.0262    3.2678 N.2       1 RES1    0.0000
     15 N3         1.8179    5.7705    0.8123 N.pl3     1 RES1    0.0000
     16 N4         2.1682    8.7672   -0.1820 N.pl3     1 RES1    0.0000
     17 N5         3.4793   10.2046    2.3266 N.pl3     1 RES1    0.0000
     18 N6         4.3140    5.7191    4.2255 N.3       1 RES1    0.0000
     19 N7         4.5280    6.1240    5.4841 N.2       1 RES1    0.0000
     20 N8         5.5847    5.1046    2.1900 N.pl3     1 RES1    0.0000
     21 N9         7.9425    5.8037    4.1654 N.pl3     1 RES1    0.0000
     22 N10        6.4350    6.5714    6.8627 N.pl3     1 RES1    0.0000
     23 C1         2.3106    6.9045    1.5546 C.2       1 RES1    0.0000
     24 C2         2.4780    8.1916    1.1297 C.2       1 RES1    0.0000
     25 C3         3.0250    8.8335    2.2400 C.2       1 RES1    0.0000
     26 C4         2.9356    5.6946    3.7520 C.3       1 RES1    0.0000
     27 H1         2.3116    5.7609    4.5192 H         1 RES1    0.0000
     28 H2         2.7554    4.8461    3.2746 H         1 RES1    0.0000
     29 C5         5.4877    5.5325    3.5582 C.2       1 RES1    0.0000
     30 C6         6.5008    5.8270    4.4241 C.2       1 RES1    0.0000
     31 C7         5.8392    6.1759    5.6014 C.2       1 RES1    0.0000
     32 O13        1.7011    2.8997    6.1112 O.2       2 RES2    0.0000
     33 O14        3.7819    3.4249    6.4739 O.2       2 RES2    0.0000
     34 O15        5.5885    3.3541    8.9065 O.2       2 RES2    0.0000
     35 O16        5.6568    1.2165    8.5391 O.2       2 RES2    0.0000
     36 O17        2.8231    1.1709   12.3912 O.2       2 RES2    0.0000
     37 O18        4.7838    1.2796   11.4503 O.2       2 RES2    0.0000
     38 O19       -1.6777    3.0951    6.1989 O.2       2 RES2    0.0000
     39 O20       -1.4344    2.0220    4.3153 O.2       2 RES2    0.0000
     40 O21       -1.9161   -0.9144    4.1094 O.2       2 RES2    0.0000
     41 O22        0.2067   -1.2138    3.8290 O.2       2 RES2    0.0000
     42 O23        1.1284   -2.6135    7.9325 O.2       2 RES2    0.0000
     43 O24        0.1070   -2.9880    6.0531 O.2       2 RES2    0.0000
     44 N11        1.4505    2.2298    8.8090 N.3       2 RES2    0.0000
     45 N12        1.6615    1.8060   10.0623 N.2       2 RES2    0.0000
     46 N13        2.7039    2.9615    6.8090 N.pl3     2 RES2    0.0000
     47 N14        5.0799    2.2596    8.8004 N.pl3     2 RES2    0.0000
     48 N15        3.5658    1.3728   11.4465 N.pl3     2 RES2    0.0000
     49 N16       -0.1654    1.1293    7.4637 N.3       2 RES2    0.0000
     50 C8        -0.6634    1.0529    6.1992 C.2       2 RES2    0.0000
     51 N17       -1.2988    2.1502    5.5229 N.pl3     2 RES2    0.0000
     52 N18       -0.7604   -0.8237    4.4596 N.pl3     2 RES2    0.0000
     53 N19        0.4807   -2.2618    6.9685 N.pl3     2 RES2    0.0000
     54 C9         2.6224    2.4547    8.1544 C.2       2 RES2    0.0000
     55 C10        3.6372    2.1650    9.0245 C.2       2 RES2    0.0000
     56 C11        2.9750    1.7722   10.1861 C.2       2 RES2    0.0000
     57 C12        0.0712    2.2848    8.3441 C.3       2 RES2    0.0000
     58 H3        -0.0859    3.1274    7.8471 H         2 RES2    0.0000
     59 H4        -0.5485    2.2556    9.1155 H         2 RES2    0.0000
     60 N20        0.3022   -0.0568    7.8762 N.2       2 RES2    0.0000
     61 C13        0.1005   -0.8684    6.8576 C.2       2 RES2    0.0000
     62 C14       -0.4905   -0.2410    5.7721 C.2       2 RES2    0.0000
     63 N21        6.7562    7.9663   13.0654 N.2       3 RES3    0.0000
     64 N22        7.1976    6.7520   12.7042 N.3       3 RES3    0.0000
     65 C15        7.6639    6.7495   11.4278 C.2       3 RES3    0.0000
     66 C16        7.5109    8.0162   10.9391 C.2       3 RES3    0.0000
     67 C17        6.9501    8.7224   12.0057 C.2       3 RES3    0.0000
     68 N23        6.6389   10.1328   12.0857 N.pl3     3 RES3    0.0000
     69 O25        6.8669    9.0844    9.0352 O.2       3 RES3    0.0000
     70 N24        7.7832    8.5104    9.6032 N.pl3     3 RES3    0.0000
     71 O26        8.8921    8.3372    9.1531 O.2       3 RES3    0.0000
     72 O27        8.1345    5.5287    9.5739 O.2       3 RES3    0.0000
     73 N25        8.2478    5.5922   10.7871 N.pl3     3 RES3    0.0000
     74 O28        8.8361    4.7960   11.5007 O.2       3 RES3    0.0000
     75 O29        7.1742   10.8601   11.2515 O.2       3 RES3    0.0000
     76 O30        5.8758   10.4999   12.9655 O.2       3 RES3    0.0000
     77 C18        7.0127    5.6663   13.6809 C.3       3 RES3    0.0000
     78 H5         7.2052    4.7914   13.2583 H         3 RES3    0.0000
     79 H6         7.6285    5.7874   14.4466 H         3 RES3    0.0000
     80 N26        5.6250    5.7094   14.1399 N.pl3     3 RES3    0.0000
     81 N27        5.3881    6.2994   15.3238 N.2       3 RES3    0.0000
     82 C19        4.0759    6.4016   15.4012 C.2       3 RES3    0.0000
     83 C20        3.4312    5.8950   14.2721 C.2       3 RES3    0.0000
     84 C21        4.4562    5.4492   13.4838 C.2       3 RES3    0.0000
     85 N28        4.4036    4.7367   12.2383 N.pl3     3 RES3    0.0000
     86 O31        5.4581    4.5282   11.6539 O.2       3 RES3    0.0000
     87 O32        3.2922    4.3820   11.8703 O.2       3 RES3    0.0000
     88 N29        1.9917    5.7990   14.0332 N.pl3     3 RES3    0.0000
     89 O33        1.4841    4.7175   14.2318 O.2       3 RES3    0.0000
     90 O34        1.4132    6.8175   13.6850 O.2       3 RES3    0.0000
     91 O35        2.2820    7.2621   16.5012 O.2       3 RES3    0.0000
     92 N30        3.4615    6.9421   16.6002 N.pl3     3 RES3    0.0000
     93 O36        4.1546    7.0314   17.5979 O.2       3 RES3    0.0000
@<TRIPOS>BOND
     1    1   15 2
     2    2   15 2
     3    3   16 2
     4    4   16 2
     5    5   17 2
     6    6   17 2
     7    7   20 2
     8    8   20 2
     9    9   21 2
    10   10   21 2
    11   11   22 2
    12   12   22 2
    13   13   14 1
    14   14   25 2
    15   15   23 1
    16   16   24 1
    17   17   25 1
    18   18   19 1
    19   19   31 2
    20   20   29 1
    21   21   30 1
    22   22   31 1
    23   23   13 1
    24   24   23 2
    25   25   24 1
    26   26   13 1
    27   27   26 1
    28   28   26 1
    29   29   18 1
    30   30   29 2
    31   31   30 1
    32   32   46 2
    33   33   46 2
    34   34   47 2
    35   35   47 2
    36   36   48 2
    37   37   48 2
    38   38   51 2
    39   39   51 2
    40   40   52 2
    41   41   52 2
    42   42   53 2
    43   43   53 2
    44   44   45 1
    45   45   56 2
    46   46   54 1
    47   47   55 1
    48   48   56 1
    49   49   50 1
    50   50   51 1
    51   52   62 1
    52   53   61 1
    53   54   44 1
    54   55   54 2
    55   56   55 1
    56   57   44 1
    57   58   57 1
    58   59   57 1
    59   60   49 1
    60   61   60 2
    61   62   50 2
    62   63   64 1
    63   64   65 1
    64   65   66 2
    65   66   67 1
    66   67   63 2
    67   68   67 1
    68   69   70 2
    69   70   66 1
    70   71   70 2
    71   72   73 2
    72   73   65 1
    73   74   73 2
    74   75   68 2
    75   76   68 2
    76   77   64 1
    77   78   77 1
    78   79   77 1
    79   80   77 1
    80   81   80 1
    81   82   81 2
    82   83   82 1
    83   84   80 1
    84   85   84 1
    85   86   85 2
    86   87   85 2
    87   88   83 1
    88   89   88 2
    89   90   88 2
    90   91   92 2
    91   92   82 1
    92   93   92 2
    93   18   26 1
    94   49   57 1
    95   61   62 1
    96   83   84 2
@<TRIPOS>SUBSTRUCTURE
     1 RES1 1
     2 RES2 32
     3 RES3 63

@<TRIPOS>CRYSIN
   8.6118   16.5734   29.7940  90.0000  95.9380  90.0000 231 1

