# MOL2 file generated by ConQuest
# Please check atom types

@<TRIPOS>MOLECULE
GATFEP
    31    32     1
SMALL
NO_CHARGES
****
Generated from CSD

@<TRIPOS>ATOM
      1 O1         4.7988    5.8374    5.3568 O.2       1 RES1    0.0000
      2 O2         6.0150    6.3194    7.0785 O.2       1 RES1    0.0000
      3 O3        10.3840    8.9501    5.2014 O.2       1 RES1    0.0000
      4 O4        10.0201    9.1382    3.0549 O.2       1 RES1    0.0000
      5 O5         7.2666    5.7068    0.2154 O.2       1 RES1    0.0000
      6 O6         6.6023    6.7649   -1.5709 O.2       1 RES1    0.0000
      7 O7         3.3103   10.7224    0.2005 O.2       1 RES1    0.0000
      8 O8         3.0209   10.2817    2.3200 O.2       1 RES1    0.0000
      9 C1         8.5304    7.9823    4.3269 C.2       1 RES1    0.0000
     10 C2         7.9296    7.5733    5.5472 C.2       1 RES1    0.0000
     11 C3         6.7977    6.9271    5.0826 C.2       1 RES1    0.0000
     12 N1         5.8123    6.3223    5.8620 N.pl3     1 RES1    0.0000
     13 N2         8.3448    7.7931    6.7780 N.3       1 RES1    0.0000
     14 N3         9.7258    8.7388    4.1854 N.pl3     1 RES1    0.0000
     15 C4         5.6804    7.3486    0.3849 C.2       1 RES1    0.0000
     16 C5         4.9160    8.4105   -0.1066 C.2       1 RES1    0.0000
     17 C6         4.3299    8.8953    1.0810 C.2       1 RES1    0.0000
     18 N4         6.5718    6.5488   -0.3493 N.pl3     1 RES1    0.0000
     19 N5         4.7817    8.8780   -1.3483 N.3       1 RES1    0.0000
     20 N6         3.4874   10.0378    1.2112 N.pl3     1 RES1    0.0000
     21 N7         7.8625    7.6126    3.2453 N.2       1 RES1    0.0000
     22 N8         6.7940    6.9694    3.7048 N.pl3     1 RES1    0.0000
     23 C7         5.9381    6.2915    2.7290 C.3       1 RES1    0.0000
     24 N9         5.4899    7.2737    1.7467 N.pl3     1 RES1    0.0000
     25 N10        4.6498    8.2137    2.1655 N.2       1 RES1    0.0000
     26 H1         4.1516    9.5050   -1.4416 H         1 RES1    0.0000
     27 H2         5.1285    5.9718    3.2347 H         1 RES1    0.0000
     28 H3         6.4717    5.6070    2.1845 H         1 RES1    0.0000
     29 H4         7.8881    7.4888    7.3273 H         1 RES1    0.0000
     30 H5         9.0848    8.2665    6.8364 H         1 RES1    0.0000
     31 H6         5.1163    8.4009   -1.9258 H         1 RES1    0.0000
@<TRIPOS>BOND
     1    1   12 2
     2    2   12 2
     3    3   14 2
     4    4   14 2
     5    5   18 2
     6    6   18 2
     7    7   20 2
     8    8   20 2
     9    9   10 1
    10   10   11 2
    11   11   12 1
    12   13   10 1
    13   14    9 1
    14   15   16 2
    15   16   17 1
    16   17   20 1
    17   18   15 1
    18   19   16 1
    19   21    9 2
    20   22   11 1
    21   23   22 1
    22   24   15 1
    23   25   17 2
    24   26   19 1
    25   27   23 1
    26   28   23 1
    27   29   13 1
    28   30   13 1
    29   31   19 1
    30   21   22 1
    31   23   24 1
    32   24   25 1
@<TRIPOS>SUBSTRUCTURE
     1 RES1 1

@<TRIPOS>CRYSIN
  12.2107    9.6010   22.1100  90.0000  90.0000  90.0000  61 1

