# MOL2 file generated by ConQuest
# Please check atom types

@<TRIPOS>MOLECULE
GATPEZ
   146   153     1
SMALL
NO_CHARGES
****
Generated from CSD

@<TRIPOS>ATOM
      1 O1         2.1532   14.4487   19.8691 O.3       1 RES1    0.0000
      2 N1         1.7711   11.8373   14.3776 N.pl3     1 RES1    0.0000
      3 C1         2.1962   12.6311   16.7547 C.ar      1 RES1    0.0000
      4 O2         2.6003   10.9743   14.4511 O.2       1 RES1    0.0000
      5 C2         1.7179   12.8596   15.3882 C.ar      1 RES1    0.0000
      6 O3         3.9598    9.6586   19.8622 O.2       1 RES1    0.0000
      7 N2         2.7584   11.4704   17.0877 N.ar      1 RES1    0.0000
      8 N3         4.1462    9.3040   17.6022 N.am      1 RES1    0.0000
      9 H1         4.0218    9.7078   16.8526 H         1 RES1    0.0000
     10 C3         2.4680   14.2299   21.2173 C.3       1 RES1    0.0000
     11 H2         3.3733   13.8953   21.2952 H         1 RES1    0.0000
     12 H3         1.8638   13.5696   21.5928 H         1 RES1    0.0000
     13 C4         2.3289   15.5760   21.9890 C.3       1 RES1    0.0000
     14 H4         2.7356   16.3661   21.5780 H         1 RES1    0.0000
     15 C5         0.8404   15.5243   22.0211 C.3       1 RES1    0.0000
     16 H5         0.7095   16.2682   22.6305 H         1 RES1    0.0000
     17 H6         0.6892   15.9183   21.1479 H         1 RES1    0.0000
     18 C6         7.3771    2.2126   12.0051 C.3       1 RES1    0.0000
     19 H7         7.2309    1.2549   11.9853 H         1 RES1    0.0000
     20 H8         6.8445    2.6164   11.3022 H         1 RES1    0.0000
     21 O4         8.5395    2.4514   11.8190 O.3       1 RES1    0.0000
     22 H9         8.9193    1.7743   11.5500 H         1 RES1    0.0000
     23 C7         1.1740   14.0538   15.0459 C.ar      1 RES1    0.0000
     24 H10        0.8680   14.1831   14.1782 H         1 RES1    0.0000
     25 O5         6.1899    4.6317   14.4947 O.3       1 RES1    0.0000
     26 O6         4.9121    8.8292   11.7042 O.2       1 RES1    0.0000
     27 C8         1.0660   15.0852   15.9646 C.ar      1 RES1    0.0000
     28 H11        0.7274   15.9079   15.6949 H         1 RES1    0.0000
     29 N4         4.8894    8.5046   15.1769 N.ar      1 RES1    0.0000
     30 O7         3.9674   16.2426   13.2843 O.3       1 RES1    0.0000
     31 C9         1.4503   14.9026   17.2554 C.ar      1 RES1    0.0000
     32 H12        1.3533   15.5931   17.8691 H         1 RES1    0.0000
     33 N5         5.1942   10.3934   13.3142 N.am      1 RES1    0.0000
     34 H13        5.5104   10.4779   14.1091 H         1 RES1    0.0000
     35 N6         5.2810   12.6076   14.7795 N.ar      1 RES1    0.0000
     36 O8         5.4523   14.3551   17.8434 O.2       1 RES1    0.0000
     37 C10        1.9833   13.6967   17.6550 C.ar      1 RES1    0.0000
     38 N7         6.2141   12.3135   17.2209 N.am      1 RES1    0.0000
     39 H14        6.3063   11.8223   16.5211 H         1 RES1    0.0000
     40 C11        2.4080   13.4396   19.0216 C.ar      1 RES1    0.0000
     41 O9         8.4380    7.7423   20.3927 O.3       1 RES1    0.0000
     42 N8         7.4861    9.9755   17.0280 N.ar      1 RES1    0.0000
     43 O10        9.1012    7.3342   15.4341 O.3       1 RES1    0.0000
     44 C12        2.9200   12.2238   19.3500 C.ar      1 RES1    0.0000
     45 H15        3.1346   12.0145   20.2307 H         1 RES1    0.0000
     46 O11        0.9547   11.9253   13.4796 O.2       1 RES1    0.0000
     47 O12        7.9922    9.0331   14.5544 O.3       1 RES1    0.0000
     48 C13        3.1063   11.3256   18.3532 C.ar      1 RES1    0.0000
     49 C14        3.7845    9.9937   18.6840 C.2       1 RES1    0.0000
     50 C15        4.6960    8.0236   17.5011 C.ar      1 RES1    0.0000
     51 C16        5.4133    5.9146   18.3647 C.ar      1 RES1    0.0000
     52 H16        5.5461    5.3529   19.0939 H         1 RES1    0.0000
     53 C17        4.9424    7.1665   18.5714 C.ar      1 RES1    0.0000
     54 H17        4.7817    7.4589   19.4396 H         1 RES1    0.0000
     55 C18        5.6986    5.4581   17.1038 C.ar      1 RES1    0.0000
     56 H18        6.0335    4.5991   16.9797 H         1 RES1    0.0000
     57 C19        5.0463    7.5975   16.1897 C.ar      1 RES1    0.0000
     58 C20        5.4810    6.2963   15.9991 C.ar      1 RES1    0.0000
     59 C21        5.7603    5.8975   14.6394 C.ar      1 RES1    0.0000
     60 C22        5.6121    6.8152   13.6220 C.ar      1 RES1    0.0000
     61 H19        5.7829    6.5849   12.7373 H         1 RES1    0.0000
     62 C23        5.1924    8.1095   13.9711 C.ar      1 RES1    0.0000
     63 O13       11.3283    6.0610   21.8351 O.3       1 RES1    0.0000
     64 H20       11.3755    6.4688   21.1244 H         1 RES1    0.0000
     65 C24        8.9704    6.4360   20.2549 C.3       1 RES1    0.0000
     66 H21        9.8776    6.4923   19.9174 H         1 RES1    0.0000
     67 H22        8.4408    5.9384   19.6134 H         1 RES1    0.0000
     68 C25       10.0567    6.1564   22.3312 C.3       1 RES1    0.0000
     69 H23        9.8980    7.0899   22.5376 H         1 RES1    0.0000
     70 H24       10.0396    5.6736   23.1716 H         1 RES1    0.0000
     71 C26        8.9719    5.7085   21.5756 C.3       1 RES1    0.0000
     72 H25        9.2487    4.8048   21.3186 H         1 RES1    0.0000
     73 C27        7.6959    5.4810   22.1911 C.3       1 RES1    0.0000
     74 H26        7.8100    5.2431   23.1252 H         1 RES1    0.0000
     75 H27        7.1481    6.2796   22.1403 H         1 RES1    0.0000
     76 O14        7.1326    4.4932   21.5342 O.3       1 RES1    0.0000
     77 H28        7.1852    3.8041   21.9738 H         1 RES1    0.0000
     78 C28        6.4659    4.1688   13.1557 C.3       1 RES1    0.0000
     79 H29        7.1416    4.7241   12.7363 H         1 RES1    0.0000
     80 H30        5.6617    4.1931   12.6147 H         1 RES1    0.0000
     81 C29        6.9626    2.7518   13.3119 C.3       1 RES1    0.0000
     82 H31        7.7242    2.7373   13.9280 H         1 RES1    0.0000
     83 O15        4.7308    1.8440   12.9651 O.3       1 RES1    0.0000
     84 H32        4.4887    1.0729   12.8212 H         1 RES1    0.0000
     85 C30        5.9205    1.8347   13.7988 C.3       1 RES1    0.0000
     86 H33        5.6772    2.0842   14.7045 H         1 RES1    0.0000
     87 H34        6.2804    0.9335   13.8273 H         1 RES1    0.0000
     88 C31        5.0832    9.1554   12.8847 C.2       1 RES1    0.0000
     89 C32        4.8757   11.5964   12.6688 C.ar      1 RES1    0.0000
     90 C33        4.4974   11.6887   11.3390 C.ar      1 RES1    0.0000
     91 H35        4.5106   10.9420   10.7848 H         1 RES1    0.0000
     92 C34        4.0892   12.9614   10.8429 C.ar      1 RES1    0.0000
     93 H36        3.8342   13.0299    9.9504 H         1 RES1    0.0000
     94 C35        4.0568   14.0613   11.6031 C.ar      1 RES1    0.0000
     95 H37        3.7911   14.8745   11.2397 H         1 RES1    0.0000
     96 C36        4.4307   13.9724   12.9697 C.ar      1 RES1    0.0000
     97 C37        4.8853   12.7747   13.4910 C.ar      1 RES1    0.0000
     98 C38        5.2157   13.6640   15.5443 C.ar      1 RES1    0.0000
     99 C39        4.7839   14.9348   15.1539 C.ar      1 RES1    0.0000
    100 H38        4.7584   15.6434   15.7550 H         1 RES1    0.0000
    101 C40        4.3996   15.0930   13.8470 C.ar      1 RES1    0.0000
    102 C41        4.0046   17.4375   14.1295 C.3       1 RES1    0.0000
    103 H39        4.8744   17.5268   14.5499 H         1 RES1    0.0000
    104 H40        3.3303   17.3809   14.8246 H         1 RES1    0.0000
    105 C42        3.7325   18.6262   13.2292 C.3       1 RES1    0.0000
    106 C43        2.2604   18.4352   13.1121 C.3       1 RES1    0.0000
    107 H41        1.9500   19.1820   12.5755 H         1 RES1    0.0000
    108 H42        2.1501   17.6466   12.5571 H         1 RES1    0.0000
    109 O16        1.3304   18.3013   14.1135 O.3       1 RES1    0.0000
    110 H43        1.2911   17.5171   14.3481 H         1 RES1    0.0000
    111 C44        4.0819   19.9015   14.0423 C.3       1 RES1    0.0000
    112 H44        4.9876   19.8373   14.3879 H         1 RES1    0.0000
    113 H45        4.0298   20.6847   13.4719 H         1 RES1    0.0000
    114 C45        5.6740   13.4789   16.9890 C.2       1 RES1    0.0000
    115 C46        6.6820   11.7040   18.4336 C.ar      1 RES1    0.0000
    116 C47        6.4909   12.2929   19.6808 C.ar      1 RES1    0.0000
    117 H46        6.1028   13.1335   19.7708 H         1 RES1    0.0000
    118 C48        6.9177   11.5456   20.8039 C.ar      1 RES1    0.0000
    119 H47        6.8138   11.9228   21.6473 H         1 RES1    0.0000
    120 C49        7.4582   10.3327   20.7189 C.ar      1 RES1    0.0000
    121 H48        7.7089    9.8806   21.4921 H         1 RES1    0.0000
    122 C50        7.6508    9.7387   19.4580 C.ar      1 RES1    0.0000
    123 C51        7.2598   10.4390   18.2912 C.ar      1 RES1    0.0000
    124 C52        8.2023    8.4555   19.2719 C.ar      1 RES1    0.0000
    125 C53        8.4507    7.9987   17.9881 C.ar      1 RES1    0.0000
    126 H49        8.8566    7.1739   17.8504 H         1 RES1    0.0000
    127 C54        8.0858    8.7889   16.9201 C.ar      1 RES1    0.0000
    128 C55        8.3974    8.3622   15.5512 C.3       1 RES1    0.0000
    129 C56        8.5319    8.6317   13.2430 C.3       1 RES1    0.0000
    130 H50        8.2742    9.2759   12.5807 H         1 RES1    0.0000
    131 H51        8.1840    7.7695   13.0051 H         1 RES1    0.0000
    132 H52        9.4899    8.5878   13.2921 H         1 RES1    0.0000
    133 C57        9.4265    6.9323   14.1433 C.3       1 RES1    0.0000
    134 H53        9.8621    6.0750   14.1744 H         1 RES1    0.0000
    135 H54       10.0209    7.5749   13.7467 H         1 RES1    0.0000
    136 H55        8.6291    6.8654   13.6151 H         1 RES1    0.0000
    137 C58        2.4359   15.4494   23.5531 C.3       1 RES1    0.0000
    138 H56        2.2655   16.2927   24.0008 H         1 RES1    0.0000
    139 H57        1.8549   14.7623   23.9076 H         1 RES1    0.0000
    140 O17        3.6412   15.1249   23.6128 O.3       1 RES1    0.0000
    141 H58        3.8497   14.9956   24.3955 H         1 RES1    0.0000
    142 H59        3.8315   18.8842   12.1199 H         1 RES1    0.0000
    143 O18        3.2237   20.0138   15.0436 O.3       1 RES1    0.0000
    144 H60        2.4672   20.1097   14.7450 H         1 RES1    0.0000
    145 O19       -0.2471   15.0489   22.1497 O.3       1 RES1    0.0000
    146 H61       -0.3935   14.5363   21.5257 H         1 RES1    0.0000
@<TRIPOS>BOND
     1    1   10 1
     2    2    4 2
     3    3    5 ar
     4    5    2 1
     5    6   49 2
     6    7    3 ar
     7    8    9 1
     8   10   11 1
     9   12   10 1
    10   13   10 1
    11   14   13 1
    12   15   13 1
    13   16   15 1
    14   17   15 1
    15   18   19 1
    16   20   18 1
    17   21   18 1
    18   22   21 1
    19   23    5 ar
    20   24   23 1
    21   25   59 1
    22   26   88 2
    23   27   23 ar
    24   28   27 1
    25   29   57 ar
    26   30  101 1
    27   31   27 ar
    28   32   31 1
    29   33   34 1
    30   35   97 ar
    31   36  114 2
    32   37    3 ar
    33   38   39 1
    34   40    1 1
    35   41   65 1
    36   42  123 ar
    37   43  128 1
    38   44   40 ar
    39   45   44 1
    40   46    2 2
    41   47  128 1
    42   48    7 ar
    43   49    8 1
    44   50    8 1
    45   51   52 1
    46   53   50 ar
    47   54   53 1
    48   55   51 ar
    49   56   55 1
    50   57   50 ar
    51   58   55 ar
    52   59   58 ar
    53   60   59 ar
    54   61   60 1
    55   62   29 ar
    56   63   64 1
    57   65   66 1
    58   67   65 1
    59   68   63 1
    60   69   68 1
    61   70   68 1
    62   71   65 1
    63   72   71 1
    64   73   71 1
    65   74   73 1
    66   75   73 1
    67   76   73 1
    68   77   76 1
    69   78   25 1
    70   79   78 1
    71   80   78 1
    72   81   18 1
    73   82   81 1
    74   83   84 1
    75   85   81 1
    76   86   85 1
    77   87   85 1
    78   88   33 1
    79   89   33 1
    80   90   89 ar
    81   91   90 1
    82   92   90 ar
    83   93   92 1
    84   94   92 ar
    85   95   94 1
    86   96   94 ar
    87   97   89 ar
    88   98   35 ar
    89   99   98 ar
    90  100   99 1
    91  101   96 ar
    92  102   30 1
    93  103  102 1
    94  104  102 1
    95  105  102 1
    96  106  105 1
    97  107  106 1
    98  108  106 1
    99  109  106 1
   100  110  109 1
   101  111  105 1
   102  112  111 1
   103  113  111 1
   104  114   38 1
   105  115   38 1
   106  116  115 ar
   107  117  116 1
   108  118  116 ar
   109  119  118 1
   110  120  118 ar
   111  121  120 1
   112  122  120 ar
   113  123  115 ar
   114  124   41 1
   115  125  124 ar
   116  126  125 1
   117  127   42 ar
   118  128  127 1
   119  129   47 1
   120  130  129 1
   121  131  129 1
   122  132  129 1
   123  133   43 1
   124  134  133 1
   125  135  133 1
   126  136  133 1
   127  137   13 1
   128  138  137 1
   129  139  137 1
   130  140  137 1
   131  141  140 1
   132  142  105 1
   133  143  111 1
   134  144  143 1
   135  145   15 1
   136  146  145 1
   137   31   37 ar
   138   37   40 ar
   139   44   48 ar
   140   48   49 1
   141   51   53 ar
   142   57   58 ar
   143   60   62 ar
   144   62   88 1
   145   68   71 1
   146   78   81 1
   147   83   85 1
   148   96   97 ar
   149   98  114 1
   150   99  101 ar
   151  122  123 ar
   152  122  124 ar
   153  125  127 ar
@<TRIPOS>SUBSTRUCTURE
     1 RES1 1

@<TRIPOS>CRYSIN
   7.4720   20.5710   24.6040  69.4000  84.5000  85.6600   2 1

