# MOL2 file generated by ConQuest
# Please check atom types

@<TRIPOS>MOLECULE
GATPEW
    32    33     1
SMALL
NO_CHARGES
****
Generated from CSD

@<TRIPOS>ATOM
      1 O1        -2.0380    3.1009   -4.2936 O.2       1 RES1    0.0000
      2 O2        -3.2407    4.7057   -5.0521 O.2       1 RES1    0.0000
      3 N1         0.1986    2.0800   -0.3368 N.3       1 RES1    0.0000
      4 N2        -1.0031    2.7044   -0.4354 N.2       1 RES1    0.0000
      5 N3        -2.8358    4.0067   -4.1462 N.pl3     1 RES1    0.0000
      6 C1         0.5646    1.6340    0.9581 C.ar      1 RES1    0.0000
      7 C2         1.6783    0.7858    1.1441 C.ar      1 RES1    0.0000
      8 C3         2.0278    0.4046    2.4373 C.ar      1 RES1    0.0000
      9 C4         1.3622    0.8304    3.5137 C.ar      1 RES1    0.0000
     10 C5         0.2748    1.6242    3.2978 C.ar      1 RES1    0.0000
     11 C6        -0.1352    2.0475    2.0731 C.ar      1 RES1    0.0000
     12 C7         1.0130    1.8229   -1.5221 C.3       1 RES1    0.0000
     13 C8        -1.4255    3.1009   -1.5906 C.2       1 RES1    0.0000
     14 C9        -2.7340    3.8177   -1.6232 C.ar      1 RES1    0.0000
     15 C10       -3.3646    4.1542   -0.4114 C.ar      1 RES1    0.0000
     16 C11       -4.5710    4.8354   -0.3917 C.ar      1 RES1    0.0000
     17 C12       -5.2182    5.2117   -1.5452 C.ar      1 RES1    0.0000
     18 C13       -4.5908    4.9416   -2.7904 C.ar      1 RES1    0.0000
     19 C14       -3.3770    4.2378   -2.8084 C.ar      1 RES1    0.0000
     20 H1         2.1323    0.5595    0.3000 H         1 RES1    0.0000
     21 H2         2.6279   -0.1784    2.7167 H         1 RES1    0.0000
     22 H3         1.6548    0.5190    4.1222 H         1 RES1    0.0000
     23 H4        -0.1680    1.8651    3.9080 H         1 RES1    0.0000
     24 H5        -0.8651    2.6435    1.9711 H         1 RES1    0.0000
     25 H6         1.0042    2.6111   -2.0997 H         1 RES1    0.0000
     26 H7         0.5827    1.0866   -2.1768 H         1 RES1    0.0000
     27 H8         1.7989    1.5569   -1.2684 H         1 RES1    0.0000
     28 H9        -0.9859    2.9598   -2.5710 H         1 RES1    0.0000
     29 H10       -3.0434    3.9572    0.4971 H         1 RES1    0.0000
     30 H11       -5.0133    5.1492    0.5228 H         1 RES1    0.0000
     31 H12       -6.1288    5.8547   -1.5341 H         1 RES1    0.0000
     32 H13       -4.8210    5.3114   -3.9851 H         1 RES1    0.0000
@<TRIPOS>BOND
     1    1    5 2
     2    2    5 2
     3    3    4 1
     4    4   13 2
     5    5   19 1
     6    6    3 1
     7    7    6 ar
     8    8    7 ar
     9    9    8 ar
    10   10    9 ar
    11   11    6 ar
    12   12    3 1
    13   13   14 1
    14   14   15 ar
    15   15   16 ar
    16   16   17 ar
    17   17   18 ar
    18   18   19 ar
    19   19   14 ar
    20   20    7 1
    21   21    8 1
    22   22    9 1
    23   23   10 1
    24   24   11 1
    25   25   12 1
    26   26   12 1
    27   27   12 1
    28   28   13 1
    29   29   15 1
    30   30   16 1
    31   31   17 1
    32   32   18 1
    33   10   11 ar
@<TRIPOS>SUBSTRUCTURE
     1 RES1 1

@<TRIPOS>CRYSIN
  18.5670    8.1090    8.5920  90.0000  94.0900  90.0000  14 2

