# MOL2 file generated by ConQuest
# Please check atom types

@<TRIPOS>MOLECULE
GATXOR
    59    63     1
SMALL
NO_CHARGES
****
Generated from CSD

@<TRIPOS>ATOM
      1 O1         8.0509    1.3369   14.8920 O.3       1 RES1    0.0000
      2 O2         6.6895    0.7373   10.8336 O.3       1 RES1    0.0000
      3 O3         8.2179   -0.0270   16.6621 O.2       1 RES1    0.0000
      4 O4         8.5454   -0.2550   11.6912 O.3       1 RES1    0.0000
      5 O5         5.3812    0.0535   14.2054 O.3       1 RES1    0.0000
      6 O6         4.6988   -2.2283   12.3216 O.3       1 RES1    0.0000
      7 O7         4.3293    2.0331   13.9604 O.2       1 RES1    0.0000
      8 C1         4.7114    1.1317   14.6567 C.2       1 RES1    0.0000
      9 C2         6.6309    0.9475   12.2573 C.3       1 RES1    0.0000
     10 H1         6.3619    1.8685   12.4568 H         1 RES1    0.0000
     11 C3         4.0932    2.2271   16.7866 C.ar      1 RES1    0.0000
     12 H2         4.0115    3.0219   16.3106 H         1 RES1    0.0000
     13 C4         3.8292    2.2008   18.1372 C.ar      1 RES1    0.0000
     14 H3         3.5812    2.9751   18.5884 H         1 RES1    0.0000
     15 N1         6.4988    5.5082   19.4057 N.pl3     1 RES1    0.0000
     16 C5         7.5878    2.2506   16.9975 C.ar      1 RES1    0.0000
     17 O8         3.8641   -0.0500   20.8682 O.2       1 RES1    0.0000
     18 C6         3.9395    1.0044   18.8049 C.ar      1 RES1    0.0000
     19 C7         7.4530    2.0808   18.3687 C.ar      1 RES1    0.0000
     20 H4         7.6081    1.2469   18.7525 H         1 RES1    0.0000
     21 C8         5.5810   -0.0371   12.7607 C.3       1 RES1    0.0000
     22 H5         4.7302    0.1760   12.3224 H         1 RES1    0.0000
     23 C9         7.3580    3.4827   16.4147 C.ar      1 RES1    0.0000
     24 H6         7.4481    3.5844   15.4957 H         1 RES1    0.0000
     25 C10        4.4816    1.0663   16.1380 C.ar      1 RES1    0.0000
     26 C11        5.5810   -2.0679   10.1599 C.3       1 RES1    0.0000
     27 H7         5.1060   -1.2924    9.8213 H         1 RES1    0.0000
     28 H8         5.9303   -2.5800    9.4152 H         1 RES1    0.0000
     29 C12        7.0919    3.1443   19.1618 C.ar      1 RES1    0.0000
     30 H9         6.9934    3.0440   20.0810 H         1 RES1    0.0000
     31 C13        8.3743    0.2273   14.0303 C.3       1 RES1    0.0000
     32 H10        7.8232   -0.5428   14.2398 H         1 RES1    0.0000
     33 H11        9.3075   -0.0197   14.1242 H         1 RES1    0.0000
     34 C14        7.9818    1.0517   16.2033 C.2       1 RES1    0.0000
     35 O9         6.5226    6.6249   18.9168 O.2       1 RES1    0.0000
     36 C15        4.5975   -0.1292   16.8369 C.ar      1 RES1    0.0000
     37 H12        4.8588   -0.9059   16.3967 H         1 RES1    0.0000
     38 C16        4.6946   -2.9153   11.0433 C.3       1 RES1    0.0000
     39 H13        5.0956   -3.8035   11.1498 H         1 RES1    0.0000
     40 C17        6.8795    4.3665   18.5535 C.ar      1 RES1    0.0000
     41 C18        4.3216   -0.1576   18.1923 C.ar      1 RES1    0.0000
     42 H14        4.3943   -0.9490   18.6772 H         1 RES1    0.0000
     43 O10        3.1460    1.9809   20.7549 O.2       1 RES1    0.0000
     44 C19        6.9927    4.5657   17.1975 C.ar      1 RES1    0.0000
     45 H15        6.8299    5.4000   16.8189 H         1 RES1    0.0000
     46 O11        6.1482    5.2754   20.5454 O.2       1 RES1    0.0000
     47 N2         3.6224    0.9749   20.2507 N.pl3     1 RES1    0.0000
     48 C20        8.0921    0.7211   12.6392 C.3       1 RES1    0.0000
     49 H16        8.5874    1.5546   12.4945 H         1 RES1    0.0000
     50 C21        5.9198   -1.4948   12.4517 C.3       1 RES1    0.0000
     51 H17        6.4499   -1.8697   13.1856 H         1 RES1    0.0000
     52 C22        6.6860   -1.6650   11.1240 C.3       1 RES1    0.0000
     53 H18        7.3021   -2.4212   11.2198 H         1 RES1    0.0000
     54 C23        7.4893   -0.4434   10.7548 C.3       1 RES1    0.0000
     55 H19        7.8546   -0.5416    9.8509 H         1 RES1    0.0000
     56 C24        3.2739   -3.0637   10.5880 C.3       1 RES1    0.0000
     57 H20        2.7940   -3.6139   11.2117 H         1 RES1    0.0000
     58 H21        3.2578   -3.4724    9.7191 H         1 RES1    0.0000
     59 H22        2.8611   -2.1984   10.5421 H         1 RES1    0.0000
@<TRIPOS>BOND
     1    1   31 1
     2    2    9 1
     3    3   34 2
     4    4   48 1
     5    5    8 1
     6    6   38 1
     7    7    8 2
     8    8   25 1
     9    9   10 1
    10   11   12 1
    11   13   11 ar
    12   14   13 1
    13   15   35 2
    14   16   19 ar
    15   17   47 2
    16   18   13 ar
    17   19   20 1
    18   21    5 1
    19   22   21 1
    20   23   16 ar
    21   24   23 1
    22   25   11 ar
    23   26   27 1
    24   28   26 1
    25   29   19 ar
    26   30   29 1
    27   31   32 1
    28   33   31 1
    29   34    1 1
    30   36   25 ar
    31   37   36 1
    32   38   26 1
    33   39   38 1
    34   40   15 1
    35   41   18 ar
    36   42   41 1
    37   43   47 2
    38   44   23 ar
    39   45   44 1
    40   46   15 2
    41   47   18 1
    42   48    9 1
    43   49   48 1
    44   50    6 1
    45   51   50 1
    46   52   26 1
    47   53   52 1
    48   54    2 1
    49   55   54 1
    50   56   38 1
    51   57   56 1
    52   58   56 1
    53   59   56 1
    54    4   54 1
    55    9   21 1
    56   16   34 1
    57   21   50 1
    58   29   40 ar
    59   31   48 1
    60   36   41 ar
    61   40   44 ar
    62   50   52 1
    63   52   54 1
@<TRIPOS>SUBSTRUCTURE
     1 RES1 1

@<TRIPOS>CRYSIN
   6.9850   12.3090   26.8930  90.0000  90.0000  90.0000  19 1

