# MOL2 file generated by ConQuest
# Please check atom types

@<TRIPOS>MOLECULE
GATXUX
    59    63     1
SMALL
NO_CHARGES
****
Generated from CSD

@<TRIPOS>ATOM
      1 C1         0.2076    0.5566    6.2458 C.3       1 RES1    0.0000
      2 H1         0.5048   -0.3109    5.9027 H         1 RES1    0.0000
      3 C2        -1.3080    0.6223    6.2434 C.3       1 RES1    0.0000
      4 H2        -1.6740   -0.1656    6.6964 H         1 RES1    0.0000
      5 C3        -1.8294    1.8975    6.9170 C.3       1 RES1    0.0000
      6 H3        -2.7212    1.7350    7.2884 H         1 RES1    0.0000
      7 C4        -0.9087    2.4593    8.0037 C.3       1 RES1    0.0000
      8 H4        -1.0621    3.4182    8.1328 H         1 RES1    0.0000
      9 C5         0.5594    2.1746    7.7161 C.3       1 RES1    0.0000
     10 H5         1.1313    2.5124    8.4360 H         1 RES1    0.0000
     11 C6         1.0101    2.7176    6.3539 C.3       1 RES1    0.0000
     12 H6         0.4650    3.4891    6.0948 H         1 RES1    0.0000
     13 C7         2.4772    3.0723    6.3182 C.3       1 RES1    0.0000
     14 H7         2.6382    3.8497    6.8752 H         1 RES1    0.0000
     15 H8         2.9993    2.3344    6.6722 H         1 RES1    0.0000
     16 C8        -1.8974    0.7289    4.8321 C.3       1 RES1    0.0000
     17 H9        -2.6570    0.1341    4.7333 H         1 RES1    0.0000
     18 H10       -1.2317    0.4991    4.1655 H         1 RES1    0.0000
     19 C9        -2.3343    2.1953    4.6801 C.3       1 RES1    0.0000
     20 H11       -3.3111    2.2363    4.6173 H         1 RES1    0.0000
     21 C10       -1.7286    2.9303    3.5069 C.3       1 RES1    0.0000
     22 H12       -0.7726    2.9416    3.5953 H         1 RES1    0.0000
     23 H13       -2.0588    3.8316    3.4889 H         1 RES1    0.0000
     24 H14       -1.9695    2.4853    2.6916 H         1 RES1    0.0000
     25 C11       -1.2465    2.3400   10.3772 C.2       1 RES1    0.0000
     26 C12       -1.3818    1.3491   11.4925 C.ar      1 RES1    0.0000
     27 C13       -1.4913    1.7994   12.7988 C.ar      1 RES1    0.0000
     28 H15       -1.5578    2.7118   12.9688 H         1 RES1    0.0000
     29 C14       -1.5024    0.9039   13.8495 C.ar      1 RES1    0.0000
     30 H16       -1.5608    1.1942   14.7314 H         1 RES1    0.0000
     31 C15       -1.4232   -0.4383   13.5421 C.ar      1 RES1    0.0000
     32 C16       -1.3463   -0.9171   12.2617 C.ar      1 RES1    0.0000
     33 H17       -1.3055   -1.8319   12.0965 H         1 RES1    0.0000
     34 C17       -1.3302   -0.0124   11.2265 C.ar      1 RES1    0.0000
     35 H18       -1.2841   -0.3132   10.3472 H         1 RES1    0.0000
     36 C18        2.5102    4.5346    4.4524 C.2       1 RES1    0.0000
     37 C19        2.8758    4.6540    3.0091 C.ar      1 RES1    0.0000
     38 C20        3.5400    3.6626    2.3140 C.ar      1 RES1    0.0000
     39 H19        3.7787    2.8751    2.7472 H         1 RES1    0.0000
     40 C21        3.8537    3.8330    0.9737 C.ar      1 RES1    0.0000
     41 H20        4.3032    3.1692    0.5026 H         1 RES1    0.0000
     42 C22        3.4858    5.0012    0.3577 C.ar      1 RES1    0.0000
     43 C23        2.8146    6.0004    1.0259 C.ar      1 RES1    0.0000
     44 H21        2.5715    6.7834    0.5859 H         1 RES1    0.0000
     45 C24        2.5101    5.8224    2.3555 C.ar      1 RES1    0.0000
     46 H22        2.0561    6.4882    2.8197 H         1 RES1    0.0000
     47 N1        -1.3780   -1.4111   14.6544 N.pl3     1 RES1    0.0000
     48 N2         3.8191    5.1963   -1.0659 N.pl3     1 RES1    0.0000
     49 O1         0.7205    0.7609    7.5518 O.3       1 RES1    0.0000
     50 O2         0.7744    1.6128    5.4609 O.3       1 RES1    0.0000
     51 O3        -1.9081    2.8730    5.8774 O.3       1 RES1    0.0000
     52 O4        -1.2445    1.7128    9.2000 O.3       1 RES1    0.0000
     53 O5        -1.1303    3.5281   10.5311 O.2       1 RES1    0.0000
     54 O6        -1.1755   -2.5856   14.3767 O.2       1 RES1    0.0000
     55 O7        -1.5401   -1.0055   15.7881 O.2       1 RES1    0.0000
     56 O8         2.8905    3.3517    4.9650 O.3       1 RES1    0.0000
     57 O9         1.9274    5.3819    5.0772 O.2       1 RES1    0.0000
     58 O10        3.5659    6.2757   -1.5809 O.2       1 RES1    0.0000
     59 O11        4.3622    4.2701   -1.6634 O.2       1 RES1    0.0000
@<TRIPOS>BOND
     1    1    2 1
     2    3    1 1
     3    4    3 1
     4    5    3 1
     5    6    5 1
     6    7    5 1
     7    8    7 1
     8    9    7 1
     9   10    9 1
    10   11    9 1
    11   12   11 1
    12   13   11 1
    13   14   13 1
    14   15   13 1
    15   16    3 1
    16   17   16 1
    17   18   16 1
    18   19   16 1
    19   20   19 1
    20   21   19 1
    21   22   21 1
    22   23   21 1
    23   24   21 1
    24   25   26 1
    25   26   27 ar
    26   27   28 1
    27   29   27 ar
    28   30   29 1
    29   31   29 ar
    30   32   31 ar
    31   33   32 1
    32   34   26 ar
    33   35   34 1
    34   36   37 1
    35   37   38 ar
    36   38   39 1
    37   40   38 ar
    38   41   40 1
    39   42   40 ar
    40   43   42 ar
    41   44   43 1
    42   45   37 ar
    43   46   45 1
    44   47   31 1
    45   48   42 1
    46   49    1 1
    47   50    1 1
    48   51    5 1
    49   52    7 1
    50   53   25 2
    51   54   47 2
    52   55   47 2
    53   56   13 1
    54   57   36 2
    55   58   48 2
    56   59   48 2
    57    9   49 1
    58   11   50 1
    59   19   51 1
    60   25   52 1
    61   32   34 ar
    62   36   56 1
    63   43   45 ar
@<TRIPOS>SUBSTRUCTURE
     1 RES1 1

@<TRIPOS>CRYSIN
   8.4796   11.2662   12.3602  90.0000 102.2050  90.0000   4 1

