# MOL2 file generated by ConQuest
# Please check atom types

@<TRIPOS>MOLECULE
GAVKIX
    13    13     1
SMALL
NO_CHARGES
****
Generated from CSD

@<TRIPOS>ATOM
      1 O1         3.0501    6.2052    3.9867 O.3       1 RES1    0.0000
      2 O2         1.2432    5.4320    5.1118 O.2       1 RES1    0.0000
      3 N1         1.8546    6.4425    4.7074 N.pl3     1 RES1    0.0000
      4 N2         3.5749    7.4615    3.6350 N.2       1 RES1    0.0000
      5 N3         2.8979    9.6726    3.9745 N.3       1 RES1    0.0000
      6 C1         1.6412    7.7327    4.7846 C.2       1 RES1    0.0000
      7 C2         2.7372    8.3446    4.1105 C.2       1 RES1    0.0000
      8 C3         0.4616    8.3115    5.4611 C.3       1 RES1    0.0000
      9 H1         3.6825    9.9587    3.5615 H         1 RES1    0.0000
     10 H2         2.3034   10.2955    4.3519 H         1 RES1    0.0000
     11 H3        -0.2672    8.3290    4.8691 H         1 RES1    0.0000
     12 H4         0.6988    9.1731    5.7099 H         1 RES1    0.0000
     13 H5         0.2081    7.8251    6.2320 H         1 RES1    0.0000
@<TRIPOS>BOND
     1    1    3 1
     2    2    3 1
     3    3    6 2
     4    4    1 1
     5    5    7 1
     6    6    7 1
     7    7    4 2
     8    8    6 1
     9    9    5 1
    10   10    5 1
    11   11    8 1
    12   12    8 1
    13   13    8 1
@<TRIPOS>SUBSTRUCTURE
     1 RES1 1

@<TRIPOS>CRYSIN
   6.3600    6.5030   12.3020  90.0000  94.9800  90.0000 231 1

