# MOL2 file generated by ConQuest
# Please check atom types

@<TRIPOS>MOLECULE
GAVKOD
    13    13     1
SMALL
NO_CHARGES
****
Generated from CSD

@<TRIPOS>ATOM
      1 O1         4.8765    3.0173    1.7755 O.3       1 RES1    0.0000
      2 O2         3.7309    1.2113    2.6374 O.2       1 RES1    0.0000
      3 N1         6.0035    3.7410    2.1228 N.2       1 RES1    0.0000
      4 N2         4.7363    1.9848    2.7368 N.pl3     1 RES1    0.0000
      5 N3         5.9024    1.2124    4.5919 N.3       1 RES1    0.0000
      6 C1         6.5104    3.1873    3.1784 C.2       1 RES1    0.0000
      7 C2         5.7347    2.0621    3.5798 C.2       1 RES1    0.0000
      8 C3         7.7400    3.6766    3.8261 C.3       1 RES1    0.0000
      9 H1         5.3915    0.5579    4.7832 H         1 RES1    0.0000
     10 H2         6.6021    1.4603    5.1903 H         1 RES1    0.0000
     11 H3         7.5230    3.6373    4.8349 H         1 RES1    0.0000
     12 H4         8.0627    4.6224    3.6356 H         1 RES1    0.0000
     13 H5         8.4629    3.0331    3.5511 H         1 RES1    0.0000
@<TRIPOS>BOND
     1    1    3 1
     2    2    4 1
     3    3    6 2
     4    4    1 1
     5    5    7 1
     6    6    7 1
     7    7    4 2
     8    8    6 1
     9    9    5 1
    10   10    5 1
    11   11    8 1
    12   12    8 1
    13   13    8 1
@<TRIPOS>SUBSTRUCTURE
     1 RES1 1

@<TRIPOS>CRYSIN
  10.8050    5.8600    8.5670  90.0000 106.6300  90.0000 231 1

