# MOL2 file generated by ConQuest
# Please check atom types

@<TRIPOS>MOLECULE
GAWBOW
    37    38     1
SMALL
NO_CHARGES
****
Generated from CSD

@<TRIPOS>ATOM
      1 O1         1.2113    1.2587   17.0440 O.3       1 RES1    0.0000
      2 O2         2.9430   -0.4057   18.2418 O.3       1 RES1    0.0000
      3 H1         2.1331   -0.3002   18.4066 H         1 RES1    0.0000
      4 O3        11.9904    5.9840   10.8517 O.2       1 RES1    0.0000
      5 O4        12.6467    4.5117   12.2698 O.2       1 RES1    0.0000
      6 N1         6.1161    3.3870   14.1935 N.2       1 RES1    0.0000
      7 N2         6.4642    4.3697   13.3052 N.pl3     1 RES1    0.0000
      8 H2         5.9039    4.8856   12.9981 H         1 RES1    0.0000
      9 N3        11.7516    5.1659   11.7342 N.pl3     1 RES1    0.0000
     10 C1         4.8757    3.2835   14.4775 C.2       1 RES1    0.0000
     11 H3         4.2704    3.8630   14.0739 H         1 RES1    0.0000
     12 C2         4.3791    2.2854   15.4166 C.ar      1 RES1    0.0000
     13 C3         5.2238    1.3756   16.0416 C.ar      1 RES1    0.0000
     14 H4         6.1307    1.3747   15.8364 H         1 RES1    0.0000
     15 C4         4.7327    0.4749   16.9634 C.ar      1 RES1    0.0000
     16 H5         5.3095   -0.1328   17.3664 H         1 RES1    0.0000
     17 C5         3.3940    0.4695   17.2903 C.ar      1 RES1    0.0000
     18 C6         2.5190    1.3511   16.6430 C.ar      1 RES1    0.0000
     19 C7         3.0153    2.2445   15.7167 C.ar      1 RES1    0.0000
     20 H6         2.4337    2.8286   15.2861 H         1 RES1    0.0000
     21 C8         0.2336    2.0134   16.3208 C.3       1 RES1    0.0000
     22 H7         0.2341    1.7541   15.3869 H         1 RES1    0.0000
     23 H8         0.4330    2.9614   16.3774 H         1 RES1    0.0000
     24 C9        -1.1048    1.7277   16.9369 C.3       1 RES1    0.0000
     25 H9        -1.3015    0.7915   16.8549 H         1 RES1    0.0000
     26 H10       -1.7813    2.2372   16.4844 H         1 RES1    0.0000
     27 H11       -1.0882    1.9715   17.8656 H         1 RES1    0.0000
     28 C10        7.7699    4.5451   12.9309 C.ar      1 RES1    0.0000
     29 C11        8.7747    3.6619   13.3352 C.ar      1 RES1    0.0000
     30 H12        8.5607    2.9314   13.8693 H         1 RES1    0.0000
     31 C12       10.0734    3.8685   12.9502 C.ar      1 RES1    0.0000
     32 H13       10.7414    3.2826   13.2244 H         1 RES1    0.0000
     33 C13       10.3819    4.9557   12.1511 C.ar      1 RES1    0.0000
     34 C14        9.3989    5.8291   11.7310 C.ar      1 RES1    0.0000
     35 H14        9.6190    6.5497   11.1859 H         1 RES1    0.0000
     36 C15        8.1028    5.6335   12.1170 C.ar      1 RES1    0.0000
     37 H15        7.4414    6.2249   11.8385 H         1 RES1    0.0000
@<TRIPOS>BOND
     1    1   18 1
     2    2    3 1
     3    4    9 2
     4    5    9 2
     5    6    7 1
     6    7    8 1
     7    9   33 1
     8   10    6 2
     9   11   10 1
    10   12   10 1
    11   13   12 ar
    12   14   13 1
    13   15   13 ar
    14   16   15 1
    15   17    2 1
    16   18   17 ar
    17   19   12 ar
    18   20   19 1
    19   21    1 1
    20   22   21 1
    21   23   21 1
    22   24   21 1
    23   25   24 1
    24   26   24 1
    25   27   24 1
    26   28    7 1
    27   29   28 ar
    28   30   29 1
    29   31   29 ar
    30   32   31 1
    31   33   31 ar
    32   34   33 ar
    33   35   34 1
    34   36   28 ar
    35   37   36 1
    36   15   17 ar
    37   18   19 ar
    38   34   36 ar
@<TRIPOS>SUBSTRUCTURE
     1 RES1 1

@<TRIPOS>CRYSIN
  10.1480    9.0980   15.9670  90.0000 103.8680  90.0000  14 1

