# MOL2 file generated by ConQuest
# Please check atom types

@<TRIPOS>MOLECULE
GAWBAJ
   146   146     3
SMALL
NO_CHARGES
****
Generated from CSD

@<TRIPOS>ATOM
      1 C1         5.0704    7.0725    6.9415 C.3       1 RES1    0.0000
      2 C2         3.8503    7.2990    7.8238 C.3       1 RES1    0.0000
      3 C3         3.1971    5.9831    8.0836 C.3       1 RES1    0.0000
      4 H1         2.9709    5.6997    9.0153 H         1 RES1    0.0000
      5 C4         3.8595    5.0135    7.1192 C.3       1 RES1    0.0000
      6 H2         4.2337    4.2307    7.6160 H         1 RES1    0.0000
      7 C5         2.9024    4.5464    6.0426 C.3       1 RES1    0.0000
      8 H3         2.0971    4.1452    6.4581 H         1 RES1    0.0000
      9 H4         3.3375    3.8568    5.4812 H         1 RES1    0.0000
     10 C6         2.5010    5.7422    5.1794 C.3       1 RES1    0.0000
     11 H5         3.3036    6.0870    4.7115 H         1 RES1    0.0000
     12 H6         1.8551    5.4406    4.4929 H         1 RES1    0.0000
     13 C7         1.8776    6.8677    5.9879 C.3       1 RES1    0.0000
     14 H7         2.0110    7.7136    5.4926 H         1 RES1    0.0000
     15 H8         0.9029    6.7066    6.0406 H         1 RES1    0.0000
     16 C8         2.4024    7.0549    7.3937 C.3       1 RES1    0.0000
     17 H9         1.7398    7.4945    7.9992 H         1 RES1    0.0000
     18 C9         5.3639    8.0159    5.7913 C.ar      1 RES1    0.0000
     19 C10        4.5695    9.1235    5.5277 C.ar      1 RES1    0.0000
     20 H10        3.8038    9.2947    6.0634 H         1 RES1    0.0000
     21 C11        4.8900    9.9812    4.4863 C.ar      1 RES1    0.0000
     22 H11        4.3381   10.7343    4.3054 H         1 RES1    0.0000
     23 C12        6.0119    9.7448    3.7088 C.ar      1 RES1    0.0000
     24 H12        6.2346   10.3364    3.0007 H         1 RES1    0.0000
     25 C13        6.8084    8.6372    3.9685 C.ar      1 RES1    0.0000
     26 H13        7.5782    8.4748    3.4362 H         1 RES1    0.0000
     27 C14        6.4892    7.7683    4.9972 C.ar      1 RES1    0.0000
     28 H14        7.0331    7.0058    5.1632 H         1 RES1    0.0000
     29 N1         3.9999    8.2488    8.9410 N.pl3     1 RES1    0.0000
     30 O1         4.9274    5.7595    6.4661 O.3       1 RES1    0.0000
     31 O2         4.6280    9.2798    8.7349 O.2       1 RES1    0.0000
     32 O3         3.4590    7.9665   10.0112 O.2       1 RES1    0.0000
     33 O4         6.2554    7.1933    7.7227 O.3       1 RES1    0.0000
     34 O5         6.0604    6.3196    8.9089 O.3       1 RES1    0.0000
     35 C15        7.3506    6.1265    9.4781 C.3       1 RES1    0.0000
     36 C16        8.3198    5.6586    8.4107 C.3       1 RES1    0.0000
     37 C17        9.1226    6.8319    7.9557 C.3       1 RES1    0.0000
     38 H15        9.2521    7.0218    6.9832 H         1 RES1    0.0000
     39 C18        8.8014    7.9430    8.9313 C.3       1 RES1    0.0000
     40 H16        8.3353    8.6938    8.4640 H         1 RES1    0.0000
     41 C19       10.0270    8.4587    9.6798 C.3       1 RES1    0.0000
     42 H17        9.7375    8.8433   10.5450 H         1 RES1    0.0000
     43 H18       10.4446    9.1852    9.1506 H         1 RES1    0.0000
     44 C20       11.0726    7.3722    9.9455 C.3       1 RES1    0.0000
     45 H19       11.7722    7.4224    9.2468 H         1 RES1    0.0000
     46 H20       11.5056    7.5506   10.8173 H         1 RES1    0.0000
     47 C21       10.4949    5.9606    9.9621 C.3       1 RES1    0.0000
     48 H21       11.2168    5.3017   10.1193 H         1 RES1    0.0000
     49 H22        9.8315    5.8760   10.6934 H         1 RES1    0.0000
     50 C22        9.8262    5.6874    8.6225 C.3       1 RES1    0.0000
     51 H23       10.3485    5.0987    8.0058 H         1 RES1    0.0000
     52 C23        7.0506    5.2400   10.6720 C.ar      1 RES1    0.0000
     53 C24        7.7969    4.0980   10.9466 C.ar      1 RES1    0.0000
     54 H24        8.5025    3.8434   10.3656 H         1 RES1    0.0000
     55 C25        7.5136    3.3311   12.0647 C.ar      1 RES1    0.0000
     56 H25        8.0368    2.5614   12.2541 H         1 RES1    0.0000
     57 C26        6.4712    3.6808   12.9082 C.ar      1 RES1    0.0000
     58 H26        6.2799    3.1543   13.6762 H         1 RES1    0.0000
     59 C27        5.7050    4.8063   12.6243 C.ar      1 RES1    0.0000
     60 H27        4.9765    5.0373   13.1886 H         1 RES1    0.0000
     61 C28        5.9996    5.5915   11.5249 C.ar      1 RES1    0.0000
     62 H28        5.4874    6.3701   11.3490 H         1 RES1    0.0000
     63 N2         7.8219    4.6802    7.4312 N.pl3     1 RES1    0.0000
     64 O6         7.9178    7.3364    9.9251 O.3       1 RES1    0.0000
     65 O7         7.1031    3.7777    7.8412 O.2       1 RES1    0.0000
     66 O8         8.1847    4.8039    6.2658 O.2       1 RES1    0.0000
     67 C29       -0.5545   13.7477    7.0764 C.3       2 RES2    0.0000
     68 C30       -1.7382   14.0254    8.0007 C.3       2 RES2    0.0000
     69 C31       -2.4843   12.7479    8.2054 C.3       2 RES2    0.0000
     70 H29       -2.7430   12.4491    9.1245 H         2 RES2    0.0000
     71 C32       -1.8983   11.7712    7.2111 C.3       2 RES2    0.0000
     72 H30       -1.5190   10.9774    7.6845 H         2 RES2    0.0000
     73 C33       -2.9165   11.3308    6.1672 C.3       2 RES2    0.0000
     74 H31       -2.4251   11.0709    5.3475 H         2 RES2    0.0000
     75 H32       -3.3722   10.5207    6.5054 H         2 RES2    0.0000
     76 C34       -3.6486   13.7789    6.1205 C.3       2 RES2    0.0000
     77 H33       -2.9396   14.1104    5.5138 H         2 RES2    0.0000
     78 H34       -4.4553   14.3374    5.9852 H         2 RES2    0.0000
     79 C35       -3.1853   13.8978    7.5516 C.3       2 RES2    0.0000
     80 H35       -3.8360   14.3668    8.1493 H         2 RES2    0.0000
     81 C36       -3.9690   12.3334    5.7829 C.3       2 RES2    0.0000
     82 H36       -4.8165   12.0885    6.2347 H         2 RES2    0.0000
     83 H37       -4.1236   12.2674    4.8077 H         2 RES2    0.0000
     84 C37       -0.2081   14.7265    5.9742 C.ar      2 RES2    0.0000
     85 C38       -0.9410   15.8881    5.7648 C.ar      2 RES2    0.0000
     86 H38       -1.6827   16.0895    6.3244 H         2 RES2    0.0000
     87 C39       -0.5922   16.7556    4.7394 C.ar      2 RES2    0.0000
     88 H39       -1.1030   17.5425    4.5924 H         2 RES2    0.0000
     89 C40        0.4949   16.4797    3.9295 C.ar      2 RES2    0.0000
     90 H40        0.7354   17.0804    3.2339 H         2 RES2    0.0000
     91 C41        1.2321   15.3238    4.1356 C.ar      2 RES2    0.0000
     92 H41        1.9805   15.1360    3.5813 H         2 RES2    0.0000
     93 C42        0.8828   14.4400    5.1479 C.ar      2 RES2    0.0000
     94 H42        1.3830   13.6430    5.2790 H         2 RES2    0.0000
     95 N3        -1.5069   14.9082    9.1488 N.pl3     2 RES2    0.0000
     96 O9        -0.8459   12.4961    6.5114 O.3       2 RES2    0.0000
     97 O10       -0.8089   15.9033    8.9680 O.2       2 RES2    0.0000
     98 O11       -2.0594   14.6371   10.2102 O.2       2 RES2    0.0000
     99 O12        0.6530   13.7271    7.8213 O.3       2 RES2    0.0000
    100 O13        0.4292   12.8478    9.0033 O.3       2 RES2    0.0000
    101 C43        1.6947   12.7773    9.6633 C.3       2 RES2    0.0000
    102 C44        2.7733   12.4090    8.6597 C.3       2 RES2    0.0000
    103 C45        3.4981   13.6587    8.2820 C.3       2 RES2    0.0000
    104 H43        3.6818   13.8753    7.3241 H         2 RES2    0.0000
    105 C46        3.0171   14.7225    9.2410 C.3       2 RES2    0.0000
    106 H44        2.5294   15.4405    8.7462 H         2 RES2    0.0000
    107 C47        4.1321   15.3256   10.0882 C.3       2 RES2    0.0000
    108 H45        3.7451   15.6702   10.9315 H         2 RES2    0.0000
    109 H46        4.5261   16.0922    9.6024 H         2 RES2    0.0000
    110 C48        5.2480   14.3219   10.4256 C.3       2 RES2    0.0000
    111 H47        5.9924   14.4416    9.7834 H         2 RES2    0.0000
    112 H48        5.5951   14.5190   11.3310 H         2 RES2    0.0000
    113 C49        4.7778   12.8708   10.3783 C.3       2 RES2    0.0000
    114 H49        5.5314   12.2648   10.5923 H         2 RES2    0.0000
    115 H50        4.0616   12.7268   11.0473 H         2 RES2    0.0000
    116 C50        4.2505   12.5719    8.9800 C.3       2 RES2    0.0000
    117 H51        4.8698   12.0458    8.3972 H         2 RES2    0.0000
    118 C51        1.4073   11.8564   10.8354 C.ar      2 RES2    0.0000
    119 C52        2.1786   10.7277   11.0893 C.ar      2 RES2    0.0000
    120 H52        2.8942   10.5020   10.5058 H         2 RES2    0.0000
    121 C53        1.9085    9.9344   12.1869 C.ar      2 RES2    0.0000
    122 H53        2.4457    9.1719   12.3617 H         2 RES2    0.0000
    123 C54        0.8572   10.2464   13.0357 C.ar      2 RES2    0.0000
    124 H54        0.6759    9.6980   13.7903 H         2 RES2    0.0000
    125 C55        0.0719   11.3609   12.7777 C.ar      2 RES2    0.0000
    126 H55       -0.6580   11.5650   13.3500 H         2 RES2    0.0000
    127 C56        0.3448   12.1796   11.6875 C.ar      2 RES2    0.0000
    128 H56       -0.1833   12.9512   11.5218 H         2 RES2    0.0000
    129 N4         2.4271   11.4331    7.6178 N.pl3     2 RES2    0.0000
    130 O14        2.1080   14.0297   10.1554 O.3       2 RES2    0.0000
    131 O15        1.7216   10.4809    7.9338 O.2       2 RES2    0.0000
    132 O16        2.8940   11.6109    6.4945 O.2       2 RES2    0.0000
    133 C57        1.7154    5.4112    5.7079 Du        3 SUP3    0.0000
    134 C58       -3.2400   12.6558    5.3181 Du        3 SUP3    0.0000
    135 H57       -3.7365   10.9827    6.6016 Du        3 SUP3    0.0000
    136 H58       -2.5404   10.6248    5.5856 Du        3 SUP3    0.0000
    137 H59        3.4248    4.4203    5.2105 Du        3 SUP3    0.0000
    138 H60        2.5602    3.6565    6.3097 Du        3 SUP3    0.0000
    139 H61       -2.4311   12.9085    4.8028 Du        3 SUP3    0.0000
    140 H62       -3.9563   12.4517    4.6674 Du        3 SUP3    0.0000
    141 H63        1.5068    5.2991    4.7474 Du        3 SUP3    0.0000
    142 H64        0.9355    5.0801    6.2200 Du        3 SUP3    0.0000
    143 H65        1.0052    7.3263    5.8922 Du        3 SUP3    0.0000
    144 H66        2.5096    7.2648    5.3377 Du        3 SUP3    0.0000
    145 H67       -4.6391   13.7872    6.1303 Du        3 SUP3    0.0000
    146 H68       -3.3579   14.5991    5.6476 Du        3 SUP3    0.0000
@<TRIPOS>BOND
     1    1    2 1
     2    2    3 1
     3    3    4 1
     4    5    3 1
     5    6    5 1
     6    7    5 1
     7    8    7 1
     8    9    7 1
     9   10    7 1
    10   11   10 1
    11   12   10 1
    12   13   10 1
    13   14   13 1
    14   15   13 1
    15   16    2 1
    16   17   16 1
    17   18    1 1
    18   19   18 ar
    19   20   19 1
    20   21   19 ar
    21   22   21 1
    22   23   21 ar
    23   24   23 1
    24   25   23 ar
    25   26   25 1
    26   27   18 ar
    27   28   27 1
    28   29    2 1
    29   30    1 1
    30   31   29 2
    31   32   29 2
    32   33    1 1
    33   34   33 1
    34   35   34 1
    35   36   35 1
    36   37   36 1
    37   38   37 1
    38   39   37 1
    39   40   39 1
    40   41   39 1
    41   42   41 1
    42   43   41 1
    43   44   41 1
    44   45   44 1
    45   46   44 1
    46   47   44 1
    47   48   47 1
    48   49   47 1
    49   50   36 1
    50   51   50 1
    51   52   35 1
    52   53   52 ar
    53   54   53 1
    54   55   53 ar
    55   56   55 1
    56   57   55 ar
    57   58   57 1
    58   59   57 ar
    59   60   59 1
    60   61   52 ar
    61   62   61 1
    62   63   36 1
    63   64   35 1
    64   65   63 2
    65   66   63 2
    66   67   68 1
    67   68   69 1
    68   69   70 1
    69   71   69 1
    70   72   71 1
    71   73   71 1
    72   74   73 1
    73   75   73 1
    74   76   77 1
    75   78   76 1
    76   79   68 1
    77   80   79 1
    78   81   73 1
    79   82   81 1
    80   83   81 1
    81   84   67 1
    82   85   84 ar
    83   86   85 1
    84   87   85 ar
    85   88   87 1
    86   89   87 ar
    87   90   89 1
    88   91   89 ar
    89   92   91 1
    90   93   84 ar
    91   94   93 1
    92   95   68 1
    93   96   67 1
    94   97   95 2
    95   98   95 2
    96   99   67 1
    97  100   99 1
    98  101  100 1
    99  102  101 1
   100  103  102 1
   101  104  103 1
   102  105  103 1
   103  106  105 1
   104  107  105 1
   105  108  107 1
   106  109  107 1
   107  110  107 1
   108  111  110 1
   109  112  110 1
   110  113  110 1
   111  114  113 1
   112  115  113 1
   113  116  102 1
   114  117  116 1
   115  118  101 1
   116  119  118 ar
   117  120  119 1
   118  121  119 ar
   119  122  121 1
   120  123  121 ar
   121  124  123 1
   122  125  123 ar
   123  126  125 1
   124  127  118 ar
   125  128  127 1
   126  129  102 1
   127  130  101 1
   128  131  129 2
   129  132  129 2
   130    3   16 1
   131    5   30 1
   132   13   16 1
   133   25   27 ar
   134   37   50 1
   135   39   64 1
   136   47   50 1
   137   59   61 ar
   138   69   79 1
   139   71   96 1
   140   76   79 1
   141   76   81 1
   142   91   93 ar
   143  103  116 1
   144  105  130 1
   145  113  116 1
   146  125  127 ar
@<TRIPOS>SUBSTRUCTURE
     1 RES1 1
     2 RES2 67
     3 SUP3 133

@<TRIPOS>CRYSIN
  22.5580   26.7090   19.0000  90.0000 120.8700  90.0000  15 1

