# MOL2 file generated by ConQuest
# Please check atom types

@<TRIPOS>MOLECULE
GAWGUH
    34    35     1
SMALL
NO_CHARGES
****
Generated from CSD

@<TRIPOS>ATOM
      1 O1        -8.0146   -0.0840    9.3549 O.2       1 RES1    0.0000
      2 O2        -9.7195   -1.3334    9.3089 O.2       1 RES1    0.0000
      3 N1        -8.7744   -0.8470    9.8941 N.pl3     1 RES1    0.0000
      4 N2        -3.5890    2.0874   11.9983 N.2       1 RES1    0.0000
      5 C1        -8.5471   -1.2318   11.2970 C.ar      1 RES1    0.0000
      6 C2        -9.2453   -2.3374   11.7377 C.ar      1 RES1    0.0000
      7 H1        -9.8346   -2.7766   11.1682 H         1 RES1    0.0000
      8 C3        -9.0652   -2.7854   13.0207 C.ar      1 RES1    0.0000
      9 H2        -9.5240   -3.5346   13.3261 H         1 RES1    0.0000
     10 C4        -8.1976   -2.1138   13.8527 C.ar      1 RES1    0.0000
     11 H3        -8.0776   -2.4068   14.7272 H         1 RES1    0.0000
     12 C5        -7.5069   -1.0145   13.4031 C.ar      1 RES1    0.0000
     13 H4        -6.9295   -0.5774   13.9865 H         1 RES1    0.0000
     14 C6        -7.6420   -0.5304   12.0980 C.ar      1 RES1    0.0000
     15 C7        -6.8479    0.6339   11.6827 C.2       1 RES1    0.0000
     16 H5        -7.2433    1.2617   11.1218 H         1 RES1    0.0000
     17 C8        -5.5927    0.8351   12.0689 C.2       1 RES1    0.0000
     18 H6        -5.2050    0.2174   12.6469 H         1 RES1    0.0000
     19 C9        -4.7985    1.9613   11.6392 C.2       1 RES1    0.0000
     20 H7        -5.1811    2.6058   11.0892 H         1 RES1    0.0000
     21 C10       -2.8149    3.1526   11.4775 C.ar      1 RES1    0.0000
     22 C11       -2.0461    3.9095   12.3677 C.ar      1 RES1    0.0000
     23 C12       -1.2446    4.9113   11.8377 C.ar      1 RES1    0.0000
     24 H8        -0.7426    5.4416   12.4138 H         1 RES1    0.0000
     25 C13       -1.1710    5.1422   10.4840 C.ar      1 RES1    0.0000
     26 H9        -0.6244    5.8181   10.1544 H         1 RES1    0.0000
     27 C14       -1.9086    4.3695    9.6198 C.ar      1 RES1    0.0000
     28 H10       -1.8521    4.5128    8.7032 H         1 RES1    0.0000
     29 C15       -2.7305    3.3846   10.1120 C.ar      1 RES1    0.0000
     30 H11       -3.2351    2.8688    9.5253 H         1 RES1    0.0000
     31 C16       -2.0951    3.6316   13.8340 C.3       1 RES1    0.0000
     32 H12       -1.5200    4.2469   14.2961 H         1 RES1    0.0000
     33 H13       -1.8009    2.7329   13.9991 H         1 RES1    0.0000
     34 H14       -2.9948    3.7374   14.1494 H         1 RES1    0.0000
@<TRIPOS>BOND
     1    1    3 2
     2    2    3 2
     3    3    5 1
     4    4   19 2
     5    5    6 ar
     6    6    7 1
     7    8    6 ar
     8    9    8 1
     9   10    8 ar
    10   11   10 1
    11   12   10 ar
    12   13   12 1
    13   14    5 ar
    14   15   14 1
    15   16   15 1
    16   17   15 2
    17   18   17 1
    18   19   17 1
    19   20   19 1
    20   21    4 1
    21   22   21 ar
    22   23   22 ar
    23   24   23 1
    24   25   23 ar
    25   26   25 1
    26   27   25 ar
    27   28   27 1
    28   29   21 ar
    29   30   29 1
    30   31   22 1
    31   32   31 1
    32   33   31 1
    33   34   31 1
    34   12   14 ar
    35   27   29 ar
@<TRIPOS>SUBSTRUCTURE
     1 RES1 1

@<TRIPOS>CRYSIN
  11.3900    9.7050   13.0720  90.0000 106.5320  90.0000  14 1

