# MOL2 file generated by ConQuest
# Please check atom types

@<TRIPOS>MOLECULE
GAWWEJ
    40    42     1
SMALL
NO_CHARGES
****
Generated from CSD

@<TRIPOS>ATOM
      1 N1         5.0570    0.4223    5.8391 N.2       1 RES1    0.0000
      2 O1        10.1291   -2.8244    1.8750 O.2       1 RES1    0.0000
      3 N2         5.9390    0.8363    4.8422 N.pl3     1 RES1    0.0000
      4 N3         9.2503   -3.1648    2.6797 N.pl3     1 RES1    0.0000
      5 O2         9.1059   -4.3255    3.0696 O.2       1 RES1    0.0000
      6 C1         2.0214   -0.2096    9.6484 C.ar      1 RES1    0.0000
      7 H1         1.5641   -0.5468   10.3839 H         1 RES1    0.0000
      8 C2         1.3343    0.4477    8.6482 C.ar      1 RES1    0.0000
      9 H2         0.4127    0.5481    8.7145 H         1 RES1    0.0000
     10 C3         2.0048    0.9658    7.5359 C.ar      1 RES1    0.0000
     11 H3         1.5330    1.4113    6.8698 H         1 RES1    0.0000
     12 C4         3.3985    0.8069    7.4320 C.ar      1 RES1    0.0000
     13 C5         4.1636    1.2734    6.2300 C.2       1 RES1    0.0000
     14 C6         6.7551   -0.1631    4.3066 C.ar      1 RES1    0.0000
     15 C7         7.7204    0.1644    3.3301 C.ar      1 RES1    0.0000
     16 H4         7.8160    1.0445    3.0474 H         1 RES1    0.0000
     17 C8         8.5240   -0.8264    2.7940 C.ar      1 RES1    0.0000
     18 H5         9.1736   -0.6103    2.1636 H         1 RES1    0.0000
     19 C9         8.3593   -2.1361    3.1974 C.ar      1 RES1    0.0000
     20 C10        3.3963   -0.3662    9.5537 C.ar      1 RES1    0.0000
     21 H6         3.8637   -0.8036   10.2287 H         1 RES1    0.0000
     22 C11        4.0771    0.1356    8.4410 C.ar      1 RES1    0.0000
     23 H7         4.9971    0.0185    8.3756 H         1 RES1    0.0000
     24 C12        3.9176    2.6286    5.5526 C.3       1 RES1    0.0000
     25 C13        3.0026    2.4420    4.3316 C.3       1 RES1    0.0000
     26 H8         2.8677    3.2899    3.9006 H         1 RES1    0.0000
     27 H9         2.1562    2.0891    4.6165 H         1 RES1    0.0000
     28 H10        3.4123    1.8309    3.7147 H         1 RES1    0.0000
     29 C14        5.2834    3.0931    5.0981 C.2       1 RES1    0.0000
     30 H11        5.4869    4.0008    5.0980 H         1 RES1    0.0000
     31 C15        6.1921    2.2101    4.7000 C.2       1 RES1    0.0000
     32 H12        6.9931    2.5008    4.3282 H         1 RES1    0.0000
     33 C16        6.6053   -1.4998    4.7024 C.ar      1 RES1    0.0000
     34 H13        5.9668   -1.7237    5.3398 H         1 RES1    0.0000
     35 C17        7.4021   -2.4883    4.1508 C.ar      1 RES1    0.0000
     36 H14        7.3012   -3.3746    4.4116 H         1 RES1    0.0000
     37 C18        3.3292    3.6795    6.5077 C.3       1 RES1    0.0000
     38 H15        3.8328    3.6857    7.3249 H         1 RES1    0.0000
     39 H16        2.4133    3.4633    6.6967 H         1 RES1    0.0000
     40 H17        3.3754    4.5462    6.0969 H         1 RES1    0.0000
@<TRIPOS>BOND
     1    1    3 1
     2    2    4 2
     3    3   14 1
     4    4    5 2
     5    6    7 1
     6    8    6 ar
     7    9    8 1
     8   10    8 ar
     9   11   10 1
    10   12   10 ar
    11   13    1 2
    12   14   15 ar
    13   15   16 1
    14   17   15 ar
    15   18   17 1
    16   19    4 1
    17   20    6 ar
    18   21   20 1
    19   22   12 ar
    20   23   22 1
    21   24   13 1
    22   25   24 1
    23   26   25 1
    24   27   25 1
    25   28   25 1
    26   29   24 1
    27   30   29 1
    28   31    3 1
    29   32   31 1
    30   33   14 ar
    31   34   33 1
    32   35   19 ar
    33   36   35 1
    34   37   24 1
    35   38   37 1
    36   39   37 1
    37   40   37 1
    38   12   13 1
    39   17   19 ar
    40   20   22 ar
    41   29   31 2
    42   33   35 ar
@<TRIPOS>SUBSTRUCTURE
     1 RES1 1

@<TRIPOS>CRYSIN
  10.9718   13.2389   11.8805  90.0000 117.2790  90.0000  14 1

