# MOL2 file generated by ConQuest
# Please check atom types

@<TRIPOS>MOLECULE
GAWWUZ
    38    39     2
SMALL
NO_CHARGES
****
Generated from CSD

@<TRIPOS>ATOM
      1 O1         0.2658    7.5711    5.3513 O.3       1 RES1    0.0000
      2 C1        -0.6551    6.5151    5.6747 C.3       1 RES1    0.0000
      3 H1        -1.1774    6.2572    4.8735 H         1 RES1    0.0000
      4 H2        -1.2848    6.8121    6.3787 H         1 RES1    0.0000
      5 O2         0.1255    5.4001    6.1412 O.3       1 RES1    0.0000
      6 C2         1.3844    5.6324    5.6311 C.ar      1 RES1    0.0000
      7 C3         1.4640    6.9386    5.1768 C.ar      1 RES1    0.0000
      8 C4         2.6281    7.4600    4.6647 C.ar      1 RES1    0.0000
      9 H3         2.6808    8.3679    4.3903 H         1 RES1    0.0000
     10 C5         3.7375    6.6037    4.5608 C.ar      1 RES1    0.0000
     11 C6         3.6620    5.2843    5.0427 C.ar      1 RES1    0.0000
     12 C7         2.4613    4.7898    5.6011 C.ar      1 RES1    0.0000
     13 H4         2.4042    3.9048    5.9429 H         1 RES1    0.0000
     14 C8         4.9547    7.2327    3.9630 C.ar      1 RES1    0.0000
     15 C9         5.5155    8.3187    4.6413 C.ar      1 RES1    0.0000
     16 H5         5.1262    8.5960    5.4625 H         1 RES1    0.0000
     17 C10        6.6222    9.0069    4.1575 C.ar      1 RES1    0.0000
     18 C11        7.2125    8.5861    2.9667 C.ar      1 RES1    0.0000
     19 H6         7.9845    9.0317    2.6387 H         1 RES1    0.0000
     20 C12        6.6800    7.5227    2.2606 C.ar      1 RES1    0.0000
     21 H7         7.0833    7.2365    1.4495 H         1 RES1    0.0000
     22 C13        5.5508    6.8774    2.7481 C.ar      1 RES1    0.0000
     23 C14        4.8419    4.3782    5.0132 C.2       1 RES1    0.0000
     24 O3         5.9104    4.6155    4.5027 O.2       1 RES1    0.0000
     25 O4         4.5907    3.2216    5.6332 O.3       1 RES1    0.0000
     26 C15        5.6845    2.2799    5.6998 C.3       1 RES1    0.0000
     27 H8         5.9513    2.0244    4.7914 H         1 RES1    0.0000
     28 H9         5.3994    1.4832    6.1936 H         1 RES1    0.0000
     29 H10        6.4445    2.6940    6.1587 H         1 RES1    0.0000
     30 C16        7.1870   10.2070    4.8713 C.3       1 RES1    0.0000
     31 H11        8.1678   10.1007    4.9571 H         1 RES1    0.0000
     32 H12        7.0166   11.0164    4.3277 H         1 RES1    0.0000
     33 O5         6.6266   10.3893    6.1601 O.3       1 RES1    0.0000
     34 H13        7.1918   10.8712    6.5862 H         1 RES1    0.0000
     35 N1         5.0004    5.7893    1.9289 N.pl3     1 RES1    0.0000
     36 O6         3.8153    5.5056    2.0455 O.2       1 RES1    0.0000
     37 O7         5.7534    5.2139    1.1550 O.2       1 RES1    0.0000
     38 H14        5.5049   10.6896    5.9875 Du        2 SUP2    0.0000
@<TRIPOS>BOND
     1    1    2 1
     2    2    3 1
     3    4    2 1
     4    5    2 1
     5    6    5 1
     6    7    1 1
     7    8    7 ar
     8    9    8 1
     9   10    8 ar
    10   11   10 ar
    11   12    6 ar
    12   13   12 1
    13   14   10 1
    14   15   14 ar
    15   16   15 1
    16   17   15 ar
    17   18   17 ar
    18   19   18 1
    19   20   18 ar
    20   21   20 1
    21   22   14 ar
    22   23   11 1
    23   24   23 2
    24   25   23 1
    25   26   25 1
    26   27   26 1
    27   28   26 1
    28   29   26 1
    29   30   17 1
    30   31   30 1
    31   32   30 1
    32   33   30 1
    33   34   33 1
    34   35   22 1
    35   36   35 2
    36   37   35 2
    37    6    7 ar
    38   11   12 ar
    39   20   22 ar
@<TRIPOS>SUBSTRUCTURE
     1 RES1 1
     2 SUP2 38

@<TRIPOS>CRYSIN
   8.9205   11.3478   14.2628  90.0000 102.5075  90.0000  14 1

