# MOL2 file generated by ConQuest
# Please check atom types

@<TRIPOS>MOLECULE
GAWXAG
    36    38     1
SMALL
NO_CHARGES
****
Generated from CSD

@<TRIPOS>ATOM
      1 O1         3.0285    6.2776    0.8826 O.3       1 RES1    0.0000
      2 C1         1.7474    5.7128    0.5817 C.3       1 RES1    0.0000
      3 H1         1.6032    5.6925   -0.3974 H         1 RES1    0.0000
      4 H2         1.0290    6.2554    0.9936 H         1 RES1    0.0000
      5 O2         1.7297    4.3730    1.1158 O.3       1 RES1    0.0000
      6 O3         7.1274    5.6769    4.0199 O.2       1 RES1    0.0000
      7 C2         6.4763    4.6532    4.0007 C.2       1 RES1    0.0000
      8 H3         6.8172    3.8979    4.4648 H         1 RES1    0.0000
      9 C3         3.2047    3.2283    2.7030 C.ar      1 RES1    0.0000
     10 H4         2.6629    2.4514    2.7797 H         1 RES1    0.0000
     11 C4         5.1887    4.5141    3.3005 C.ar      1 RES1    0.0000
     12 C5         4.7793    5.5794    2.4638 C.ar      1 RES1    0.0000
     13 H5         5.2983    6.3709    2.3823 H         1 RES1    0.0000
     14 C6         3.6122    5.4239    1.7806 C.ar      1 RES1    0.0000
     15 C7         2.8370    4.2764    1.9052 C.ar      1 RES1    0.0000
     16 C8         4.4179    3.3464    3.4044 C.ar      1 RES1    0.0000
     17 C9         4.9281    1.5513    8.0268 C.3       1 RES1    0.0000
     18 H6         5.6682    2.1659    8.2597 H         1 RES1    0.0000
     19 H7         4.0752    1.9804    8.2869 H         1 RES1    0.0000
     20 N1         5.1658    0.6278    2.3839 N.pl3     1 RES1    0.0000
     21 C10        5.0051    0.8941    3.8183 C.ar      1 RES1    0.0000
     22 C11        5.1382   -0.1962    4.6634 C.ar      1 RES1    0.0000
     23 H8         5.2580   -1.0699    4.3093 H         1 RES1    0.0000
     24 C12        5.0935    0.0080    6.0310 C.ar      1 RES1    0.0000
     25 H9         5.1724   -0.7320    6.6212 H         1 RES1    0.0000
     26 C13        4.9344    1.2846    6.5452 C.ar      1 RES1    0.0000
     27 C14        4.7632    2.3619    5.6722 C.ar      1 RES1    0.0000
     28 H10        4.6287    3.2310    6.0318 H         1 RES1    0.0000
     29 C15        4.7852    2.1972    4.2903 C.ar      1 RES1    0.0000
     30 O4         5.0815    0.3366    8.7217 O.3       1 RES1    0.0000
     31 C16        5.0411    0.5149   10.1365 C.3       1 RES1    0.0000
     32 H11        5.7986    1.0703   10.4172 H         1 RES1    0.0000
     33 H12        5.0961   -0.3590   10.5773 H         1 RES1    0.0000
     34 H13        4.2023    0.9555   10.3865 H         1 RES1    0.0000
     35 O5         5.4671    1.5519    1.6460 O.2       1 RES1    0.0000
     36 O6         5.0134   -0.5296    1.9899 O.2       1 RES1    0.0000
@<TRIPOS>BOND
     1    1    2 1
     2    2    3 1
     3    4    2 1
     4    5    2 1
     5    6    7 2
     6    7    8 1
     7    9   10 1
     8   11    7 1
     9   12   11 ar
    10   13   12 1
    11   14    1 1
    12   15    5 1
    13   16    9 ar
    14   17   18 1
    15   19   17 1
    16   20   21 1
    17   21   22 ar
    18   22   23 1
    19   24   22 ar
    20   25   24 1
    21   26   17 1
    22   27   26 ar
    23   28   27 1
    24   29   16 1
    25   30   17 1
    26   31   30 1
    27   32   31 1
    28   33   31 1
    29   34   31 1
    30   35   20 2
    31   36   20 2
    32    9   15 ar
    33   11   16 ar
    34   12   14 ar
    35   14   15 ar
    36   21   29 ar
    37   24   26 ar
    38   27   29 ar
@<TRIPOS>SUBSTRUCTURE
     1 RES1 1

@<TRIPOS>CRYSIN
   6.6160    9.3462   11.3791  86.2860  89.4590  85.5020   2 1

