# MOL2 file generated by ConQuest
# Please check atom types

@<TRIPOS>MOLECULE
GAXGOE
    31    32     1
SMALL
NO_CHARGES
****
Generated from CSD

@<TRIPOS>ATOM
      1 N1        -0.4134    3.3960   18.1206 N.ar      1 RES1    0.0000
      2 N2         1.4478    4.1683   19.3286 N.ar      1 RES1    0.0000
      3 N3        -2.6141    3.0594   24.1126 N.pl3     1 RES1    0.0000
      4 O1         2.1207    3.6946   14.7949 O.3       1 RES1    0.0000
      5 O2         3.2788    5.2252   15.8335 O.2       1 RES1    0.0000
      6 O3        -2.0668    3.4074   25.1121 O.2       1 RES1    0.0000
      7 O4        -3.7015    2.5890   24.0643 O.2       1 RES1    0.0000
      8 C1         2.3913    4.3848   15.7996 C.2       1 RES1    0.0000
      9 C2         1.5752    4.1055   17.0676 C.ar      1 RES1    0.0000
     10 C3         0.3363    3.6013   16.9634 C.ar      1 RES1    0.0000
     11 C4         0.2260    3.6759   19.2609 C.ar      1 RES1    0.0000
     12 C5         2.1681    4.3956   18.2144 C.ar      1 RES1    0.0000
     13 H1         3.0328    4.7371   18.2496 H         1 RES1    0.0000
     14 C6        -0.5038    3.4967   20.5327 C.ar      1 RES1    0.0000
     15 C7         0.0656    3.8383   21.7095 C.ar      1 RES1    0.0000
     16 H2         0.9333    4.1718   21.7134 H         1 RES1    0.0000
     17 C8        -0.5961    3.7068   22.8811 C.ar      1 RES1    0.0000
     18 H3        -0.2052    3.9773   23.6812 H         1 RES1    0.0000
     19 C9        -1.8675    3.1596   22.8654 C.ar      1 RES1    0.0000
     20 C10       -2.4606    2.8132   21.6952 C.ar      1 RES1    0.0000
     21 H4        -3.3243    2.4693   21.6769 H         1 RES1    0.0000
     22 C11       -1.7358    2.9881   20.5301 C.ar      1 RES1    0.0000
     23 H5        -2.1199    2.7431   19.7196 H         1 RES1    0.0000
     24 C12       -0.4810    3.3111   15.7788 C.3       1 RES1    0.0000
     25 H6        -0.8833    4.1231   15.4608 H         1 RES1    0.0000
     26 H7        -1.1685    2.6823   16.0094 H         1 RES1    0.0000
     27 H8         0.0750    2.9391   15.0894 H         1 RES1    0.0000
     28 C13        2.8924    3.9862   13.6038 C.3       1 RES1    0.0000
     29 H9         2.7129    4.8849   13.3171 H         1 RES1    0.0000
     30 H10        2.6482    3.3735   12.9066 H         1 RES1    0.0000
     31 H11        3.8277    3.8936   13.7980 H         1 RES1    0.0000
@<TRIPOS>BOND
     1    1   10 ar
     2    2   11 ar
     3    3    6 2
     4    4    8 1
     5    5    8 2
     6    7    3 2
     7    8    9 1
     8    9   10 ar
     9   10   24 1
    10   11    1 ar
    11   12    2 ar
    12   13   12 1
    13   14   11 1
    14   15   14 ar
    15   16   15 1
    16   17   15 ar
    17   18   17 1
    18   19    3 1
    19   20   19 ar
    20   21   20 1
    21   22   14 ar
    22   23   22 1
    23   24   25 1
    24   26   24 1
    25   27   24 1
    26   28    4 1
    27   29   28 1
    28   30   28 1
    29   31   28 1
    30    9   12 ar
    31   17   19 ar
    32   20   22 ar
@<TRIPOS>SUBSTRUCTURE
     1 RES1 1

@<TRIPOS>CRYSIN
   6.5180    7.2879   13.2101  94.2700  97.7710  97.3190   2 1

