# MOL2 file generated by ConQuest
# Please check atom types

@<TRIPOS>MOLECULE
GAXNAW
   188   184     5
SMALL
NO_CHARGES
****
Generated from CSD

@<TRIPOS>ATOM
      1 C1        28.1619   13.3922   12.9319 C.3       1 RES1    0.0000
      2 C2        27.5796   14.5564   13.7186 C.3       1 RES1    0.0000
      3 H1        27.1209   15.1493   13.1197 H         1 RES1    0.0000
      4 H2        28.2893   15.0323   14.1568 H         1 RES1    0.0000
      5 H3        26.9624   14.2236   14.3749 H         1 RES1    0.0000
      6 C3        28.9539   13.9204   11.7298 C.3       1 RES1    0.0000
      7 H4        29.3507   13.1844   11.2596 H         1 RES1    0.0000
      8 H5        29.6419   14.5144   12.0370 H         1 RES1    0.0000
      9 H6        28.3610   14.3951   11.1406 H         1 RES1    0.0000
     10 C4        28.9336   12.3337   13.7683 C.3       1 RES1    0.0000
     11 C5        28.4206   12.2235   15.2207 C.3       1 RES1    0.0000
     12 H7        27.4649   12.1406   15.2177 H         1 RES1    0.0000
     13 H8        28.6720   13.0117   15.7095 H         1 RES1    0.0000
     14 H9        28.8064   11.4511   15.6401 H         1 RES1    0.0000
     15 C6        30.4516   12.4484   13.6888 C.3       1 RES1    0.0000
     16 H10       30.8521   11.7964   14.2659 H         1 RES1    0.0000
     17 H11       30.7206   13.3286   13.9625 H         1 RES1    0.0000
     18 H12       30.7378   12.2939   12.7846 H         1 RES1    0.0000
     19 C7        27.3099   11.2172   12.4455 C.2       1 RES1    0.0000
     20 C8        26.4413   10.1359   12.0112 C.ar      1 RES1    0.0000
     21 C9        25.0425   10.3528   11.9810 C.ar      1 RES1    0.0000
     22 H13       24.7093   11.1967   12.1797 H         1 RES1    0.0000
     23 C10       24.1683    9.3408   11.6636 C.ar      1 RES1    0.0000
     24 H14       23.2537    9.5123   11.6404 H         1 RES1    0.0000
     25 C11       24.6463    8.0346   11.3691 C.ar      1 RES1    0.0000
     26 C12       23.7575    6.9693   11.0671 C.ar      1 RES1    0.0000
     27 H15       22.8409    7.1215   11.0474 H         1 RES1    0.0000
     28 C13       24.2524    5.7142   10.8045 C.ar      1 RES1    0.0000
     29 C14       25.6409    5.4734   10.8426 C.ar      1 RES1    0.0000
     30 H16       25.9674    4.6204   10.6726 H         1 RES1    0.0000
     31 C15       26.5083    6.4922   11.1299 C.ar      1 RES1    0.0000
     32 H17       27.4224    6.3219   11.1545 H         1 RES1    0.0000
     33 C16       26.0367    7.8018   11.3913 C.ar      1 RES1    0.0000
     34 C17       26.9320    8.8604   11.7173 C.ar      1 RES1    0.0000
     35 H18       27.8485    8.7025   11.7355 H         1 RES1    0.0000
     36 C18       22.0773    4.7715   10.4741 C.3       1 RES1    0.0000
     37 H19       21.8449    5.4496    9.8358 H         1 RES1    0.0000
     38 H20       21.7639    5.0316   11.3449 H         1 RES1    0.0000
     39 H21       21.6660    3.9412   10.2225 H         1 RES1    0.0000
     40 C19       23.0657   12.4938   15.5773 C.3       2 RES2    0.0000
     41 C20       24.5906   12.4404   15.5683 C.3       2 RES2    0.0000
     42 H22       24.8907   11.7317   16.1418 H         2 RES2    0.0000
     43 H23       24.9416   13.2764   15.8820 H         2 RES2    0.0000
     44 H24       24.8992   12.2803   14.6744 H         2 RES2    0.0000
     45 C21       22.5788   12.5733   17.0237 C.3       2 RES2    0.0000
     46 H25       21.6186   12.5972   17.0381 H         2 RES2    0.0000
     47 H26       22.9260   13.3684   17.4348 H         2 RES2    0.0000
     48 H27       22.8868   11.8032   17.5081 H         2 RES2    0.0000
     49 C22       22.4245   13.5467   14.6129 C.3       2 RES2    0.0000
     50 C23       21.5840   14.6109   15.2986 C.3       2 RES2    0.0000
     51 H28       21.2241   15.2095   14.6387 H         2 RES2    0.0000
     52 H29       22.1329   15.1039   15.9138 H         2 RES2    0.0000
     53 H30       20.8647   14.1930   15.7750 H         2 RES2    0.0000
     54 C24       23.4050   14.2020   13.6440 C.3       2 RES2    0.0000
     55 H31       23.8941   13.5228   13.1752 H         2 RES2    0.0000
     56 H32       24.0177   14.7563   14.1350 H         2 RES2    0.0000
     57 H33       22.9190   14.7404   13.0146 H         2 RES2    0.0000
     58 C25       21.6735   11.3660   14.0160 C.2       2 RES2    0.0000
     59 C26       21.0190   10.2949   13.2686 C.ar      2 RES2    0.0000
     60 C27       20.6358   10.5062   11.9144 C.ar      2 RES2    0.0000
     61 H34       20.7798   11.3353   11.5174 H         2 RES2    0.0000
     62 C28       20.0563    9.4953   11.1924 C.ar      2 RES2    0.0000
     63 H35       19.8094    9.6543   10.3097 H         2 RES2    0.0000
     64 C29       19.8241    8.2198   11.7526 C.ar      2 RES2    0.0000
     65 C30       19.2209    7.1760   11.0240 C.ar      2 RES2    0.0000
     66 H36       18.9627    7.3191   10.1432 H         2 RES2    0.0000
     67 C31       19.0128    5.9618   11.5965 C.ar      2 RES2    0.0000
     68 C32       19.4257    5.7131   12.9337 C.ar      2 RES2    0.0000
     69 H37       19.2837    4.8771   13.3160 H         2 RES2    0.0000
     70 C33       20.0227    6.6910   13.6484 C.ar      2 RES2    0.0000
     71 H38       20.3075    6.5093   14.5157 H         2 RES2    0.0000
     72 C34       20.2281    8.0051   13.1020 C.ar      2 RES2    0.0000
     73 C35       20.8131    9.0455   13.8318 C.ar      2 RES2    0.0000
     74 H39       21.0685    8.8967   14.7140 H         2 RES2    0.0000
     75 C36       17.8489    5.1066    9.6772 C.3       2 RES2    0.0000
     76 H40       18.5651    5.2292    9.0485 H         2 RES2    0.0000
     77 H41       17.2901    5.8880    9.6831 H         2 RES2    0.0000
     78 H42       17.3268    4.3433    9.4213 H         2 RES2    0.0000
     79 C37       16.9361   12.6051   15.1832 C.3       3 RES3    0.0000
     80 C38       16.0879   13.3048   16.2358 C.3       3 RES3    0.0000
     81 H43       15.4724   13.9022   15.8047 H         3 RES3    0.0000
     82 H44       16.6575   13.8022   16.8260 H         3 RES3    0.0000
     83 H45       15.5996   12.6505   16.7387 H         3 RES3    0.0000
     84 C39       17.6525   13.6523   14.3420 C.3       3 RES3    0.0000
     85 H46       18.3326   13.2275   13.8118 H         3 RES3    0.0000
     86 H47       18.0587   14.3031   14.9183 H         3 RES3    0.0000
     87 H48       17.0198   14.0862   13.7642 H         3 RES3    0.0000
     88 C40       16.1970   11.4943   14.3795 C.3       3 RES3    0.0000
     89 C41       14.6745   11.5761   14.4190 C.3       3 RES3    0.0000
     90 H49       14.3850   12.3814   13.9823 H         3 RES3    0.0000
     91 H50       14.3785   11.5829   15.3327 H         3 RES3    0.0000
     92 H51       14.3003   10.8162   13.9664 H         3 RES3    0.0000
     93 C42       16.6694   11.3398   12.9305 C.3       3 RES3    0.0000
     94 H52       16.2301   10.5868   12.5287 H         3 RES3    0.0000
     95 H53       17.6199   11.2013   12.9174 H         3 RES3    0.0000
     96 H54       16.4546   12.1349   12.4375 H         3 RES3    0.0000
     97 C43       17.7254   10.4528   15.8793 C.2       3 RES3    0.0000
     98 C44       18.4929    9.4090   16.5462 C.ar      3 RES3    0.0000
     99 C45       18.1528    8.0687   16.4214 C.ar      3 RES3    0.0000
    100 H55       17.4050    7.8382   15.9197 H         3 RES3    0.0000
    101 C46       18.9064    7.0454   17.0332 C.ar      3 RES3    0.0000
    102 C47       18.5750    5.6756   16.8771 C.ar      3 RES3    0.0000
    103 H56       17.8358    5.4416   16.3639 H         3 RES3    0.0000
    104 C48       19.3142    4.6965   17.4627 C.ar      3 RES3    0.0000
    105 H57       19.0792    3.8049   17.3415 H         3 RES3    0.0000
    106 C49       20.4451    5.0282   18.2601 C.ar      3 RES3    0.0000
    107 C50       20.7929    6.3434   18.4336 C.ar      3 RES3    0.0000
    108 H58       21.5225    6.5638   18.9656 H         3 RES3    0.0000
    109 C51       20.0445    7.3702   17.8056 C.ar      3 RES3    0.0000
    110 C52       20.3949    8.7468   17.9295 C.ar      3 RES3    0.0000
    111 H59       21.1422    8.9853   18.4302 H         3 RES3    0.0000
    112 C53       19.6588    9.7122   17.3322 C.ar      3 RES3    0.0000
    113 H60       19.9161   10.6004   17.4328 H         3 RES3    0.0000
    114 C54       22.2623    4.2206   19.5988 C.3       3 RES3    0.0000
    115 H61       22.9114    4.6909   19.0707 H         3 RES3    0.0000
    116 H62       22.6381    3.3904   19.9036 H         3 RES3    0.0000
    117 H63       22.0150    4.7567   20.3557 H         3 RES3    0.0000
    118 C55       11.1950   12.4495   17.0457 C.3       4 RES4    0.0000
    119 C56       10.4935   12.7357   18.3965 C.3       4 RES4    0.0000
    120 H64        9.7749   13.3559   18.2597 H         4 RES4    0.0000
    121 H65       11.1280   13.1105   19.0132 H         4 RES4    0.0000
    122 H66       10.1434   11.9157   18.7554 H         4 RES4    0.0000
    123 C57       11.7361   13.6705   16.3336 C.3       4 RES4    0.0000
    124 H67       12.2618   13.3945   15.5786 H         4 RES4    0.0000
    125 H68       12.2861   14.1759   16.9370 H         4 RES4    0.0000
    126 H69       11.0063   14.2157   16.0328 H         4 RES4    0.0000
    127 C58       10.3828   11.4886   16.1448 C.3       4 RES4    0.0000
    128 C59       10.7226   11.6147   14.6492 C.3       4 RES4    0.0000
    129 H70       10.3111   10.8946   14.1647 H         4 RES4    0.0000
    130 H71       11.6749   11.5738   14.5316 H         4 RES4    0.0000
    131 H72       10.3944   12.4529   14.3155 H         4 RES4    0.0000
    132 C60        8.8842   11.5284   16.3219 C.3       4 RES4    0.0000
    133 H73        8.5643   12.4143   16.1379 H         4 RES4    0.0000
    134 H74        8.6614   11.2876   17.2246 H         4 RES4    0.0000
    135 H75        8.4727   10.9071   15.7155 H         4 RES4    0.0000
    136 C61       12.0909   10.2540   17.2644 C.2       4 RES4    0.0000
    137 C62       12.9578    9.1466   17.6854 C.ar      4 RES4    0.0000
    138 C63       14.3358    9.3715   17.8577 C.ar      4 RES4    0.0000
    139 H76       14.6907   10.2120   17.6787 H         4 RES4    0.0000
    140 C64       15.1670    8.3561   18.2900 C.ar      4 RES4    0.0000
    141 H77       16.0746    8.5299   18.3985 H         4 RES4    0.0000
    142 C65       14.6834    7.0738   18.5704 C.ar      4 RES4    0.0000
    143 C66       15.5185    6.0311   19.0616 C.ar      4 RES4    0.0000
    144 H78       16.4229    6.1878   19.2036 H         4 RES4    0.0000
    145 C67       14.9867    4.7965   19.3244 C.ar      4 RES4    0.0000
    146 C68       13.6294    4.5137   19.0557 C.ar      4 RES4    0.0000
    147 H79       13.2946    3.6573   19.1977 H         4 RES4    0.0000
    148 C69       12.8124    5.4995   18.5885 C.ar      4 RES4    0.0000
    149 H80       11.9187    5.3053   18.4203 H         4 RES4    0.0000
    150 C70       13.2918    6.8193   18.3527 C.ar      4 RES4    0.0000
    151 C71       12.4499    7.8700   17.9142 C.ar      4 RES4    0.0000
    152 H81       11.5448    7.7041   17.7778 H         4 RES4    0.0000
    153 C72       17.0733    3.9764   20.2179 C.3       4 RES4    0.0000
    154 H82       17.5765    4.2138   19.4356 H         4 RES4    0.0000
    155 H83       17.4441    3.1814   20.6076 H         4 RES4    0.0000
    156 H84       17.1136    4.6943   20.8555 H         4 RES4    0.0000
    157 N1        28.4989   11.0729   13.1014 N.pl3     1 RES1    0.0000
    158 N2        27.0527   12.5449   12.3671 N.pl3     1 RES1    0.0000
    159 N3        22.5647   11.1933   15.0091 N.pl3     2 RES2    0.0000
    160 N4        21.5147   12.6858   13.7814 N.pl3     2 RES2    0.0000
    161 N5        17.9673   11.7862   15.9221 N.pl3     3 RES3    0.0000
    162 N6        16.6509   10.2540   15.0761 N.pl3     3 RES3    0.0000
    163 N7        12.3326   11.5704   17.4802 N.pl3     4 RES4    0.0000
    164 N8        10.9166   10.1529   16.5862 N.pl3     4 RES4    0.0000
    165 O1        29.1006    9.9597   13.3299 O.2       1 RES1    0.0000
    166 O2        26.0628   13.0825   11.7510 O.2       1 RES1    0.0000
    167 O3        22.9944   10.0769   15.4674 O.2       2 RES2    0.0000
    168 O4        20.7200   13.2224   12.9299 O.2       2 RES2    0.0000
    169 O5        18.9033   12.3779   16.5852 O.2       3 RES3    0.0000
    170 O6        16.0912    9.1348   14.7932 O.2       3 RES3    0.0000
    171 O7        13.3281   12.0667   18.1308 O.2       4 RES4    0.0000
    172 O8        10.3659    9.0537   16.2049 O.2       4 RES4    0.0000
    173 O9        23.4940    4.6112   10.5055 O.3       1 RES1    0.0000
    174 O10       18.3967    4.8960   10.9955 O.3       2 RES2    0.0000
    175 O11       21.0967    3.9557   18.8005 O.3       3 RES3    0.0000
    176 O12       15.6855    3.7344   19.8487 O.3       4 RES4    0.0000
    177 C73       27.5848   14.5348   13.7205 Du        5 SUP5    0.0000
    178 C74       10.5126   13.2309   18.1486 Du        5 SUP5    0.0000
    179 C75       30.4106   12.5074   13.9605 Du        5 SUP5    0.0000
    180 H85       26.9606   14.1941   14.3670 Du        5 SUP5    0.0000
    181 H86       27.1343   15.1379   13.1276 Du        5 SUP5    0.0000
    182 H87       28.2926   14.9994   14.1747 Du        5 SUP5    0.0000
    183 H88        9.9327   12.6471   18.6444 Du        5 SUP5    0.0000
    184 H89        9.9978   13.9431   17.7659 Du        5 SUP5    0.0000
    185 H90       11.1783   13.5978   18.7376 Du        5 SUP5    0.0000
    186 H91       30.8517   12.4665   13.1098 Du        5 SUP5    0.0000
    187 H92       30.7458   11.8089   14.5276 Du        5 SUP5    0.0000
    188 H93       30.5825   13.3604   14.3690 Du        5 SUP5    0.0000
@<TRIPOS>BOND
     1    1    2 1
     2    2    3 1
     3    4    2 1
     4    5    2 1
     5    6    1 1
     6    7    6 1
     7    8    6 1
     8    9    6 1
     9   10    1 1
    10   11   10 1
    11   12   11 1
    12   13   11 1
    13   14   11 1
    14   15   10 1
    15   16   15 1
    16   17   15 1
    17   18   15 1
    18   19   20 1
    19   20   21 ar
    20   21   22 1
    21   23   21 ar
    22   24   23 1
    23   25   23 ar
    24   26   25 ar
    25   27   26 1
    26   28   26 ar
    27   29   28 ar
    28   30   29 1
    29   31   29 ar
    30   32   31 1
    31   33   25 ar
    32   34   20 ar
    33   35   34 1
    34   36   37 1
    35   38   36 1
    36   39   36 1
    37   40   41 1
    38   41   42 1
    39   43   41 1
    40   44   41 1
    41   45   40 1
    42   46   45 1
    43   47   45 1
    44   48   45 1
    45   49   40 1
    46   50   49 1
    47   51   50 1
    48   52   50 1
    49   53   50 1
    50   54   49 1
    51   55   54 1
    52   56   54 1
    53   57   54 1
    54   58   59 1
    55   59   60 ar
    56   60   61 1
    57   62   60 ar
    58   63   62 1
    59   64   62 ar
    60   65   64 ar
    61   66   65 1
    62   67   65 ar
    63   68   67 ar
    64   69   68 1
    65   70   68 ar
    66   71   70 1
    67   72   64 ar
    68   73   59 ar
    69   74   73 1
    70   75   76 1
    71   77   75 1
    72   78   75 1
    73   79   80 1
    74   80   81 1
    75   82   80 1
    76   83   80 1
    77   84   79 1
    78   85   84 1
    79   86   84 1
    80   87   84 1
    81   88   79 1
    82   89   88 1
    83   90   89 1
    84   91   89 1
    85   92   89 1
    86   93   88 1
    87   94   93 1
    88   95   93 1
    89   96   93 1
    90   97   98 1
    91   98   99 ar
    92   99  100 1
    93  101   99 ar
    94  102  101 ar
    95  103  102 1
    96  104  102 ar
    97  105  104 1
    98  106  104 ar
    99  107  106 ar
   100  108  107 1
   101  109  101 ar
   102  110  109 ar
   103  111  110 1
   104  112   98 ar
   105  113  112 1
   106  114  115 1
   107  116  114 1
   108  117  114 1
   109  118  119 1
   110  119  120 1
   111  121  119 1
   112  122  119 1
   113  123  118 1
   114  124  123 1
   115  125  123 1
   116  126  123 1
   117  127  118 1
   118  128  127 1
   119  129  128 1
   120  130  128 1
   121  131  128 1
   122  132  127 1
   123  133  132 1
   124  134  132 1
   125  135  132 1
   126  136  137 1
   127  137  138 ar
   128  138  139 1
   129  140  138 ar
   130  141  140 1
   131  142  140 ar
   132  143  142 ar
   133  144  143 1
   134  145  143 ar
   135  146  145 ar
   136  147  146 1
   137  148  146 ar
   138  149  148 1
   139  150  142 ar
   140  151  137 ar
   141  152  151 1
   142  153  154 1
   143  155  153 1
   144  156  153 1
   145  157   10 1
   146  158    1 1
   147  159   40 1
   148  160   49 1
   149  161   79 1
   150  162   88 1
   151  163  118 1
   152  164  127 1
   153  165  157 1
   154  166  158 1
   155  167  159 1
   156  168  160 1
   157  169  161 1
   158  170  162 1
   159  171  163 1
   160  172  164 1
   161  173   28 1
   162  174   67 1
   163  175  106 1
   164  176  145 1
   165   19  157 2
   166   19  158 1
   167   31   33 ar
   168   33   34 ar
   169   36  173 1
   170   58  159 2
   171   58  160 1
   172   70   72 ar
   173   72   73 ar
   174   75  174 1
   175   97  161 2
   176   97  162 1
   177  107  109 ar
   178  110  112 ar
   179  114  175 1
   180  136  163 2
   181  136  164 1
   182  148  150 ar
   183  150  151 ar
   184  153  176 1
@<TRIPOS>SUBSTRUCTURE
     1 RES1 1
     2 RES2 40
     3 RES3 79
     4 RES4 118
     5 SUP5 177

@<TRIPOS>CRYSIN
  29.0000   11.3580   20.0240  90.0000  97.9770  90.0000  14 1

