# MOL2 file generated by ConQuest
# Please check atom types

@<TRIPOS>MOLECULE
GAYMOL01
    12    12     1
SMALL
USER_CHARGES
****
Generated from CSD

@<TRIPOS>ATOM
      1 O1         5.4796    4.2153    1.7308 O.2       1 RES1    0.0000
      2 O2         1.1124    6.2968    3.7784 O.2       1 RES1    0.0000
      3 O3         0.6131    7.3366    1.9255 O.2       1 RES1    0.0000
      4 N1         3.9457    5.5309    0.5480 N.am      1 RES1    0.0000
      5 N2         2.7891    6.2271    0.7565 N.2       1 RES1    0.0000
      6 N3         3.6660    5.0117    3.9746 N.1       1 RES1    1.0000
      7 N4         1.3356    6.6283    2.6131 N.pl3     1 RES1    0.0000
      8 C1         4.4643    4.9117    1.6647 C.2       1 RES1    0.0000
      9 C2         3.5186    5.3089    2.6887 C.2       1 RES1    0.0000
     10 N5         3.8541    4.7163    5.0309 N.2       1 RES1   -1.0000
     11 C3         2.5402    6.0972    2.0301 C.2       1 RES1    0.0000
     12 H1         4.3013    5.4863   -0.2637 H         1 RES1    0.0000
@<TRIPOS>BOND
     1    1    8 2
     2    2    7 2
     3    3    7 2
     4    4    5 1
     5    5   11 2
     6    6    9 2
     7    7   11 1
     8    8    4 1
     9    9    8 1
    10   10    6 2
    11   11    9 1
    12   12    4 1
@<TRIPOS>SUBSTRUCTURE
     1 RES1 1

@<TRIPOS>CRYSIN
   5.5069    9.0683   11.4260  90.0000  92.4860  90.0000 231 1

