# MOL2 file generated by ConQuest
# Please check atom types

@<TRIPOS>MOLECULE
GAYMOL02
    12    12     1
SMALL
USER_CHARGES
****
Generated from CSD

@<TRIPOS>ATOM
      1 C1         0.8084    0.7863    8.4834 C.2       1 RES1    0.0000
      2 C2         0.2062    0.9608    7.1816 C.2       1 RES1    0.0000
      3 C3         0.5685   -0.1672    6.4169 C.2       1 RES1    0.0000
      4 N1         1.3039   -0.9960    7.0925 N.2       1 RES1   -1.0000
      5 N2         1.4478   -0.4150    8.3239 N.am      1 RES1    0.0000
      6 H1         1.8480   -0.8221    8.9294 H         1 RES1    0.0000
      7 N3        -0.6090    1.9618    6.8514 N.1       1 RES1    1.0000
      8 N4        -1.2935    2.8136    6.6183 N.1       1 RES1    0.0000
      9 N5         0.2070   -0.4278    5.0521 N.pl3     1 RES1    0.0000
     10 O1         0.7856    1.4842    9.4946 O.2       1 RES1    0.0000
     11 O2        -0.4345    0.4664    4.4900 O.2       1 RES1    0.0000
     12 O3         0.5290   -1.4876    4.5404 O.2       1 RES1    0.0000
@<TRIPOS>BOND
     1    1    2 1
     2    2    3 2
     3    3    4 1
     4    4    5 1
     5    5    1 1
     6    6    5 1
     7    7    2 1
     8    8    7 3
     9    9    3 1
    10   10    1 2
    11   11    9 2
    12   12    9 2
@<TRIPOS>SUBSTRUCTURE
     1 RES1 1

@<TRIPOS>CRYSIN
  10.1828    5.5925   10.5574  90.0000 108.3300  90.0000  14 1

