# MOL2 file generated by ConQuest
# Please check atom types

@<TRIPOS>MOLECULE
GAYXIP
    62    65     1
SMALL
NO_CHARGES
****
Generated from CSD

@<TRIPOS>ATOM
      1 O1         4.9310   17.5157   -3.8841 O.3       1 RES1    0.0000
      2 N1         3.6286   12.2763   -0.4324 N.am      1 RES1    0.0000
      3 C1         5.2312   18.8323   -4.4305 C.3       1 RES1    0.0000
      4 H1         4.7668   19.5167   -3.9060 H         1 RES1    0.0000
      5 H2         4.9301   18.8752   -5.3627 H         1 RES1    0.0000
      6 H3         6.1976   18.9890   -4.3911 H         1 RES1    0.0000
      7 O2         5.6318   18.2567   -1.8424 O.2       1 RES1    0.0000
      8 N2         1.7148    6.8244    2.5699 N.pl3     1 RES1    0.0000
      9 C2         5.1770   17.3640   -2.5512 C.2       1 RES1    0.0000
     10 O3         4.3282   14.1896    1.1811 O.3       1 RES1    0.0000
     11 C3         4.8075   15.9997   -2.0608 C.ar      1 RES1    0.0000
     12 O4         2.6575   11.1346   -2.1884 O.2       1 RES1    0.0000
     13 C4         4.4746   14.9543   -2.9496 C.ar      1 RES1    0.0000
     14 H4         4.5016   15.1024   -3.8881 H         1 RES1    0.0000
     15 O5         2.2041    9.3994    3.6448 O.3       1 RES1    0.0000
     16 C5         4.1043   13.6971   -2.4469 C.ar      1 RES1    0.0000
     17 H5         3.8979   12.9893   -3.0463 H         1 RES1    0.0000
     18 O6         2.2860    6.7209    3.6733 O.2       1 RES1    0.0000
     19 C6         4.0365   13.4833   -1.0543 C.ar      1 RES1    0.0000
     20 O7         0.9130    5.9749    2.1333 O.2       1 RES1    0.0000
     21 C7         4.3981   14.5390   -0.1570 C.ar      1 RES1    0.0000
     22 C8         4.7928   15.7796   -0.6555 C.ar      1 RES1    0.0000
     23 H6         5.0499   16.4741   -0.0597 H         1 RES1    0.0000
     24 C9         2.9522   11.2044   -0.9764 C.2       1 RES1    0.0000
     25 C10        2.6122   10.1073   -0.0067 C.ar      1 RES1    0.0000
     26 C11        2.3110    8.8345   -0.5315 C.ar      1 RES1    0.0000
     27 H7         2.3106    8.6958   -1.4717 H         1 RES1    0.0000
     28 C12        2.0130    7.7791    0.3263 C.ar      1 RES1    0.0000
     29 H8         1.8087    6.9209   -0.0269 H         1 RES1    0.0000
     30 C13        2.0160    7.9897    1.7167 C.ar      1 RES1    0.0000
     31 C14        2.2932    9.2638    2.2787 C.ar      1 RES1    0.0000
     32 C15        2.5862   10.3097    1.4012 C.ar      1 RES1    0.0000
     33 H9         2.7724   11.1726    1.7508 H         1 RES1    0.0000
     34 C16        4.5709   15.2483    2.1672 C.3       1 RES1    0.0000
     35 H10        3.9725   16.0170    1.9911 H         1 RES1    0.0000
     36 H11        5.5077   15.5610    2.1030 H         1 RES1    0.0000
     37 C17        4.3025   14.6893    3.5605 C.ar      1 RES1    0.0000
     38 C18        3.0512   14.8261    4.1436 C.ar      1 RES1    0.0000
     39 H12        2.3517   15.2389    3.6508 H         1 RES1    0.0000
     40 C19        2.7972   14.3696    5.4463 C.ar      1 RES1    0.0000
     41 H13        1.9310   14.4703    5.8224 H         1 RES1    0.0000
     42 C20        3.8039   13.7709    6.1805 C.ar      1 RES1    0.0000
     43 H14        3.6365   13.4629    7.0642 H         1 RES1    0.0000
     44 C21        5.0570   13.6249    5.6150 C.ar      1 RES1    0.0000
     45 H15        5.7529   13.2164    6.1165 H         1 RES1    0.0000
     46 C22        5.3152   14.0696    4.3100 C.ar      1 RES1    0.0000
     47 H16        6.1790   13.9516    3.9329 H         1 RES1    0.0000
     48 C23        2.4642   10.7227    4.2166 C.3       1 RES1    0.0000
     49 H17        1.8245   11.3871    3.8553 H         1 RES1    0.0000
     50 H18        3.3831   11.0192    3.9971 H         1 RES1    0.0000
     51 C24        2.2958   10.5890    5.7172 C.ar      1 RES1    0.0000
     52 C25        1.1244   10.9294    6.3359 C.ar      1 RES1    0.0000
     53 H19        0.4024   11.2726    5.8209 H         1 RES1    0.0000
     54 C26        0.9775   10.7749    7.7389 C.ar      1 RES1    0.0000
     55 H20        0.1590   11.0144    8.1583 H         1 RES1    0.0000
     56 C27        2.0196   10.2785    8.4957 C.ar      1 RES1    0.0000
     57 H21        1.9191   10.1613    9.4329 H         1 RES1    0.0000
     58 C28        3.1985    9.9560    7.8831 C.ar      1 RES1    0.0000
     59 H22        3.9294    9.6424    8.4031 H         1 RES1    0.0000
     60 C29        3.3391   10.0840    6.4971 C.ar      1 RES1    0.0000
     61 H23        4.1528    9.8244    6.0821 H         1 RES1    0.0000
     62 H24        3.6975   12.2657    0.4955 H         1 RES1    0.0000
@<TRIPOS>BOND
     1    1    3 1
     2    2   19 1
     3    3    4 1
     4    5    3 1
     5    6    3 1
     6    7    9 2
     7    8   18 2
     8    9    1 1
     9   10   21 1
    10   11    9 1
    11   12   24 2
    12   13   11 ar
    13   14   13 1
    14   15   31 1
    15   16   13 ar
    16   17   16 1
    17   19   16 ar
    18   20    8 2
    19   21   19 ar
    20   22   11 ar
    21   23   22 1
    22   24    2 1
    23   25   24 1
    24   26   25 ar
    25   27   26 1
    26   28   26 ar
    27   29   28 1
    28   30    8 1
    29   31   30 ar
    30   32   25 ar
    31   33   32 1
    32   34   10 1
    33   35   34 1
    34   36   34 1
    35   37   34 1
    36   38   37 ar
    37   39   38 1
    38   40   38 ar
    39   41   40 1
    40   42   40 ar
    41   43   42 1
    42   44   42 ar
    43   45   44 1
    44   46   37 ar
    45   47   46 1
    46   48   15 1
    47   49   48 1
    48   50   48 1
    49   51   48 1
    50   52   51 ar
    51   53   52 1
    52   54   52 ar
    53   55   54 1
    54   56   54 ar
    55   57   56 1
    56   58   56 ar
    57   59   58 1
    58   60   51 ar
    59   61   60 1
    60   62    2 1
    61   21   22 ar
    62   28   30 ar
    63   31   32 ar
    64   44   46 ar
    65   58   60 ar
@<TRIPOS>SUBSTRUCTURE
     1 RES1 1

@<TRIPOS>CRYSIN
   7.1879   12.1852   15.8896  69.9440  86.9620  82.4120   2 1

