# MOL2 file generated by ConQuest
# Please check atom types

@<TRIPOS>MOLECULE
GAYYUC
    62    63     1
SMALL
NO_CHARGES
****
Generated from CSD

@<TRIPOS>ATOM
      1 N1         6.5414    4.1069    2.9268 N.am      1 RES1    0.0000
      2 N2         8.0712    0.1672    5.4344 N.am      1 RES1    0.0000
      3 N3         3.2417    3.3036    0.7436 N.am      1 RES1    0.0000
      4 N4         2.4765    8.0749    0.0528 N.pl3     1 RES1    0.0000
      5 O1         4.6923    2.7776    3.0091 O.2       1 RES1    0.0000
      6 O2         5.8186    0.2540    5.8245 O.2       1 RES1    0.0000
      7 O3         8.9921    4.7455    2.3951 O.3       1 RES1    0.0000
      8 O4        10.7308   -0.1459    5.4960 O.2       1 RES1    0.0000
      9 O5        11.9548    1.5061    4.6260 O.3       1 RES1    0.0000
     10 O6         2.2623    3.5104   -1.2916 O.2       1 RES1    0.0000
     11 O7         1.2512    8.0345    0.0097 O.2       1 RES1    0.0000
     12 O8         3.1636    8.9305   -0.4852 O.2       1 RES1    0.0000
     13 O9         4.2221    8.6406    2.0881 O.3       1 RES1    0.0000
     14 C1         5.2235    3.8385    2.7160 C.2       1 RES1    0.0000
     15 C2         7.5297    3.2328    3.4163 C.ar      1 RES1    0.0000
     16 C3         7.2601    2.0973    4.1678 C.ar      1 RES1    0.0000
     17 C4         8.3114    1.3114    4.6501 C.ar      1 RES1    0.0000
     18 C5         6.9004   -0.2780    5.9885 C.2       1 RES1    0.0000
     19 C6         7.0706   -1.5107    6.8394 C.3       1 RES1    0.0000
     20 C7         9.6402    1.6718    4.3531 C.ar      1 RES1    0.0000
     21 C8         9.8921    2.8182    3.5886 C.ar      1 RES1    0.0000
     22 C9         8.8567    3.5904    3.1239 C.ar      1 RES1    0.0000
     23 C10       10.2939    5.0510    1.8797 C.3       1 RES1    0.0000
     24 C11       10.7975    0.9060    4.8805 C.2       1 RES1    0.0000
     25 C12       13.1520    0.8557    5.1252 C.3       1 RES1    0.0000
     26 C13        4.4698    4.9487    2.0466 C.ar      1 RES1    0.0000
     27 C14        3.5196    4.6475    1.0480 C.ar      1 RES1    0.0000
     28 C15        2.6220    2.8030   -0.3640 C.2       1 RES1    0.0000
     29 C16        2.4355    1.2922   -0.3387 C.3       1 RES1    0.0000
     30 C17        1.5345    0.8409   -1.4749 C.3       1 RES1    0.0000
     31 C18        1.9035    0.7984    0.9983 C.3       1 RES1    0.0000
     32 C19        2.8683    5.7036    0.4130 C.ar      1 RES1    0.0000
     33 C20        3.1689    6.9974    0.7743 C.ar      1 RES1    0.0000
     34 C21        4.0639    7.3246    1.7880 C.ar      1 RES1    0.0000
     35 C22        4.7067    6.2705    2.4171 C.ar      1 RES1    0.0000
     36 C23        4.9537    8.9566    3.2752 C.3       1 RES1    0.0000
     37 H1         8.8010   -0.2632    5.6481 H         1 RES1    0.0000
     38 H2         6.8563    4.8405    2.5813 H         1 RES1    0.0000
     39 H3         3.5555    2.7027    1.3348 H         1 RES1    0.0000
     40 H4         6.3609    1.8538    4.3552 H         1 RES1    0.0000
     41 H5         6.2285   -1.7690    7.1936 H         1 RES1    0.0000
     42 H6         7.6692   -1.3217    7.5532 H         1 RES1    0.0000
     43 H7         7.4218   -2.2155    6.3088 H         1 RES1    0.0000
     44 H8        10.7879    3.0631    3.3899 H         1 RES1    0.0000
     45 H9        10.2599    5.8684    1.3977 H         1 RES1    0.0000
     46 H10       10.9087    5.1327    2.6001 H         1 RES1    0.0000
     47 H11       10.5766    4.3528    1.3006 H         1 RES1    0.0000
     48 H12       13.9142    1.3697    4.8858 H         1 RES1    0.0000
     49 H13       13.1026    0.7846    6.0706 H         1 RES1    0.0000
     50 H14       13.2234   -0.0120    4.7446 H         1 RES1    0.0000
     51 H15        3.2884    0.8961   -0.4721 H         1 RES1    0.0000
     52 H16        1.4329   -0.1028   -1.4418 H         1 RES1    0.0000
     53 H17        1.9249    1.0880   -2.3056 H         1 RES1    0.0000
     54 H18        0.6836    1.2541   -1.3888 H         1 RES1    0.0000
     55 H19        1.8029   -0.1453    0.9708 H         1 RES1    0.0000
     56 H20        2.5147    1.0321    1.6878 H         1 RES1    0.0000
     57 H21        1.0620    1.2019    1.1726 H         1 RES1    0.0000
     58 H22        2.2231    5.5315   -0.2625 H         1 RES1    0.0000
     59 H23        5.3236    6.4538    3.1164 H         1 RES1    0.0000
     60 H24        4.9971    9.8992    3.3789 H         1 RES1    0.0000
     61 H25        5.8337    8.6044    3.2079 H         1 RES1    0.0000
     62 H26        4.5163    8.5750    4.0276 H         1 RES1    0.0000
@<TRIPOS>BOND
     1    1   14 1
     2    2   17 1
     3    3   27 1
     4    4   11 2
     5    5   14 2
     6    6   18 2
     7    7   22 1
     8    8   24 2
     9    9   24 1
    10   10   28 2
    11   12    4 2
    12   13   34 1
    13   14   26 1
    14   15    1 1
    15   16   15 ar
    16   17   16 ar
    17   18    2 1
    18   19   18 1
    19   20   17 ar
    20   21   20 ar
    21   22   15 ar
    22   23    7 1
    23   24   20 1
    24   25    9 1
    25   26   27 ar
    26   27   32 ar
    27   28    3 1
    28   29   28 1
    29   30   29 1
    30   31   29 1
    31   32   33 ar
    32   33    4 1
    33   34   33 ar
    34   35   26 ar
    35   36   13 1
    36   37    2 1
    37   38    1 1
    38   39    3 1
    39   40   16 1
    40   41   19 1
    41   42   19 1
    42   43   19 1
    43   44   21 1
    44   45   23 1
    45   46   23 1
    46   47   23 1
    47   48   25 1
    48   49   25 1
    49   50   25 1
    50   51   29 1
    51   52   30 1
    52   53   30 1
    53   54   30 1
    54   55   31 1
    55   56   31 1
    56   57   31 1
    57   58   32 1
    58   59   35 1
    59   60   36 1
    60   61   36 1
    61   62   36 1
    62   21   22 ar
    63   34   35 ar
@<TRIPOS>SUBSTRUCTURE
     1 RES1 1

@<TRIPOS>CRYSIN
  10.1922   10.7676   12.4992 111.3890 106.4208  92.1790   2 1

