# MOL2 file generated by ConQuest
# Please check atom types

@<TRIPOS>MOLECULE
GAZCER
    35    36     1
SMALL
NO_CHARGES
****
Generated from CSD

@<TRIPOS>ATOM
      1 C1         7.8221    0.3514   10.4536 C.ar      1 RES1    0.0000
      2 C2         6.4499    0.1431   10.4711 C.ar      1 RES1    0.0000
      3 C3         5.5688    0.9536    9.7697 C.ar      1 RES1    0.0000
      4 C4         6.1072    2.0241    9.0425 C.ar      1 RES1    0.0000
      5 C5         7.4664    2.2177    9.0162 C.ar      1 RES1    0.0000
      6 C6         5.2801    3.0085    8.2700 C.2       1 RES1    0.0000
      7 C7         3.7543    4.7963    8.4716 C.3       1 RES1    0.0000
      8 H1         4.2041    5.2433    7.7501 H         1 RES1    0.0000
      9 H2         3.4801    5.4421    9.1264 H         1 RES1    0.0000
     10 H3         2.9832    4.3367    8.1325 H         1 RES1    0.0000
     11 C8         4.1097    0.6659    9.7013 C.2       1 RES1    0.0000
     12 C9         2.3529   -0.6688   10.5271 C.3       1 RES1    0.0000
     13 H4         1.7788    0.0563   10.7846 H         1 RES1    0.0000
     14 H5         2.2170   -1.4111   11.1208 H         1 RES1    0.0000
     15 H6         2.1456   -0.9354    9.6292 H         1 RES1    0.0000
     16 C10        8.7400   -0.5564   11.1296 C.2       1 RES1    0.0000
     17 C11        8.7371   -1.9240   11.0577 C.2       1 RES1    0.0000
     18 C12        9.7261   -2.4016   11.9281 C.2       1 RES1    0.0000
     19 C13       10.2848   -1.3295   12.5209 C.2       1 RES1    0.0000
     20 C14       10.0318    1.1652   12.4615 C.3       1 RES1    0.0000
     21 H7        10.4500    1.1376   13.3246 H         1 RES1    0.0000
     22 H8         9.2267    1.6857   12.5120 H         1 RES1    0.0000
     23 H9        10.6325    1.5651   11.8279 H         1 RES1    0.0000
     24 N1         8.3119    1.3903    9.6915 N.pl3     1 RES1    0.0000
     25 N2         9.7081   -0.1875   12.0361 N.3       1 RES1    0.0000
     26 O1         5.2543    3.0607    7.0758 O.2       1 RES1    0.0000
     27 O2         4.6611    3.8336    9.0879 O.3       1 RES1    0.0000
     28 O3         3.3722    1.1633    8.8947 O.2       1 RES1    0.0000
     29 O4         3.7321   -0.2402   10.5978 O.3       1 RES1    0.0000
     30 O5         9.5902    1.5810    9.5769 O.2       1 RES1    0.0000
     31 H10        6.1264   -0.6194   10.9956 H         1 RES1    0.0000
     32 H11        7.9250    2.9302    8.5759 H         1 RES1    0.0000
     33 H12        8.1837   -2.4246   10.5802 H         1 RES1    0.0000
     34 H13        9.9528   -3.3439   12.1477 H         1 RES1    0.0000
     35 H14       10.9969   -1.1606   13.1746 H         1 RES1    0.0000
@<TRIPOS>BOND
     1    1    2 ar
     2    2    3 ar
     3    3    4 ar
     4    4    5 ar
     5    5   24 ar
     6    6    4 1
     7    7    8 1
     8    9    7 1
     9   10    7 1
    10   11    3 1
    11   12   13 1
    12   14   12 1
    13   15   12 1
    14   16    1 1
    15   17   16 2
    16   18   17 1
    17   19   18 2
    18   20   21 1
    19   22   20 1
    20   23   20 1
    21   24    1 ar
    22   25   16 1
    23   26    6 2
    24   27    6 1
    25   28   11 2
    26   29   11 1
    27   30   24 1
    28   31    2 1
    29   32    5 1
    30   33   17 1
    31   34   18 1
    32   35   19 1
    33    7   27 1
    34   12   29 1
    35   19   25 1
    36   20   25 1
@<TRIPOS>SUBSTRUCTURE
     1 RES1 1

@<TRIPOS>CRYSIN
  14.9568   11.4909   16.9349  90.0000 103.2714  90.0000  15 1

