# MOL2 file generated by ConQuest
# Please check atom types

@<TRIPOS>MOLECULE
GAZDUG
    31    33     1
SMALL
NO_CHARGES
****
Generated from CSD

@<TRIPOS>ATOM
      1 O1        -2.6350    1.7197    3.8036 O.2       1 RES1    0.0000
      2 O2        -3.5036    1.3572    1.8234 O.3       1 RES1    0.0000
      3 O3        -1.8821   -1.1535    2.3755 O.2       1 RES1    0.0000
      4 N1         1.2438   -0.1273    1.2111 N.2       1 RES1    0.0000
      5 N2         0.2253   -0.9159    1.5837 N.2       1 RES1    0.0000
      6 N3        -0.9481   -0.3556    2.0506 N.2       1 RES1    0.0000
      7 N4         0.0853    3.1575    1.7871 N.2       1 RES1    0.0000
      8 C1        -1.1513    0.9905    2.1495 C.2       1 RES1    0.0000
      9 C2        -0.0926    1.8071    1.7882 C.2       1 RES1    0.0000
     10 C3         1.3713    3.4478    1.2815 C.2       1 RES1    0.0000
     11 C4         1.9632    4.6769    1.1020 C.2       1 RES1    0.0000
     12 C5         3.2840    4.6905    0.6135 C.2       1 RES1    0.0000
     13 C6         3.9604    3.4818    0.2602 C.2       1 RES1    0.0000
     14 C7         3.3403    2.2654    0.4226 C.2       1 RES1    0.0000
     15 C8         2.0466    2.2417    0.9645 C.2       1 RES1    0.0000
     16 C9         1.1066    1.2002    1.2985 C.2       1 RES1    0.0000
     17 C10       -0.8733    4.1668    2.2892 C.3       1 RES1    0.0000
     18 C11       -2.5041    1.3818    2.7016 C.2       1 RES1    0.0000
     19 C12       -4.8982    1.7137    2.2415 C.2       1 RES1    0.0000
     20 C13       -5.8667    1.2053    1.2361 C.3       1 RES1    0.0000
     21 H1         1.2901    5.6530    1.1474 H         1 RES1    0.0000
     22 H2         3.9375    5.4917    0.2954 H         1 RES1    0.0000
     23 H3         4.7556    3.8366    0.0000 H         1 RES1    0.0000
     24 H4         3.9178    1.5194    0.1250 H         1 RES1    0.0000
     25 H5        -0.5131    5.0928    2.3858 H         1 RES1    0.0000
     26 H6        -0.5752    3.9894    3.3742 H         1 RES1    0.0000
     27 H7        -1.2682    4.0063    1.5337 H         1 RES1    0.0000
     28 H8        -5.0619    1.5194    3.2833 H         1 RES1    0.0000
     29 H9        -5.7763    0.1782    1.2497 H         1 RES1    0.0000
     30 H10       -5.7900    1.7400    0.3863 H         1 RES1    0.0000
     31 H11       -6.8462    1.3496    1.6019 H         1 RES1    0.0000
@<TRIPOS>BOND
     1    1   18 1
     2    2   18 1
     3    3    6 1
     4    4    5 1
     5    5    6 1
     6    6    8 1
     7    7    9 1
     8    8    9 1
     9    9   16 1
    10   10    7 1
    11   11   10 1
    12   12   11 1
    13   13   12 1
    14   14   13 1
    15   15   10 1
    16   16    4 1
    17   17    7 1
    18   18    8 1
    19   19    2 1
    20   20   19 1
    21   21   11 1
    22   22   12 1
    23   23   13 1
    24   24   14 1
    25   25   17 1
    26   26   17 1
    27   27   17 1
    28   28   19 1
    29   29   20 1
    30   30   20 1
    31   31   20 1
    32   14   15 1
    33   15   16 1
@<TRIPOS>SUBSTRUCTURE
     1 RES1 1

@<TRIPOS>CRYSIN
  13.1370    8.4880   12.7090  90.0000 116.6300  90.0000 231 1

