# MOL2 file generated by ConQuest
# Please check atom types

@<TRIPOS>MOLECULE
GAZFOE
   111   113     2
SMALL
NO_CHARGES
****
Generated from CSD

@<TRIPOS>ATOM
      1 O1         5.9821   14.7093    5.8677 O.3       1 RES1    0.0000
      2 O2         3.6648   16.2975    6.6739 O.3       1 RES1    0.0000
      3 O3         4.7179   17.1064    8.4268 O.2       1 RES1    0.0000
      4 O4         6.9303   16.8658    4.0990 O.3       1 RES1    0.0000
      5 O5         6.0475   18.3546    2.6951 O.2       1 RES1    0.0000
      6 O6         7.5142   15.1853    2.0986 O.3       1 RES1    0.0000
      7 O7         6.3491   14.1782    0.5015 O.2       1 RES1    0.0000
      8 O8         7.8820   12.7259    3.4544 O.3       1 RES1    0.0000
      9 O9         9.9752   13.1711    4.0119 O.2       1 RES1    0.0000
     10 O10        2.5608    7.2082    5.9564 O.2       1 RES1    0.0000
     11 O11        4.4334    6.4332    5.1149 O.2       1 RES1    0.0000
     12 N1         7.1271   12.7319    6.2619 N.3       1 RES1    0.0000
     13 H1         7.7398   13.2495    6.6693 H         1 RES1    0.0000
     14 H2         7.5652   12.0545    5.8652 Du        2 SUP2    0.0000
     15 N2         8.2677   11.1125   10.1830 N.pl3     1 RES1    0.0000
     16 H3         8.8187   10.5904   10.5863 H         1 RES1    0.0000
     17 N3         3.7812    7.2703    5.6911 N.pl3     1 RES1    0.0000
     18 C1         6.4734   13.5024    5.2604 C.3       1 RES1    0.0000
     19 H4         5.7213   12.9921    4.8952 H         1 RES1    0.0000
     20 C2         7.4072   13.9002    4.1359 C.3       1 RES1    0.0000
     21 H5         8.1593   14.4252    4.4807 H         1 RES1    0.0000
     22 C3         6.6070   14.7121    3.1117 C.3       1 RES1    0.0000
     23 H6         5.9311   14.1368    2.6984 H         1 RES1    0.0000
     24 C4         5.9289   15.9070    3.7392 C.3       1 RES1    0.0000
     25 H7         5.3076   16.3078    3.0963 H         1 RES1    0.0000
     26 C5         5.1654   15.4885    4.9956 C.3       1 RES1    0.0000
     27 H8         4.3781   14.9665    4.7377 H         1 RES1    0.0000
     28 C6         4.7200   16.7027    5.7972 C.3       1 RES1    0.0000
     29 H9         5.4642   17.0517    6.3128 H         1 RES1    0.0000
     30 H10        4.4068   17.3993    5.1978 H         1 RES1    0.0000
     31 C7         3.7611   16.5785    7.9729 C.2       1 RES1    0.0000
     32 C8         2.5680   16.0638    8.7472 C.3       1 RES1    0.0000
     33 C9         1.2714   16.4646    8.1271 C.3       1 RES1    0.0000
     34 H11        1.2218   17.4229    8.0828 H         1 RES1    0.0000
     35 H12        0.5452   16.1318    8.6589 H         1 RES1    0.0000
     36 H13        1.2125   16.0993    7.2413 H         1 RES1    0.0000
     37 C10        2.7095   16.3315   10.1843 C.3       1 RES1    0.0000
     38 H14        2.5593   17.2647   10.3501 H         1 RES1    0.0000
     39 H15        3.5944   16.0934   10.4703 H         1 RES1    0.0000
     40 H16        2.0659   15.8124   10.6734 H         1 RES1    0.0000
     41 C11        2.6146   14.4489    8.6175 C.3       1 RES1    0.0000
     42 H17        1.8123   14.0732    8.9864 H         1 RES1    0.0000
     43 H18        3.3753   14.1102    9.0941 H         1 RES1    0.0000
     44 H19        2.6843   14.2034    7.6890 H         1 RES1    0.0000
     45 C12        6.8728   18.0825    3.4938 C.2       1 RES1    0.0000
     46 C13        7.9725   18.9979    3.9713 C.3       1 RES1    0.0000
     47 C14        7.7484   19.2538    5.4270 C.3       1 RES1    0.0000
     48 H20        8.2627   18.6312    5.9439 H         1 RES1    0.0000
     49 H21        6.8160   19.1473    5.6289 H         1 RES1    0.0000
     50 H22        8.0214   20.1500    5.6413 H         1 RES1    0.0000
     51 C15        7.9258   20.3142    3.2107 C.3       1 RES1    0.0000
     52 H23        8.6607   20.8688    3.4859 H         1 RES1    0.0000
     53 H24        7.0983   20.7638    3.3989 H         1 RES1    0.0000
     54 H25        7.9890   20.1426    2.2673 H         1 RES1    0.0000
     55 C16        9.3115   18.3694    3.7346 C.3       1 RES1    0.0000
     56 H26        9.4005   17.5900    4.2859 H         1 RES1    0.0000
     57 H27       10.0032   18.9979    3.9543 H         1 RES1    0.0000
     58 H28        9.3890   18.1195    2.8103 H         1 RES1    0.0000
     59 C17        7.2463   14.8999    0.8132 C.2       1 RES1    0.0000
     60 C18        8.1995   15.6142   -0.1206 C.3       1 RES1    0.0000
     61 C19        9.5909   15.6645    0.4265 C.3       1 RES1    0.0000
     62 H29       10.0420   14.8408    0.2321 H         1 RES1    0.0000
     63 H30        9.5564   15.7932    1.3761 H         1 RES1    0.0000
     64 H31       10.0678   16.3936    0.0207 H         1 RES1    0.0000
     65 C20        7.7297   17.0665   -0.2031 C.3       1 RES1    0.0000
     66 H32        7.9330   17.5161    0.6176 H         1 RES1    0.0000
     67 H33        6.7816   17.0872   -0.3565 H         1 RES1    0.0000
     68 H34        8.1787   17.5072   -0.9285 H         1 RES1    0.0000
     69 C21        8.0551   14.9561   -1.4951 C.3       1 RES1    0.0000
     70 H35        8.2814   15.5906   -2.1803 H         1 RES1    0.0000
     71 H36        7.1486   14.6648   -1.6166 H         1 RES1    0.0000
     72 H37        8.6456   14.2019   -1.5502 H         1 RES1    0.0000
     73 C22        9.1958   12.4878    3.4350 C.2       1 RES1    0.0000
     74 C23        9.5600   11.2500    2.6400 C.3       1 RES1    0.0000
     75 C24       11.0763   11.0903    2.6196 C.3       1 RES1    0.0000
     76 H38       11.3500   10.5431    3.3575 H         1 RES1    0.0000
     77 H39       11.4908   11.9525    2.6901 H         1 RES1    0.0000
     78 H40       11.3428   10.6717    1.7989 H         1 RES1    0.0000
     79 C25        9.1225   11.4482    1.2253 C.3       1 RES1    0.0000
     80 H41        9.5916   10.8374    0.6549 H         1 RES1    0.0000
     81 H42        9.3093   12.3488    0.9534 H         1 RES1    0.0000
     82 H43        8.1758   11.2855    1.1565 H         1 RES1    0.0000
     83 C26        8.9365   10.0905    3.2248 C.3       1 RES1    0.0000
     84 H44        8.7512   10.2606    4.1533 H         1 RES1    0.0000
     85 H45        9.5277    9.3378    3.1502 H         1 RES1    0.0000
     86 H46        8.1162    9.9012    2.7647 H         1 RES1    0.0000
     87 C27        6.2256   12.1713    7.2882 C.3       1 RES1    0.0000
     88 H47        5.5159   12.8280    7.4486 H         1 RES1    0.0000
     89 C28        5.5633   10.8877    6.8094 C.ar      1 RES1    0.0000
     90 C29        4.2876   10.5815    7.2156 C.ar      1 RES1    0.0000
     91 H48        3.8243   11.1864    7.7512 H         1 RES1    0.0000
     92 C30        3.6971    9.4398    6.8629 C.ar      1 RES1    0.0000
     93 H49        2.8273    9.2550    7.1335 H         1 RES1    0.0000
     94 C31        4.3874    8.5466    6.0969 C.ar      1 RES1    0.0000
     95 C32        5.6538    8.7891    5.6393 C.ar      1 RES1    0.0000
     96 H50        6.1064    8.1739    5.1108 H         1 RES1    0.0000
     97 C33        6.2285    9.9959    6.0049 C.ar      1 RES1    0.0000
     98 H51        7.0811   10.2059    5.6994 H         1 RES1    0.0000
     99 C34        6.9396   11.9643    8.5719 C.2       1 RES1    0.0000
    100 C35        6.8800   12.7792    9.7366 C.ar      1 RES1    0.0000
    101 C36        6.1990   13.9519   10.0301 C.ar      1 RES1    0.0000
    102 H52        5.6560   14.3646    9.3967 H         1 RES1    0.0000
    103 C37        6.3585   14.4947   11.3171 C.ar      1 RES1    0.0000
    104 H53        5.8801   15.2578   11.5480 H         1 RES1    0.0000
    105 C38        7.1939   13.9342   12.2352 C.ar      1 RES1    0.0000
    106 H54        7.2987   14.3350   13.0692 H         1 RES1    0.0000
    107 C39        7.8741   12.7940   11.9488 C.ar      1 RES1    0.0000
    108 H55        8.4351   12.4021   12.5801 H         1 RES1    0.0000
    109 C40        7.7125   12.2379   10.7115 C.ar      1 RES1    0.0000
    110 C41        7.8037   10.9513    8.9080 C.2       1 RES1    0.0000
    111 H56        8.0408   10.2503    8.3439 H         1 RES1    0.0000
@<TRIPOS>BOND
     1    1   18 1
     2    2   28 1
     3    3   31 2
     4    4   24 1
     5    5   45 2
     6    6   22 1
     7    7   59 2
     8    8   20 1
     9    9   73 2
    10   10   17 2
    11   11   17 2
    12   12   13 1
    13   15   16 1
    14   17   94 1
    15   18   12 1
    16   19   18 1
    17   20   18 1
    18   21   20 1
    19   22   20 1
    20   23   22 1
    21   24   22 1
    22   25   24 1
    23   26    1 1
    24   27   26 1
    25   28   26 1
    26   29   28 1
    27   30   28 1
    28   31    2 1
    29   32   31 1
    30   33   32 1
    31   34   33 1
    32   35   33 1
    33   36   33 1
    34   37   32 1
    35   38   37 1
    36   39   37 1
    37   40   37 1
    38   41   32 1
    39   42   41 1
    40   43   41 1
    41   44   41 1
    42   45    4 1
    43   46   45 1
    44   47   46 1
    45   48   47 1
    46   49   47 1
    47   50   47 1
    48   51   46 1
    49   52   51 1
    50   53   51 1
    51   54   51 1
    52   55   46 1
    53   56   55 1
    54   57   55 1
    55   58   55 1
    56   59    6 1
    57   60   59 1
    58   61   60 1
    59   62   61 1
    60   63   61 1
    61   64   61 1
    62   65   60 1
    63   66   65 1
    64   67   65 1
    65   68   65 1
    66   69   60 1
    67   70   69 1
    68   71   69 1
    69   72   69 1
    70   73    8 1
    71   74   73 1
    72   75   74 1
    73   76   75 1
    74   77   75 1
    75   78   75 1
    76   79   74 1
    77   80   79 1
    78   81   79 1
    79   82   79 1
    80   83   74 1
    81   84   83 1
    82   85   83 1
    83   86   83 1
    84   87   12 1
    85   88   87 1
    86   89   87 1
    87   90   89 ar
    88   91   90 1
    89   92   90 ar
    90   93   92 1
    91   94   92 ar
    92   95   94 ar
    93   96   95 1
    94   97   89 ar
    95   98   97 1
    96   99   87 1
    97  100   99 1
    98  101  100 ar
    99  102  101 1
   100  103  101 ar
   101  104  103 1
   102  105  103 ar
   103  106  105 1
   104  107  105 ar
   105  108  107 1
   106  109   15 1
   107  110   15 1
   108  111  110 1
   109   24   26 1
   110   95   97 ar
   111   99  110 2
   112  100  109 ar
   113  107  109 ar
@<TRIPOS>SUBSTRUCTURE
     1 RES1 1
     2 SUP2 14

@<TRIPOS>CRYSIN
   7.1831   14.7890   41.4500  90.0000  90.0000  90.0000  19 1

