# MOL2 file generated by ConQuest
# Please check atom types

@<TRIPOS>MOLECULE
GAZHAT
    23    24     1
SMALL
USER_CHARGES
****
Generated from CSD

@<TRIPOS>ATOM
      1 O1        -6.8338   -9.0895   -8.3810 O.2       1 RES1   -1.0000
      2 O2        -5.1993   -3.8317   -5.6037 O.2       1 RES1    0.0000
      3 O3        -5.5882   -3.1070   -7.5945 O.2       1 RES1    0.0000
      4 N1        -6.5191   -8.3179   -4.4069 N.ar      1 RES1    0.0000
      5 N2        -6.5254   -7.8967   -7.9771 N.pl3     1 RES1    1.0000
      6 N3        -5.5686   -3.9077   -6.7936 N.pl3     1 RES1    0.0000
      7 C1        -6.5310   -9.2198   -3.4257 C.ar      1 RES1    0.0000
      8 H1        -6.7492   -8.9039   -2.5242 H         1 RES1    0.0000
      9 C2        -6.2512  -10.5762   -3.6086 C.ar      1 RES1    0.0000
     10 H2        -6.3086  -11.1559   -2.8075 H         1 RES1    0.0000
     11 C3        -5.9274  -11.0016   -4.8771 C.ar      1 RES1    0.0000
     12 H3        -5.7701  -11.9483   -4.9583 H         1 RES1    0.0000
     13 C4        -5.9190  -10.0893   -5.9319 C.ar      1 RES1    0.0000
     14 H4        -5.7211  -10.3531   -6.8128 H         1 RES1    0.0000
     15 C5        -6.2268   -8.7558   -5.6585 C.ar      1 RES1    0.0000
     16 C6        -6.2086   -7.6580   -6.6555 C.ar      1 RES1    0.0000
     17 C7        -5.9008   -6.3547   -6.2727 C.ar      1 RES1    0.0000
     18 H5        -5.6232   -6.2661   -5.3575 H         1 RES1    0.0000
     19 C8        -5.8966   -5.3517   -7.2056 C.ar      1 RES1    0.0000
     20 C9        -6.2205   -5.5905   -8.5437 C.ar      1 RES1    0.0000
     21 H6        -6.2456   -4.9107   -9.1953 H         1 RES1    0.0000
     22 C10       -6.5324   -6.8750   -8.8891 C.ar      1 RES1    0.0000
     23 H7        -6.7282   -7.2149   -9.8135 H         1 RES1    0.0000
@<TRIPOS>BOND
     1    1    5 1
     2    2    6 2
     3    3    6 2
     4    4    7 ar
     5    5   16 ar
     6    6   19 1
     7    7    8 1
     8    9    7 ar
     9   10    9 1
    10   11    9 ar
    11   12   11 1
    12   13   11 ar
    13   14   13 1
    14   15    4 ar
    15   16   15 1
    16   17   16 ar
    17   18   17 1
    18   19   17 ar
    19   20   19 ar
    20   21   20 1
    21   22    5 ar
    22   23   22 1
    23   13   15 ar
    24   20   22 ar
@<TRIPOS>SUBSTRUCTURE
     1 RES1 1

@<TRIPOS>CRYSIN
   6.9940   10.4261   12.8786  90.0000  90.0000  90.0000  19 1

