# MOL2 file generated by ConQuest
# Please check atom types

@<TRIPOS>MOLECULE
GAZNEC
    52    53     2
SMALL
NO_CHARGES
****
Generated from CSD

@<TRIPOS>ATOM
      1 O1         2.8740    5.3615    2.2446 O.2       1 RES1    0.0000
      2 N1         1.9868    1.5656    5.2837 N.2       1 RES1    0.0000
      3 O2         1.9728    0.4963    4.6747 O.2       1 RES1    0.0000
      4 C1         1.7638    5.1464    4.3657 C.3       1 RES1    0.0000
      5 H1         2.3979    5.8428    4.6377 H         1 RES1    0.0000
      6 C2         2.0966    3.8621    5.1751 C.3       1 RES1    0.0000
      7 H2         3.0704    3.7582    5.1427 H         1 RES1    0.0000
      8 N2         1.5182    2.6256    4.5601 N.3       1 RES1    0.0000
      9 C3         1.3235    2.4690    3.0975 C.3       1 RES1    0.0000
     10 H3         2.1672    2.1274    2.7331 H         1 RES1    0.0000
     11 C4         1.0458    3.8244    2.3925 C.3       1 RES1    0.0000
     12 H4         1.2234    3.7064    1.4359 H         1 RES1    0.0000
     13 C5        -0.3775    4.3747    2.5400 C.3       1 RES1    0.0000
     14 H5        -0.4831    5.1325    1.9442 H         1 RES1    0.0000
     15 H6        -1.0074    3.6911    2.2611 H         1 RES1    0.0000
     16 C6        -0.7229    4.8122    3.9534 C.3       1 RES1    0.0000
     17 H7        -1.5688    5.2870    3.9445 H         1 RES1    0.0000
     18 H8        -0.8249    4.0284    4.5156 H         1 RES1    0.0000
     19 C7         0.3509    5.7113    4.5347 C.3       1 RES1    0.0000
     20 H9         0.1755    5.8419    5.4794 H         1 RES1    0.0000
     21 H10        0.3048    6.5781    4.1030 H         1 RES1    0.0000
     22 C8         2.0078    4.8456    2.9130 C.2       1 RES1    0.0000
     23 C9         0.2496    1.4566    2.7417 C.ar      1 RES1    0.0000
     24 C10        0.3628    0.7218    1.5544 C.ar      1 RES1    0.0000
     25 C11       -0.6718   -0.1395    1.2051 C.ar      1 RES1    0.0000
     26 H11       -0.6054   -0.6277    0.4159 H         1 RES1    0.0000
     27 C12       -1.7904   -0.2912    1.9934 C.ar      1 RES1    0.0000
     28 H12       -2.4734   -0.8663    1.7329 H         1 RES1    0.0000
     29 C13       -1.8868    0.4174    3.1678 C.ar      1 RES1    0.0000
     30 H13       -2.6321    0.3114    3.7135 H         1 RES1    0.0000
     31 C14       -0.8753    1.2884    3.5382 C.ar      1 RES1    0.0000
     32 H14       -0.9515    1.7675    4.3307 H         1 RES1    0.0000
     33 C15        1.7254    3.9847    6.6456 C.ar      1 RES1    0.0000
     34 C16        2.6062    4.6229    7.5273 C.ar      1 RES1    0.0000
     35 C17        2.2119    4.7265    8.8740 C.ar      1 RES1    0.0000
     36 H15        2.7817    5.1479    9.4767 H         1 RES1    0.0000
     37 C18        1.0221    4.2290    9.3272 C.ar      1 RES1    0.0000
     38 H16        0.7956    4.3115   10.2260 H         1 RES1    0.0000
     39 C19        0.5243    3.4921    7.1275 C.ar      1 RES1    0.0000
     40 H17       -0.0580    3.0682    6.5390 H         1 RES1    0.0000
     41 C20        0.1643    3.6102    8.4581 C.ar      1 RES1    0.0000
     42 H18       -0.6488    3.2737    8.7572 H         1 RES1    0.0000
     43 C21        1.5681    0.7992    0.6532 C.3       1 RES1    0.0000
     44 H19        1.5275    0.0938    0.0033 H         1 RES1    0.0000
     45 H20        2.3664    0.7054    1.1784 H         1 RES1    0.0000
     46 H21        1.5778    1.6477    0.2047 H         1 RES1    0.0000
     47 C22        3.9415    5.1665    7.1087 C.3       1 RES1    0.0000
     48 H22        4.4518    4.4708    6.6875 H         1 RES1    0.0000
     49 H23        4.4134    5.4868    7.8824 H         1 RES1    0.0000
     50 H24        3.8128    5.8889    6.4895 H         1 RES1    0.0000
     51 N3         1.7337    1.3379    4.9183 Du        2 SUP2    0.0000
     52 O3         2.3860    1.2287    5.9646 Du        2 SUP2    0.0000
@<TRIPOS>BOND
     1    1   22 2
     2    2    3 2
     3    4    5 1
     4    6    4 1
     5    7    6 1
     6    8    2 1
     7    9    8 1
     8   10    9 1
     9   11    9 1
    10   12   11 1
    11   13   11 1
    12   14   13 1
    13   15   13 1
    14   16   13 1
    15   17   16 1
    16   18   16 1
    17   19    4 1
    18   20   19 1
    19   21   19 1
    20   22    4 1
    21   23    9 1
    22   24   23 ar
    23   25   24 ar
    24   26   25 1
    25   27   25 ar
    26   28   27 1
    27   29   27 ar
    28   30   29 1
    29   31   23 ar
    30   32   31 1
    31   33    6 1
    32   34   33 ar
    33   35   34 ar
    34   36   35 1
    35   37   35 ar
    36   38   37 1
    37   39   33 ar
    38   40   39 1
    39   41   37 ar
    40   42   41 1
    41   43   24 1
    42   44   43 1
    43   45   43 1
    44   46   43 1
    45   47   34 1
    46   48   47 1
    47   49   47 1
    48   50   47 1
    49    6    8 1
    50   11   22 1
    51   16   19 1
    52   29   31 ar
    53   39   41 ar
@<TRIPOS>SUBSTRUCTURE
     1 RES1 1
     2 SUP2 51

@<TRIPOS>CRYSIN
   6.9909    8.0891   33.0085  90.0000  90.0000  90.0000  19 1

