# MOL2 file generated by ConQuest
# Please check atom types

@<TRIPOS>MOLECULE
GAZPII
    98   104     2
SMALL
NO_CHARGES
****
Generated from CSD

@<TRIPOS>ATOM
      1 N1         5.9284    2.1246    5.7089 N.pl3     1 RES1    0.0000
      2 O1         6.3800    2.6277    4.6884 O.2       1 RES1    0.0000
      3 O2         6.1418    2.5647    6.8331 O.2       1 RES1    0.0000
      4 C1         4.7268   -1.1163    4.2223 C.3       1 RES1    0.0000
      5 C2         5.2738    0.3459    4.2602 C.3       1 RES1    0.0000
      6 H1         6.2410    0.2772    4.1143 H         1 RES1    0.0000
      7 N2         5.1016    1.0127    5.5902 N.3       1 RES1    0.0000
      8 C3         5.0123    0.2684    6.8868 C.3       1 RES1    0.0000
      9 H2         5.9252    0.1950    7.2356 H         1 RES1    0.0000
     10 C4         4.4874   -1.1785    6.6936 C.3       1 RES1    0.0000
     11 H3         4.7609   -1.6890    7.4848 H         1 RES1    0.0000
     12 C5         2.9661   -1.3174    6.5762 C.3       1 RES1    0.0000
     13 H4         2.7300   -2.2579    6.6048 H         1 RES1    0.0000
     14 H5         2.5469   -0.8821    7.3353 H         1 RES1    0.0000
     15 C6         2.4317   -0.7117    5.3001 C.3       1 RES1    0.0000
     16 H6         2.5052    0.2549    5.3471 H         1 RES1    0.0000
     17 H7         1.4933   -0.9359    5.2052 H         1 RES1    0.0000
     18 C7         3.1935   -1.2146    4.0894 C.3       1 RES1    0.0000
     19 H8         2.9156   -0.7048    3.3129 H         1 RES1    0.0000
     20 H9         2.9530   -2.1412    3.9341 H         1 RES1    0.0000
     21 C8         5.1756   -1.8073    5.5024 C.3       1 RES1    0.0000
     22 H10        4.9564   -2.7508    5.4583 H         1 RES1    0.0000
     23 H11        6.1369   -1.7243    5.5983 H         1 RES1    0.0000
     24 C9         5.3600   -1.8218    3.0231 C.3       1 RES1    0.0000
     25 H12        6.3147   -1.7228    3.0599 H         1 RES1    0.0000
     26 H13        5.0295   -1.4326    2.2106 H         1 RES1    0.0000
     27 H14        5.1342   -2.7554    3.0445 H         1 RES1    0.0000
     28 C10        4.7381    1.2092    3.1251 C.ar      1 RES1    0.0000
     29 C11        3.5465    1.9178    3.1970 C.ar      1 RES1    0.0000
     30 H15        3.0506    1.9094    3.9840 H         1 RES1    0.0000
     31 C12        3.0901    2.6395    2.1003 C.ar      1 RES1    0.0000
     32 H16        2.2887    3.1078    2.1588 H         1 RES1    0.0000
     33 C13        3.8037    2.6664    0.9400 C.ar      1 RES1    0.0000
     34 H17        3.4829    3.1370    0.2051 H         1 RES1    0.0000
     35 C14        4.9938    1.9984    0.8649 C.ar      1 RES1    0.0000
     36 H18        5.4909    2.0291    0.0786 H         1 RES1    0.0000
     37 C15        5.4670    1.2729    1.9510 C.ar      1 RES1    0.0000
     38 H19        6.2801    0.8269    1.8885 H         1 RES1    0.0000
     39 C16        4.2029    1.0077    7.9296 C.ar      1 RES1    0.0000
     40 C17        3.2621    1.9716    7.6215 C.ar      1 RES1    0.0000
     41 H20        3.1272    2.2165    6.7352 H         1 RES1    0.0000
     42 C18        2.5182    2.5765    8.6200 C.ar      1 RES1    0.0000
     43 H21        1.8830    3.2184    8.3974 H         1 RES1    0.0000
     44 C19        2.7123    2.2341    9.9392 C.ar      1 RES1    0.0000
     45 H22        2.2119    2.6441   10.6060 H         1 RES1    0.0000
     46 C20        3.6472    1.2875   10.2630 C.ar      1 RES1    0.0000
     47 H23        3.7825    1.0541   11.1524 H         1 RES1    0.0000
     48 C21        4.3918    0.6756    9.2674 C.ar      1 RES1    0.0000
     49 H24        5.0262    0.0353    9.4960 H         1 RES1    0.0000
     50 N3         8.8727    1.0454    4.5262 N.pl3     2 RES2    0.0000
     51 O3         8.6269    0.5988    3.4103 O.2       2 RES2    0.0000
     52 O4         8.4784    0.5357    5.5678 O.2       2 RES2    0.0000
     53 C22       10.1916    4.4061    3.4767 C.3       2 RES2    0.0000
     54 C23        9.7040    2.9304    3.3199 C.3       2 RES2    0.0000
     55 H25        8.7766    2.9773    3.0043 H         2 RES2    0.0000
     56 N4         9.6737    2.1776    4.6153 N.3       2 RES2    0.0000
     57 C24        9.5473    2.8247    5.9556 C.3       2 RES2    0.0000
     58 H26        8.5894    2.8652    6.1600 H         2 RES2    0.0000
     59 C25       10.0624    4.2768    5.9614 C.3       2 RES2    0.0000
     60 H27        9.6608    4.7178    6.7390 H         2 RES2    0.0000
     61 C26       11.5733    4.4575    6.0828 C.3       2 RES2    0.0000
     62 H28       11.7698    5.3957    6.2290 H         2 RES2    0.0000
     63 H29       11.8911    3.9623    6.8540 H         2 RES2    0.0000
     64 C27       12.3151    3.9823    4.8486 C.3       2 RES2    0.0000
     65 H30       13.2467    4.2441    4.9119 H         2 RES2    0.0000
     66 H31       12.2779    3.0134    4.8045 H         2 RES2    0.0000
     67 C28       11.7134    4.5665    3.5863 C.3       2 RES2    0.0000
     68 H32       12.1271    4.1404    2.8183 H         2 RES2    0.0000
     69 H33       11.9292    5.5116    3.5488 H         2 RES2    0.0000
     70 C29        9.5313    4.9888    4.7269 C.3       2 RES2    0.0000
     71 H34        9.7240    5.9377    4.7873 H         2 RES2    0.0000
     72 H35        8.5687    4.8775    4.6723 H         2 RES2    0.0000
     73 C30        9.7050    5.1938    2.2522 C.3       2 RES2    0.0000
     74 H36        8.7559    5.0824    2.1569 H         2 RES2    0.0000
     75 H37       10.1461    4.8667    1.4648 H         2 RES2    0.0000
     76 H38        9.9083    6.1250    2.3697 H         2 RES2    0.0000
     77 C31       10.4797    2.1541    2.2612 C.ar      2 RES2    0.0000
     78 C32       11.5941    1.3950    2.5539 C.ar      2 RES2    0.0000
     79 H39       11.8939    1.3435    3.4318 H         2 RES2    0.0000
     80 C33       12.2763    0.7056    1.5593 C.ar      2 RES2    0.0000
     81 H40       13.0195    0.1927    1.7811 H         2 RES2    0.0000
     82 C34       11.8688    0.7731    0.2680 C.ar      2 RES2    0.0000
     83 H41       12.3275    0.3086   -0.3949 H         2 RES2    0.0000
     84 C35       10.7682    1.5362   -0.0533 C.ar      2 RES2    0.0000
     85 H42       10.4954    1.6023   -0.9394 H         2 RES2    0.0000
     86 C36       10.0601    2.2111    0.9425 C.ar      2 RES2    0.0000
     87 H43        9.3023    2.7009    0.7190 H         2 RES2    0.0000
     88 C37       10.1902    2.0056    7.0529 C.ar      2 RES2    0.0000
     89 C38       11.2954    1.2038    6.8686 C.ar      2 RES2    0.0000
     90 H44       11.6469    1.0933    6.0143 H         2 RES2    0.0000
     91 C39       11.8862    0.5635    7.9434 C.ar      2 RES2    0.0000
     92 H45       12.6331    0.0269    7.8069 H         2 RES2    0.0000
     93 C40       11.3804    0.7132    9.2042 C.ar      2 RES2    0.0000
     94 H46       11.7839    0.2848    9.9235 H         2 RES2    0.0000
     95 C41       10.2851    1.4925    9.3986 C.ar      2 RES2    0.0000
     96 H47        9.9440    1.6023   10.2571 H         2 RES2    0.0000
     97 C42        9.6725    2.1251    8.3307 C.ar      2 RES2    0.0000
     98 H48        8.9077    2.6349    8.4722 H         2 RES2    0.0000
@<TRIPOS>BOND
     1    1    2 2
     2    3    1 2
     3    4    5 1
     4    5    6 1
     5    7    1 1
     6    8    7 1
     7    9    8 1
     8   10    8 1
     9   11   10 1
    10   12   10 1
    11   13   12 1
    12   14   12 1
    13   15   12 1
    14   16   15 1
    15   17   15 1
    16   18    4 1
    17   19   18 1
    18   20   18 1
    19   21    4 1
    20   22   21 1
    21   23   21 1
    22   24    4 1
    23   25   24 1
    24   26   24 1
    25   27   24 1
    26   28    5 1
    27   29   28 ar
    28   30   29 1
    29   31   29 ar
    30   32   31 1
    31   33   31 ar
    32   34   33 1
    33   35   33 ar
    34   36   35 1
    35   37   28 ar
    36   38   37 1
    37   39    8 1
    38   40   39 ar
    39   41   40 1
    40   42   40 ar
    41   43   42 1
    42   44   42 ar
    43   45   44 1
    44   46   44 ar
    45   47   46 1
    46   48   39 ar
    47   49   48 1
    48   50   51 2
    49   52   50 2
    50   53   54 1
    51   54   55 1
    52   56   50 1
    53   57   56 1
    54   58   57 1
    55   59   57 1
    56   60   59 1
    57   61   59 1
    58   62   61 1
    59   63   61 1
    60   64   61 1
    61   65   64 1
    62   66   64 1
    63   67   53 1
    64   68   67 1
    65   69   67 1
    66   70   53 1
    67   71   70 1
    68   72   70 1
    69   73   53 1
    70   74   73 1
    71   75   73 1
    72   76   73 1
    73   77   54 1
    74   78   77 ar
    75   79   78 1
    76   80   78 ar
    77   81   80 1
    78   82   80 ar
    79   83   82 1
    80   84   82 ar
    81   85   84 1
    82   86   77 ar
    83   87   86 1
    84   88   57 1
    85   89   88 ar
    86   90   89 1
    87   91   89 ar
    88   92   91 1
    89   93   91 ar
    90   94   93 1
    91   95   93 ar
    92   96   95 1
    93   97   88 ar
    94   98   97 1
    95    5    7 1
    96   10   21 1
    97   15   18 1
    98   35   37 ar
    99   46   48 ar
   100   54   56 1
   101   59   70 1
   102   64   67 1
   103   84   86 ar
   104   95   97 ar
@<TRIPOS>SUBSTRUCTURE
     1 RES1 1
     2 RES2 50

@<TRIPOS>CRYSIN
  12.3866    7.6774   19.2324  90.0000  94.5360  90.0000   4 1

