# MOL2 file generated by ConQuest
# Please check atom types

@<TRIPOS>MOLECULE
GAZPEE
    96   102     2
SMALL
NO_CHARGES
****
Generated from CSD

@<TRIPOS>ATOM
      1 N1        12.1080    3.6329    0.8515 N.2       1 RES1    0.0000
      2 O1        12.7701    3.6131   -0.1872 O.2       1 RES1    0.0000
      3 C1         9.7325    6.0049    2.4231 C.3       1 RES1    0.0000
      4 C2        10.6863    4.7889    2.2680 C.3       1 RES1    0.0000
      5 H1        11.5010    5.0473    2.7044 H         1 RES1    0.0000
      6 N2        11.0888    4.5219    0.8528 N.3       1 RES1    0.0000
      7 C3        11.0021    5.4841   -0.2739 C.3       1 RES1    0.0000
      8 H2        11.8862    5.8446   -0.3743 H         1 RES1    0.0000
      9 C4        10.0702    6.6755    0.0334 C.3       1 RES1    0.0000
     10 H3        10.3534    7.4082   -0.5173 H         1 RES1    0.0000
     11 C5         8.5815    6.4326   -0.2646 C.3       1 RES1    0.0000
     12 H4         8.0926    7.2531   -0.1657 H         1 RES1    0.0000
     13 H5         8.4805    6.1380   -1.1716 H         1 RES1    0.0000
     14 C6         7.9781    5.3962    0.6579 C.3       1 RES1    0.0000
     15 H6         8.3421    4.5369    0.4362 H         1 RES1    0.0000
     16 H7         7.0290    5.3575    0.5220 H         1 RES1    0.0000
     17 C7         8.2635    5.7025    2.1132 C.3       1 RES1    0.0000
     18 H8         7.9902    4.9478    2.6376 H         1 RES1    0.0000
     19 H9         7.7264    6.4520    2.3826 H         1 RES1    0.0000
     20 C8        10.2424    7.0968    1.4851 C.3       1 RES1    0.0000
     21 H10       11.1706    7.2647    1.6639 H         1 RES1    0.0000
     22 H11        9.7576    7.9096    1.6484 H         1 RES1    0.0000
     23 C9        10.2326    3.5174    2.9618 C.ar      1 RES1    0.0000
     24 C10        9.4424    2.5624    2.3587 C.ar      1 RES1    0.0000
     25 H12        9.2007    2.6684    1.4362 H         1 RES1    0.0000
     26 C11        9.0114    1.4408    3.0679 C.ar      1 RES1    0.0000
     27 H13        8.4520    0.7844    2.6460 H         1 RES1    0.0000
     28 C12        9.3646    1.2676    4.3718 C.ar      1 RES1    0.0000
     29 H14        9.0560    0.4962    4.8534 H         1 RES1    0.0000
     30 C13       10.1618    2.1993    4.9845 C.ar      1 RES1    0.0000
     31 H15       10.4118    2.0843    5.9046 H         1 RES1    0.0000
     32 C14       10.5971    3.3119    4.2884 C.ar      1 RES1    0.0000
     33 H16       11.1496    3.9696    4.7199 H         1 RES1    0.0000
     34 C15       10.6706    4.8212   -1.5876 C.ar      1 RES1    0.0000
     35 C16        9.9980    3.6182   -1.6913 C.ar      1 RES1    0.0000
     36 H17        9.7826    3.1349   -0.8891 H         1 RES1    0.0000
     37 C17        9.6454    3.1039   -2.9201 C.ar      1 RES1    0.0000
     38 H18        9.1504    2.2794   -2.9797 H         1 RES1    0.0000
     39 C18        9.9747    3.7887   -4.0763 C.ar      1 RES1    0.0000
     40 H19        9.7188    3.4205   -4.9249 H         1 RES1    0.0000
     41 C19       10.6672    4.9685   -3.9869 C.ar      1 RES1    0.0000
     42 H20       10.9061    5.4324   -4.7938 H         1 RES1    0.0000
     43 C20       11.0131    5.4996   -2.7497 C.ar      1 RES1    0.0000
     44 H21       11.5111    6.3189   -2.6961 H         1 RES1    0.0000
     45 C21        9.8247    6.4985    3.8617 C.3       1 RES1    0.0000
     46 H22        9.2285    7.2415    3.9845 H         1 RES1    0.0000
     47 H23       10.7222    6.7711    4.0667 H         1 RES1    0.0000
     48 H24        9.5676    5.7813    4.4446 H         1 RES1    0.0000
     49 N3         9.2556   -0.7702   -5.0119 N.2       2 RES2    0.0000
     50 O2         9.6125    0.0598   -4.1776 O.2       2 RES2    0.0000
     51 C22        7.8489   -4.1934   -4.9606 C.3       2 RES2    0.0000
     52 C23        8.6016   -2.9333   -5.4600 C.3       2 RES2    0.0000
     53 H25        9.5307   -3.1711   -5.4302 H         2 RES2    0.0000
     54 N4         8.4744   -1.7619   -4.5355 N.3       2 RES2    0.0000
     55 C24        8.2989   -1.8853   -3.0752 C.3       2 RES2    0.0000
     56 H26        9.1832   -1.9112   -2.7032 H         2 RES2    0.0000
     57 C25        7.6114   -3.2111   -2.6746 C.3       2 RES2    0.0000
     58 H27        7.8210   -3.3778   -1.7533 H         2 RES2    0.0000
     59 C26        6.0935   -3.2021   -2.7974 C.3       2 RES2    0.0000
     60 H28        5.7332   -2.4539   -2.3158 H         2 RES2    0.0000
     61 H29        5.7306   -4.0045   -2.4136 H         2 RES2    0.0000
     62 C27        5.6320   -3.1026   -4.2395 C.3       2 RES2    0.0000
     63 H30        5.8507   -2.2265   -4.5661 H         2 RES2    0.0000
     64 H31        4.6787   -3.2034   -4.2980 H         2 RES2    0.0000
     65 C28        6.3119   -4.1480   -5.1168 C.3       2 RES2    0.0000
     66 H32        5.9328   -5.0112   -4.9344 H         2 RES2    0.0000
     67 H33        6.1281   -3.9309   -6.0333 H         2 RES2    0.0000
     68 C29        8.1961   -4.3521   -3.4827 C.3       2 RES2    0.0000
     69 H34        7.8460   -5.1869   -3.1621 H         2 RES2    0.0000
     70 H35        9.1514   -4.3715   -3.3814 H         2 RES2    0.0000
     71 C30        8.3503   -2.5069   -6.8927 C.ar      2 RES2    0.0000
     72 C31        7.1693   -1.9112   -7.3110 C.ar      2 RES2    0.0000
     73 H36        6.5043   -1.7225   -6.6448 H         2 RES2    0.0000
     74 C32        6.9749   -1.5584   -8.6388 C.ar      2 RES2    0.0000
     75 H37        6.1286   -1.1681   -8.8700 H         2 RES2    0.0000
     76 C33        7.9622   -1.7781   -9.5637 C.ar      2 RES2    0.0000
     77 H38        7.7528   -1.5313  -10.4672 H         2 RES2    0.0000
     78 C34        9.1390   -2.3441   -9.1787 C.ar      2 RES2    0.0000
     79 H39        9.8240   -2.4771   -9.8390 H         2 RES2    0.0000
     80 C35        9.3424   -2.7085   -7.8498 C.ar      2 RES2    0.0000
     81 H40       10.1751   -3.1142   -7.5995 H         2 RES2    0.0000
     82 C36        7.6359   -0.6745   -2.4565 C.ar      2 RES2    0.0000
     83 C37        6.8225    0.2042   -3.1585 C.ar      2 RES2    0.0000
     84 H41        6.6565    0.0465   -4.0906 H         2 RES2    0.0000
     85 C38        6.2440    1.3051   -2.5256 C.ar      2 RES2    0.0000
     86 H42        5.7142    1.9215   -3.0357 H         2 RES2    0.0000
     87 C39        6.4543    1.5209   -1.1967 C.ar      2 RES2    0.0000
     88 H43        6.0175    2.2678   -0.7795 H         2 RES2    0.0000
     89 C40        7.2457    0.6564   -0.4827 C.ar      2 RES2    0.0000
     90 H44        7.3884    0.8270    0.4517 H         2 RES2    0.0000
     91 C41        7.8346   -0.4329   -1.1061 C.ar      2 RES2    0.0000
     92 H45        8.3903   -1.0299   -0.6019 H         2 RES2    0.0000
     93 C42        8.3900   -5.3820   -5.7497 C.3       2 RES2    0.0000
     94 H46        9.3408   -5.4453   -5.6388 H         2 RES2    0.0000
     95 H47        8.1857   -5.2386   -6.6770 H         2 RES2    0.0000
     96 H48        7.9774   -6.1961   -5.4541 H         2 RES2    0.0000
@<TRIPOS>BOND
     1    1    2 2
     2    3    4 1
     3    4    5 1
     4    6    1 1
     5    7    6 1
     6    8    7 1
     7    9    7 1
     8   10    9 1
     9   11    9 1
    10   12   11 1
    11   13   11 1
    12   14   11 1
    13   15   14 1
    14   16   14 1
    15   17    3 1
    16   18   17 1
    17   19   17 1
    18   20    3 1
    19   21   20 1
    20   22   20 1
    21   23    4 1
    22   24   23 ar
    23   25   24 1
    24   26   24 ar
    25   27   26 1
    26   28   26 ar
    27   29   28 1
    28   30   28 ar
    29   31   30 1
    30   32   23 ar
    31   33   32 1
    32   34    7 1
    33   35   34 ar
    34   36   35 1
    35   37   35 ar
    36   38   37 1
    37   39   37 ar
    38   40   39 1
    39   41   39 ar
    40   42   41 1
    41   43   34 ar
    42   44   43 1
    43   45    3 1
    44   46   45 1
    45   47   45 1
    46   48   45 1
    47   49   50 2
    48   51   52 1
    49   52   53 1
    50   54   49 1
    51   55   54 1
    52   56   55 1
    53   57   55 1
    54   58   57 1
    55   59   57 1
    56   60   59 1
    57   61   59 1
    58   62   59 1
    59   63   62 1
    60   64   62 1
    61   65   51 1
    62   66   65 1
    63   67   65 1
    64   68   51 1
    65   69   68 1
    66   70   68 1
    67   71   52 1
    68   72   71 ar
    69   73   72 1
    70   74   72 ar
    71   75   74 1
    72   76   74 ar
    73   77   76 1
    74   78   76 ar
    75   79   78 1
    76   80   71 ar
    77   81   80 1
    78   82   55 1
    79   83   82 ar
    80   84   83 1
    81   85   83 ar
    82   86   85 1
    83   87   85 ar
    84   88   87 1
    85   89   87 ar
    86   90   89 1
    87   91   82 ar
    88   92   91 1
    89   93   51 1
    90   94   93 1
    91   95   93 1
    92   96   93 1
    93    4    6 1
    94    9   20 1
    95   14   17 1
    96   30   32 ar
    97   41   43 ar
    98   52   54 1
    99   57   68 1
   100   62   65 1
   101   78   80 ar
   102   89   91 ar
@<TRIPOS>SUBSTRUCTURE
     1 RES1 1
     2 RES2 49

@<TRIPOS>CRYSIN
  11.4830   12.9220   11.9960  90.0000  96.5000  90.0000   4 1

