# MOL2 file generated by ConQuest
# Please check atom types

@<TRIPOS>MOLECULE
GAZXOU
    33    33     1
SMALL
NO_CHARGES
****
Generated from CSD

@<TRIPOS>ATOM
      1 N1         5.5112    0.7978    7.5132 N.3       1 RES1    0.0000
      2 C1         6.7514    1.4605    7.0035 C.3       1 RES1    0.0000
      3 N2         6.2368    2.7085    6.4545 N.2       1 RES1    0.0000
      4 C2         4.9568    2.8023    6.6205 C.2       1 RES1    0.0000
      5 C3         4.3067    1.6231    7.3087 C.3       1 RES1    0.0000
      6 C4         7.3368    0.5861    5.9002 C.3       1 RES1    0.0000
      7 C5         7.7003    1.7104    8.1442 C.3       1 RES1    0.0000
      8 C6         3.7050    1.9798    8.6709 C.3       1 RES1    0.0000
      9 C7         3.3261    0.8467    6.4384 C.3       1 RES1    0.0000
     10 C8         4.2535    4.0138    6.1814 C.2       1 RES1    0.0000
     11 N3         2.9552    3.9561    6.3420 N.2       1 RES1    0.0000
     12 C9         5.0076    5.1750    5.6279 C.3       1 RES1    0.0000
     13 C10        0.9511    5.0605    6.2046 C.3       1 RES1    0.0000
     14 O1         5.5206   -0.3051    8.1166 O.2       1 RES1    0.0000
     15 O2         2.3840    5.1481    5.9172 O.3       1 RES1    0.0000
     16 H1         6.7291    0.4270    4.9719 H         1 RES1    0.0000
     17 H2         7.6502   -0.4079    6.3019 H         1 RES1    0.0000
     18 H3         7.9541    0.8976    5.5967 H         1 RES1    0.0000
     19 H4         7.2761    2.3588    9.0154 H         1 RES1    0.0000
     20 H5         8.3271    2.1720    7.9443 H         1 RES1    0.0000
     21 H6         8.0222    0.8277    8.6048 H         1 RES1    0.0000
     22 H7         3.6397    1.2533    9.1404 H         1 RES1    0.0000
     23 H8         4.4802    2.5494    9.3189 H         1 RES1    0.0000
     24 H9         3.0545    2.6034    8.5334 H         1 RES1    0.0000
     25 H10        2.6109    1.4105    6.1948 H         1 RES1    0.0000
     26 H11        3.6290    0.7399    5.4628 H         1 RES1    0.0000
     27 H12        3.2211   -0.0167    6.8731 H         1 RES1    0.0000
     28 H13        4.5960    5.4051    4.6773 H         1 RES1    0.0000
     29 H14        4.7469    6.1034    6.2037 H         1 RES1    0.0000
     30 H15        5.7051    5.1311    5.7752 H         1 RES1    0.0000
     31 H16        0.6208    6.0605    5.9002 H         1 RES1    0.0000
     32 H17        0.9358    5.0455    7.2213 H         1 RES1    0.0000
     33 H18        0.6597    4.5069    5.4450 H         1 RES1    0.0000
@<TRIPOS>BOND
     1    1    2 1
     2    2    3 1
     3    3    4 2
     4    4    5 1
     5    5    1 1
     6    6    2 1
     7    7    2 1
     8    8    5 1
     9    9    5 1
    10   10    4 1
    11   11   10 2
    12   12   10 1
    13   13   15 1
    14   14    1 1
    15   15   11 1
    16   16    6 1
    17   17    6 1
    18   18    6 1
    19   19    7 1
    20   20    7 1
    21   21    7 1
    22   22    8 1
    23   23    8 1
    24   24    8 1
    25   25    9 1
    26   26    9 1
    27   27    9 1
    28   28   12 1
    29   29   12 1
    30   30   12 1
    31   31   13 1
    32   32   13 1
    33   33   13 1
@<TRIPOS>SUBSTRUCTURE
     1 RES1 1

@<TRIPOS>CRYSIN
   8.0950    8.7730    9.6260  84.8300  68.1800  69.2700   2 1

