# MOL2 file generated by ConQuest
# Please check atom types

@<TRIPOS>MOLECULE
GAZXIO
    17    17     1
SMALL
NO_CHARGES
****
Generated from CSD

@<TRIPOS>ATOM
      1 N1         2.1740    2.5114    4.3479 N.3       1 RES1    0.0000
      2 C1         3.6309    2.4767    4.4742 C.3       1 RES1    0.0000
      3 N2         4.1122    2.6391    3.1056 N.2       1 RES1    0.0000
      4 C2         3.1291    2.3945    2.2874 C.2       1 RES1    0.0000
      5 C3         1.7510    2.4441    2.9236 C.3       1 RES1    0.0000
      6 C4         4.1013    3.7265    5.1553 C.3       1 RES1    0.0000
      7 C5         4.1013    1.2111    5.2089 C.3       1 RES1    0.0000
      8 C6         0.8885    3.7344    2.5188 C.3       1 RES1    0.0000
      9 C7         0.9262    1.2082    2.6815 C.3       1 RES1    0.0000
     10 C8         3.3423    2.4490    0.8075 C.2       1 RES1    0.0000
     11 N3         2.3331    2.5599    0.0942 N.2       1 RES1    0.0000
     12 C9         4.8239    2.0796    0.4219 C.3       1 RES1    0.0000
     13 C10        2.3187    2.4431   -1.3922 C.3       1 RES1    0.0000
     14 C11        3.4115    3.2165   -2.1032 C.3       1 RES1    0.0000
     15 C12        3.0777    1.2230   -1.9083 C.3       1 RES1    0.0000
     16 C13        0.9708    3.1343   -1.7049 C.3       1 RES1    0.0000
     17 O1         1.3808    2.6065    5.3352 O.2       1 RES1    0.0000
@<TRIPOS>BOND
     1    1    2 1
     2    2    3 1
     3    3    4 2
     4    4    5 1
     5    5    1 1
     6    6    2 1
     7    7    2 1
     8    8    5 1
     9    9    5 1
    10   10    4 1
    11   11   10 2
    12   12   10 1
    13   13   11 1
    14   14   13 1
    15   15   13 1
    16   16   13 1
    17   17    1 1
@<TRIPOS>SUBSTRUCTURE
     1 RES1 1

@<TRIPOS>CRYSIN
   6.8560    9.9030   21.4180  90.0000  90.0000  90.0000  33 3

