# MOL2 file generated by ConQuest
# Please check atom types

@<TRIPOS>MOLECULE
GAZXAG
    53    54     1
SMALL
NO_CHARGES
****
Generated from CSD

@<TRIPOS>ATOM
      1 C1         1.5311    3.8928    0.8551 C.3       1 RES1    0.0000
      2 C2         0.3656    4.5465    1.6435 C.3       1 RES1    0.0000
      3 H1         0.7131    4.7386    2.5113 H         1 RES1    0.0000
      4 C3        -0.2869    5.5651    0.7483 C.3       1 RES1    0.0000
      5 H2         0.3787    6.2785    0.2050 H         1 RES1    0.0000
      6 C4        -0.6606    5.0275   -0.5843 C.3       1 RES1    0.0000
      7 H3        -1.4164    4.5153   -0.2306 H         1 RES1    0.0000
      8 C5         0.5705    4.3797   -1.2292 C.3       1 RES1    0.0000
      9 H4         1.3213    5.1735   -1.4863 H         1 RES1    0.0000
     10 H5         0.2295    3.9583   -1.9220 H         1 RES1    0.0000
     11 O1         1.1377    3.3879   -0.3716 O.3       1 RES1    0.0000
     12 C6         2.1163    2.7014    1.6486 C.3       1 RES1    0.0000
     13 H6         2.7442    2.2904    0.9482 H         1 RES1    0.0000
     14 H7         1.4360    2.0491    1.8109 H         1 RES1    0.0000
     15 O2         2.6278    3.1899    2.8599 O.3       1 RES1    0.0000
     16 C7         2.6196    2.3842    3.9157 C.2       1 RES1    0.0000
     17 C8         3.2983    3.0022    5.0970 C.3       1 RES1    0.0000
     18 H8         3.0819    2.4289    5.9871 H         1 RES1    0.0000
     19 H9         2.8442    3.9791    5.1773 H         1 RES1    0.0000
     20 H10        4.3687    3.1109    4.9911 H         1 RES1    0.0000
     21 O3         2.1442    1.3075    3.8858 O.2       1 RES1    0.0000
     22 O4        -0.5918    3.4892    1.9322 O.3       1 RES1    0.0000
     23 C9        -0.7951    3.1869    3.2519 C.2       1 RES1    0.0000
     24 C10       -1.7196    2.0194    3.3715 C.3       1 RES1    0.0000
     25 H11       -1.8983    1.6158    4.3573 H         1 RES1    0.0000
     26 H12       -1.2344    1.2733    2.7599 H         1 RES1    0.0000
     27 H13       -2.6606    2.2978    2.9214 H         1 RES1    0.0000
     28 O5        -0.3311    3.8138    4.1352 O.2       1 RES1    0.0000
     29 N1        -1.5491    6.0551    1.5256 N.pl3     1 RES1    0.0000
     30 O6        -2.6393    5.7319    1.0532 O.2       1 RES1    0.0000
     31 O7        -1.3016    6.7208    2.4994 O.2       1 RES1    0.0000
     32 O8        -1.0328    6.1474   -1.4257 O.3       1 RES1    0.0000
     33 C11       -2.0999    6.0149   -2.2337 C.2       1 RES1    0.0000
     34 C12       -2.3803    7.2777   -2.9726 C.3       1 RES1    0.0000
     35 H14       -3.2475    7.1482   -3.6030 H         1 RES1    0.0000
     36 H15       -1.5360    7.5696   -3.5782 H         1 RES1    0.0000
     37 H16       -2.5803    8.0432   -2.2380 H         1 RES1    0.0000
     38 O9        -2.6917    4.9769   -2.3260 O.2       1 RES1    0.0000
     39 O10        2.4606    4.9799    0.7560 O.3       1 RES1    0.0000
     40 C13        3.7081    4.6359    0.1358 C.3       1 RES1    0.0000
     41 H17        4.0671    4.0328    0.9311 H         1 RES1    0.0000
     42 H18        3.5999    4.4736   -0.7602 H         1 RES1    0.0000
     43 C14        4.6195    5.8555    0.2358 C.ar      1 RES1    0.0000
     44 C15        5.7015    5.8377    1.0951 C.ar      1 RES1    0.0000
     45 H19        5.9703    5.1109    1.6144 H         1 RES1    0.0000
     46 C16        6.5424    6.9471    1.1139 C.ar      1 RES1    0.0000
     47 H20        7.1506    6.7818    1.7255 H         1 RES1    0.0000
     48 C17        6.3359    8.0164    0.3639 C.ar      1 RES1    0.0000
     49 H21        6.9080    8.7610    0.5552 H         1 RES1    0.0000
     50 C18        5.2785    8.0581   -0.4655 C.ar      1 RES1    0.0000
     51 H22        5.2064    8.8548   -1.4180 H         1 RES1    0.0000
     52 C19        4.3950    6.9605   -0.5493 C.ar      1 RES1    0.0000
     53 H23        3.7786    7.0737   -1.3667 H         1 RES1    0.0000
@<TRIPOS>BOND
     1    1    2 1
     2    2    3 1
     3    4    2 1
     4    5    4 1
     5    6    4 1
     6    7    6 1
     7    8    6 1
     8    9    8 1
     9   10    8 1
    10   11    1 1
    11   12    1 1
    12   13   12 1
    13   14   12 1
    14   15   12 1
    15   16   15 1
    16   17   16 1
    17   18   17 1
    18   19   17 1
    19   20   17 1
    20   21   16 2
    21   22    2 1
    22   23   22 1
    23   24   23 1
    24   25   24 1
    25   26   24 1
    26   27   24 1
    27   28   23 2
    28   29    4 1
    29   30   29 2
    30   31   29 2
    31   32    6 1
    32   33   32 1
    33   34   33 1
    34   35   34 1
    35   36   34 1
    36   37   34 1
    37   38   33 2
    38   39    1 1
    39   40   39 1
    40   41   40 1
    41   42   40 1
    42   43   40 1
    43   44   43 ar
    44   45   44 1
    45   46   44 ar
    46   47   46 1
    47   48   46 ar
    48   49   48 1
    49   50   48 ar
    50   51   50 1
    51   52   43 ar
    52   53   52 1
    53    8   11 1
    54   50   52 ar
@<TRIPOS>SUBSTRUCTURE
     1 RES1 1

@<TRIPOS>CRYSIN
  16.3930   14.8920    8.5420  90.0000  90.0000  90.0000  19 1

