# MOL2 file generated by ConQuest
# Please check atom types

@<TRIPOS>MOLECULE
GAZXEK
    35    36     1
SMALL
NO_CHARGES
****
Generated from CSD

@<TRIPOS>ATOM
      1 O1        12.0024    2.2908    0.0642 O.3       1 RES1    0.0000
      2 C1        13.1932    2.9071    0.5718 C.3       1 RES1    0.0000
      3 C2        14.4456    2.1370    0.1768 C.3       1 RES1    0.0000
      4 O2        15.5096    2.9163    0.6920 O.3       1 RES1    0.0000
      5 C3        14.4973    1.9867   -1.3540 C.3       1 RES1    0.0000
      6 C4        15.0143    3.2342   -2.0562 C.3       1 RES1    0.0000
      7 N1        15.4896    0.8711   -1.7013 N.pl3     1 RES1    0.0000
      8 O3        15.5596    0.5406   -2.8836 O.2       1 RES1    0.0000
      9 O4        16.1767    0.3845   -0.8217 O.2       1 RES1    0.0000
     10 C5        13.1381    1.4748   -1.8927 C.3       1 RES1    0.0000
     11 O5        12.9147    0.1343   -1.4533 O.3       1 RES1    0.0000
     12 C6        11.9758    2.2977   -1.3649 C.3       1 RES1    0.0000
     13 C7        10.5916    1.8501   -1.7992 C.3       1 RES1    0.0000
     14 O6         9.8478    3.0632   -1.7827 O.3       1 RES1    0.0000
     15 C8        10.7316    4.1248   -2.1026 C.3       1 RES1    0.0000
     16 C9        10.6466    4.5047   -3.5629 C.3       1 RES1    0.0000
     17 C10       10.4498    5.2679   -1.1582 C.3       1 RES1    0.0000
     18 O7        12.0558    3.6061   -1.8698 O.3       1 RES1    0.0000
     19 H1        13.2249    3.8563    0.2226 H         1 RES1    0.0000
     20 H2        13.0914    2.9266    1.5518 H         1 RES1    0.0000
     21 H3        14.4423    1.2395    0.5724 H         1 RES1    0.0000
     22 H4        16.2100    2.4102    0.8395 H         1 RES1    0.0000
     23 H5        14.4256    4.0284   -1.8380 H         1 RES1    0.0000
     24 H6        15.7097    3.1332   -2.9638 H         1 RES1    0.0000
     25 H7        15.8932    3.4201   -1.7808 H         1 RES1    0.0000
     26 H8        13.1248    1.5035   -2.9065 H         1 RES1    0.0000
     27 H9        13.0414   -0.3673   -2.1179 H         1 RES1    0.0000
     28 H10       10.1730    1.2854   -1.1957 H         1 RES1    0.0000
     29 H11       10.6232    1.4920   -2.6712 H         1 RES1    0.0000
     30 H12        9.7894    4.9695   -3.6761 H         1 RES1    0.0000
     31 H13       10.6066    3.7071   -4.1404 H         1 RES1    0.0000
     32 H14       11.3404    5.1187   -3.7142 H         1 RES1    0.0000
     33 H15       11.1402    5.9680   -1.2593 H         1 RES1    0.0000
     34 H16       10.5065    4.8892   -0.2226 H         1 RES1    0.0000
     35 H17        9.5726    5.6008   -1.3165 H         1 RES1    0.0000
@<TRIPOS>BOND
     1    1    2 1
     2    2    3 1
     3    3    4 1
     4    4   22 1
     5    5    3 1
     6    6    5 1
     7    7    5 1
     8    8    7 2
     9    9    7 2
    10   10    5 1
    11   11   10 1
    12   12    1 1
    13   13   12 1
    14   14   13 1
    15   15   14 1
    16   16   15 1
    17   17   15 1
    18   18   12 1
    19   19    2 1
    20   20    2 1
    21   21    3 1
    22   23    6 1
    23   24    6 1
    24   25    6 1
    25   26   10 1
    26   27   11 1
    27   28   13 1
    28   29   13 1
    29   30   16 1
    30   31   16 1
    31   32   16 1
    32   33   17 1
    33   34   17 1
    34   35   17 1
    35   10   12 1
    36   15   18 1
@<TRIPOS>SUBSTRUCTURE
     1 RES1 1

@<TRIPOS>CRYSIN
  16.6770   11.4770    6.3600  90.0000  90.0000  90.0000  19 1

