# MOL2 file generated by ConQuest
# Please check atom types

@<TRIPOS>MOLECULE
GEBXOC
    44    44     2
SMALL
NO_CHARGES
****
Generated from CSD

@<TRIPOS>ATOM
      1 O1        -1.8996    0.9265    0.4555 O.3       1 RES1    0.0000
      2 O2        -1.9609    0.4960    3.0487 O.2       1 RES1    0.0000
      3 O3         1.8987    2.9382    4.9932 O.3       1 RES1    0.0000
      4 O4         3.0319    3.6935    3.2335 O.2       1 RES1    0.0000
      5 N1        -0.9474    1.5238    1.2616 N.am      1 RES1    0.0000
      6 C1        -1.0372    1.2056    2.6058 C.2       1 RES1    0.0000
      7 C2         0.0039    1.7658    3.4108 C.2       1 RES1    0.0000
      8 C3         1.0084    2.5085    2.8514 C.2       1 RES1    0.0000
      9 C4         2.0839    3.1046    3.7045 C.2       1 RES1    0.0000
     10 C5         2.8815    3.5036    5.8595 C.3       1 RES1    0.0000
     11 C6         1.0393    2.7540    1.4724 C.2       1 RES1    0.0000
     12 C7         0.0534    2.2391    0.6692 C.2       1 RES1    0.0000
     13 C8        -0.0175    2.4285   -0.8108 C.3       1 RES1    0.0000
     14 O5         7.8144    3.0864    2.0364 O.3       2 RES2    0.0000
     15 O6         7.8918    3.5933   -0.5571 O.2       2 RES2    0.0000
     16 O7         3.8688    1.5137   -2.5189 O.3       2 RES2    0.0000
     17 O8         2.8585    0.4572   -0.8387 O.2       2 RES2    0.0000
     18 N2         6.8710    2.5392    1.2051 N.am      2 RES2    0.0000
     19 C9         6.9502    2.9035   -0.1326 C.2       2 RES2    0.0000
     20 C10        5.8941    2.3897   -0.9429 C.2       2 RES2    0.0000
     21 C11        4.8753    1.6607   -0.4070 C.2       2 RES2    0.0000
     22 C12        3.7520    1.1337   -1.2487 C.2       2 RES2    0.0000
     23 C13        2.8562    1.0271   -3.4252 C.3       2 RES2    0.0000
     24 C14        4.8452    1.3635    0.9701 C.2       2 RES2    0.0000
     25 C15        5.8504    1.8243    1.7833 C.2       2 RES2    0.0000
     26 C16        5.9128    1.5977    3.2483 C.3       2 RES2    0.0000
     27 H1        -2.5222    1.4475    0.3351 H         1 RES1    0.0000
     28 H2        -0.0023    1.6232    4.3297 H         1 RES1    0.0000
     29 H3         2.8838    4.4588    5.7604 H         1 RES1    0.0000
     30 H4         3.7476    3.1563    5.6325 H         1 RES1    0.0000
     31 H5         2.6742    3.2771    6.7694 H         1 RES1    0.0000
     32 H6         1.7252    3.2637    1.1045 H         1 RES1    0.0000
     33 H7         0.0299    1.5739   -1.2451 H         1 RES1    0.0000
     34 H8         0.7164    2.9758   -1.0991 H         1 RES1    0.0000
     35 H9        -0.8453    2.8574   -1.0396 H         1 RES1    0.0000
     36 H10        8.3912    2.5279    2.2000 H         2 RES2    0.0000
     37 H11        5.9013    2.5561   -1.8577 H         2 RES2    0.0000
     38 H12        2.0062    1.0162   -2.9802 H         2 RES2    0.0000
     39 H13        3.0819    0.1377   -3.7081 H         2 RES2    0.0000
     40 H14        2.8078    1.6038   -4.1910 H         2 RES2    0.0000
     41 H15        4.1484    0.8595    1.3261 H         2 RES2    0.0000
     42 H16        6.7305    1.1438    3.4667 H         2 RES2    0.0000
     43 H17        5.1642    1.0610    3.5207 H         2 RES2    0.0000
     44 H18        5.8828    2.4423    3.7045 H         2 RES2    0.0000
@<TRIPOS>BOND
     1    1    5 1
     2    2    6 2
     3    3    9 1
     4    4    9 2
     5    5    6 1
     6    6    7 1
     7    7    8 2
     8    8    9 1
     9   10    3 1
    10   11    8 1
    11   12    5 1
    12   13   12 1
    13   14   18 1
    14   15   19 2
    15   16   22 1
    16   17   22 2
    17   18   19 1
    18   19   20 1
    19   20   21 2
    20   21   22 1
    21   23   16 1
    22   24   21 1
    23   25   18 1
    24   26   25 1
    25   27    1 1
    26   28    7 1
    27   29   10 1
    28   30   10 1
    29   31   10 1
    30   32   11 1
    31   33   13 1
    32   34   13 1
    33   35   13 1
    34   36   14 1
    35   37   20 1
    36   38   23 1
    37   39   23 1
    38   40   23 1
    39   41   24 1
    40   42   26 1
    41   43   26 1
    42   44   26 1
    43   11   12 2
    44   24   25 2
@<TRIPOS>SUBSTRUCTURE
     1 RES1 1
     2 RES2 14

@<TRIPOS>CRYSIN
  23.0338    4.0388   18.0181  90.0000  90.0000  90.0000  33 1

