# MOL2 file generated by ConQuest
# Please check atom types

@<TRIPOS>MOLECULE
GECCUM
    72    76     2
SMALL
NO_CHARGES
****
Generated from CSD

@<TRIPOS>ATOM
      1 C1        -4.9404   13.2835    1.7136 C.3       1 RES1    0.0000
      2 C2        -3.1595   11.7337    2.7429 C.3       1 RES1    0.0000
      3 C3        -2.4876   13.9543    1.6843 C.3       1 RES1    0.0000
      4 C4        -4.2173   11.6870    8.3748 C.3       2 RES2    0.0000
      5 C5        -6.6789   11.0584    8.4177 C.3       2 RES2    0.0000
      6 C6        -3.6060   10.4621    7.7101 C.3       2 RES2    0.0000
      7 C7        -5.9827   13.2746    7.3572 C.3       2 RES2    0.0000
      8 C8        -5.5730   14.5084    2.3608 C.3       1 RES1    0.0000
      9 C9        -9.4205   12.4380    6.4644 C.ar      2 RES2    0.0000
     10 C10       -5.5810   11.8261    7.6691 C.3       2 RES2    0.0000
     11 C11       -7.0754   13.4448    6.2753 C.3       2 RES2    0.0000
     12 C12        0.2960   12.5926    3.6396 C.ar      1 RES1    0.0000
     13 C13       -3.0807   13.6484    4.8756 C.2       1 RES1    0.0000
     14 C14        1.5850   12.6037    3.1152 C.ar      1 RES1    0.0000
     15 C15      -10.7133   12.4369    6.9712 C.ar      2 RES2    0.0000
     16 C16       -6.0875   11.3789    5.2011 C.2       2 RES2    0.0000
     17 C17       -6.9105   12.4346    5.1680 C.2       2 RES2    0.0000
     18 C18       -3.9100   13.8831    3.7118 C.2       1 RES1    0.0000
     19 C19       -2.2438   12.6149    4.9087 C.2       1 RES1    0.0000
     20 C20       -3.5814   13.1667    2.4271 C.3       1 RES1    0.0000
     21 C21       -5.2617   11.1308    6.3689 C.2       2 RES2    0.0000
     22 C22      -10.1834   14.3916    8.2696 C.ar      2 RES2    0.0000
     23 C23        1.0033   10.7481    1.7116 C.ar      1 RES1    0.0000
     24 C24       -0.6376   11.6659    3.2205 C.ar      1 RES1    0.0000
     25 C25       -0.2665   10.7436    2.2477 C.ar      1 RES1    0.0000
     26 C26      -11.0649   13.4103    7.8699 C.ar      2 RES2    0.0000
     27 C27       -8.5036   13.4014    6.8406 C.ar      2 RES2    0.0000
     28 C28        1.9095   11.6714    2.1658 C.ar      1 RES1    0.0000
     29 C29       -8.9051   14.3827    7.7432 C.ar      2 RES2    0.0000
     30 C30       -2.0556   11.6002    3.8073 C.3       1 RES1    0.0000
     31 N1        -4.9496   14.6341    3.6962 N.2       1 RES1    0.0000
     32 N2        -4.2239   10.3742    6.3728 N.2       2 RES2    0.0000
     33 N3       -12.4332   13.4059    8.4138 N.pl3     2 RES2    0.0000
     34 N4         3.2775   11.6692    1.6141 N.pl3     1 RES1    0.0000
     35 O1         4.0775   12.4769    2.0411 O.2       1 RES1    0.0000
     36 O2       -13.2035   12.5314    8.0415 O.2       2 RES2    0.0000
     37 O3        -2.1274   10.2719    4.3746 O.3       1 RES1    0.0000
     38 O4        -6.9611   14.7720    5.7353 O.3       2 RES2    0.0000
     39 O5       -12.7432   14.2681    9.2268 O.2       2 RES2    0.0000
     40 O6         3.5462   10.8471    0.7388 O.2       1 RES1    0.0000
     41 H1        -4.8251   13.4137    0.7603 H         1 RES1    0.0000
     42 H2        -5.4815   12.4914    1.8617 H         1 RES1    0.0000
     43 H3        -2.8504   11.3166    1.9241 H         1 RES1    0.0000
     44 H4        -3.9404   11.2431    3.0450 H         1 RES1    0.0000
     45 H5        -1.6541   13.8631    2.1522 H         1 RES1    0.0000
     46 H6        -2.7332   14.8822    1.6453 H         1 RES1    0.0000
     47 H7        -2.3948   13.6106    0.7934 H         1 RES1    0.0000
     48 H8        -3.6678   12.4736    8.2325 H         2 RES2    0.0000
     49 H9        -4.3301   11.5480    9.3281 H         2 RES2    0.0000
     50 H10       -7.5146   11.1630    7.9577 H         2 RES2    0.0000
     51 H11       -6.7597   11.4056    9.3106 H         2 RES2    0.0000
     52 H12       -6.4483   10.1273    8.4567 H         2 RES2    0.0000
     53 H13       -2.6433   10.5600    7.6341 H         2 RES2    0.0000
     54 H14       -3.7976    9.6633    8.2267 H         2 RES2    0.0000
     55 H15       -5.1917   13.7574    7.0726 H         2 RES2    0.0000
     56 H16       -6.2955   13.6884    8.1760 H         2 RES2    0.0000
     57 H17       -5.4001   15.3016    1.8305 H         1 RES1    0.0000
     58 H18       -6.5323   14.3927    2.4427 H         1 RES1    0.0000
     59 H19       -9.1667   11.7782    5.8600 H         2 RES2    0.0000
     60 H20        0.0600   13.2201    4.2829 H         1 RES1    0.0000
     61 H21       -3.1342   14.2247    5.6047 H         1 RES1    0.0000
     62 H22        2.2104   13.2290    3.4018 H         1 RES1    0.0000
     63 H23      -11.3278   11.7905    6.7081 H         2 RES2    0.0000
     64 H24       -6.0457   10.8003    4.4740 H         2 RES2    0.0000
     65 H25       -7.4206   12.5548    4.3999 H         2 RES2    0.0000
     66 H26       -1.7318   12.5092    5.6788 H         1 RES1    0.0000
     67 H27      -10.4420   15.0446    8.8778 H         2 RES2    0.0000
     68 H28        1.2424   10.1362    1.0527 H         1 RES1    0.0000
     69 H29       -0.8847   10.1128    1.9533 H         1 RES1    0.0000
     70 H30       -8.3029   15.0446    7.9966 H         2 RES2    0.0000
     71 H31       -2.8967   10.2908    4.8268 H         1 RES1    0.0000
     72 H32       -6.3150   14.7298    5.0978 H         2 RES2    0.0000
@<TRIPOS>BOND
     1    1    8 1
     2    2   20 1
     3    3   20 1
     4    4    6 1
     5    5   10 1
     6    6   32 1
     7    7   10 1
     8    8   31 1
     9    9   15 ar
    10   10    4 1
    11   11    7 1
    12   12   14 ar
    13   13   18 1
    14   14   28 ar
    15   15   26 ar
    16   16   17 2
    17   17   11 1
    18   18   20 1
    19   19   13 2
    20   20    1 1
    21   21   10 1
    22   22   26 ar
    23   23   25 ar
    24   24   12 ar
    25   25   24 ar
    26   26   33 1
    27   27    9 ar
    28   28   23 ar
    29   29   22 ar
    30   30    2 1
    31   31   18 2
    32   32   21 2
    33   33   36 2
    34   34   28 1
    35   35   34 2
    36   37   30 1
    37   38   11 1
    38   39   33 2
    39   40   34 2
    40   41    1 1
    41   42    1 1
    42   43    2 1
    43   44    2 1
    44   45    3 1
    45   46    3 1
    46   47    3 1
    47   48    4 1
    48   49    4 1
    49   50    5 1
    50   51    5 1
    51   52    5 1
    52   53    6 1
    53   54    6 1
    54   55    7 1
    55   56    7 1
    56   57    8 1
    57   58    8 1
    58   59    9 1
    59   60   12 1
    60   61   13 1
    61   62   14 1
    62   63   15 1
    63   64   16 1
    64   65   17 1
    65   66   19 1
    66   67   22 1
    67   68   23 1
    68   69   25 1
    69   70   29 1
    70   71   37 1
    71   72   38 1
    72   11   27 1
    73   16   21 1
    74   19   30 1
    75   24   30 1
    76   27   29 ar
@<TRIPOS>SUBSTRUCTURE
     1 RES1 1
     2 RES2 4

@<TRIPOS>CRYSIN
  12.5172   11.1252   20.2504  90.0000 105.7040  90.0000  14 1

