# MOL2 file generated by ConQuest
# Please check atom types

@<TRIPOS>MOLECULE
GECPIP
    38    40     1
SMALL
NO_CHARGES
****
Generated from CSD

@<TRIPOS>ATOM
      1 C1         2.2144    3.0637    9.0167 C.ar      1 RES1    0.0000
      2 H1         2.6727    3.5645    9.6517 H         1 RES1    0.0000
      3 C2         0.8717    3.2767    8.7842 C.ar      1 RES1    0.0000
      4 C3         2.8635    2.0841    8.2799 C.ar      1 RES1    0.0000
      5 C4         2.1397    1.3351    7.3595 C.ar      1 RES1    0.0000
      6 H2         2.5675    0.6711    6.8695 H         1 RES1    0.0000
      7 C5         0.1371    2.5424    7.8768 C.ar      1 RES1    0.0000
      8 H3        -0.7701    2.7012    7.7497 H         1 RES1    0.0000
      9 C6         0.7954    1.5660    7.1663 C.ar      1 RES1    0.0000
     10 H4         0.3267    1.0547    6.5466 H         1 RES1    0.0000
     11 C7         9.2882    1.6523   10.0226 C.ar      1 RES1    0.0000
     12 C8         7.2136    1.3373    8.8152 C.ar      1 RES1    0.0000
     13 C9         6.7737    0.4553    9.7769 C.ar      1 RES1    0.0000
     14 H5         5.9387    0.0513    9.7015 H         1 RES1    0.0000
     15 C10        7.5931    0.1787   10.8593 C.ar      1 RES1    0.0000
     16 H6         7.2890   -0.4004   11.5208 H         1 RES1    0.0000
     17 C11        8.4491    1.9565    8.9475 C.ar      1 RES1    0.0000
     18 H7         8.7210    2.5808    8.3138 H         1 RES1    0.0000
     19 C12        8.8468    0.7382   10.9832 C.ar      1 RES1    0.0000
     20 N1         6.4556    1.5614    7.6198 N.pl3     1 RES1    0.0000
     21 N2         6.0001    1.6571    5.4711 N.2       1 RES1    0.0000
     22 N3         4.7979    1.7816    6.1748 N.2       1 RES1    0.0000
     23 C13        5.1040    1.7249    7.4454 C.2       1 RES1    0.0000
     24 C14        6.9421    1.5332    6.3371 C.2       1 RES1    0.0000
     25 H8         7.8421    1.4365    6.1207 H         1 RES1    0.0000
     26 N4         0.2094    4.3597    9.5190 N.pl3     1 RES1    0.0000
     27 N5         4.2350    1.8557    8.4995 N.pl3     1 RES1    0.0000
     28 O1         0.8761    5.0573   10.2729 O.2       1 RES1    0.0000
     29 O2        -0.9847    4.5324    9.3476 O.2       1 RES1    0.0000
     30 C15       10.6597    2.2780   10.0873 C.3       1 RES1    0.0000
     31 H9        10.7831    2.6890   10.9454 H         1 RES1    0.0000
     32 H10       10.7415    2.9429    9.3991 H         1 RES1    0.0000
     33 H11       11.3270    1.5998    9.9575 H         1 RES1    0.0000
     34 C16        9.7461    0.3416   12.1345 C.3       1 RES1    0.0000
     35 H12       10.5133   -0.1260   11.7950 H         1 RES1    0.0000
     36 H13        9.2622   -0.2296   12.7364 H         1 RES1    0.0000
     37 H14       10.0328    1.1294   12.6027 H         1 RES1    0.0000
     38 H15        4.5304    2.2074    9.1985 H         1 RES1    0.0000
@<TRIPOS>BOND
     1    1    2 1
     2    3    1 ar
     3    4    1 ar
     4    5    4 ar
     5    6    5 1
     6    7    3 ar
     7    8    7 1
     8    9    5 ar
     9   10    9 1
    10   11   17 ar
    11   12   13 ar
    12   13   14 1
    13   15   13 ar
    14   16   15 1
    15   17   12 ar
    16   18   17 1
    17   19   11 ar
    18   20   12 1
    19   21   22 1
    20   22   23 2
    21   23   20 1
    22   24   20 1
    23   25   24 1
    24   26    3 1
    25   27    4 1
    26   28   26 2
    27   29   26 2
    28   30   11 1
    29   31   30 1
    30   32   30 1
    31   33   30 1
    32   34   19 1
    33   35   34 1
    34   36   34 1
    35   37   34 1
    36   38   27 1
    37    7    9 ar
    38   15   19 ar
    39   21   24 2
    40   23   27 1
@<TRIPOS>SUBSTRUCTURE
     1 RES1 1

@<TRIPOS>CRYSIN
  14.0860    9.3337   11.5101  90.0000 100.1980  90.0000  14 1

