# MOL2 file generated by ConQuest
# Please check atom types

@<TRIPOS>MOLECULE
GECPEL
    68    70     2
SMALL
NO_CHARGES
****
Generated from CSD

@<TRIPOS>ATOM
      1 O1        12.1947   10.5854    6.6587 O.2       1 RES1    0.0000
      2 O2        11.1547   11.8304    5.3239 O.2       1 RES1    0.0000
      3 N1         8.6562   15.0599    8.3056 N.3       1 RES1    0.0000
      4 N2         8.9590   15.6793    5.9931 N.2       1 RES1    0.0000
      5 N3         8.2935   16.5844    5.1572 N.2       1 RES1    0.0000
      6 N4         7.2940   16.6129    7.1009 N.pl3     1 RES1    0.0000
      7 N5        11.4848   11.5457    6.4412 N.pl3     1 RES1    0.0000
      8 C1         9.6210   14.0487    8.4050 C.ar      1 RES1    0.0000
      9 C2        10.1549   13.7880    9.6759 C.ar      1 RES1    0.0000
     10 H1         9.8551   14.2833   10.4042 H         1 RES1    0.0000
     11 C3        11.1201   12.8102    9.8698 C.ar      1 RES1    0.0000
     12 H2        11.4674   12.6603   10.7187 H         1 RES1    0.0000
     13 C4        11.5583   12.0715    8.8140 C.ar      1 RES1    0.0000
     14 H3        12.2004   11.4088    8.9323 H         1 RES1    0.0000
     15 C5        11.0336   12.3214    7.5773 C.ar      1 RES1    0.0000
     16 C6        10.0639   13.3078    7.3385 C.ar      1 RES1    0.0000
     17 H4         9.7303   13.4534    6.4825 H         1 RES1    0.0000
     18 C7         8.3551   15.7334    7.1482 C.2       1 RES1    0.0000
     19 C8         6.3245   16.9840    8.1378 C.3       1 RES1    0.0000
     20 H5         6.2464   16.2540    8.7715 H         1 RES1    0.0000
     21 H6         5.4553   17.1122    7.7251 H         1 RES1    0.0000
     22 C9         5.6525   18.6113    9.9478 C.3       1 RES1    0.0000
     23 H7         5.2500   17.7988   10.2907 H         1 RES1    0.0000
     24 H8         6.1275   19.0307   10.6821 H         1 RES1    0.0000
     25 C10        7.3378   17.0905    5.8441 C.2       1 RES1    0.0000
     26 H9         6.7404   17.7205    5.5107 H         1 RES1    0.0000
     27 C11        6.6922   18.2137    8.8684 C.3       1 RES1    0.0000
     28 H10        6.7825   18.9416    8.2347 H         1 RES1    0.0000
     29 H11        7.5544   18.0834    9.2940 H         1 RES1    0.0000
     30 C12        4.5975   19.4913    9.5447 C.3       1 RES1    0.0000
     31 H12        4.1586   19.1306    8.7703 H         1 RES1    0.0000
     32 H13        4.9635   20.3539    9.3319 H         1 RES1    0.0000
     33 H14        3.9637   19.5804   10.2600 H         1 RES1    0.0000
     34 O3         6.4534   10.3399   11.0025 O.2       2 RES2    0.0000
     35 O4         5.6132   11.8521   12.2545 O.2       2 RES2    0.0000
     36 N6         5.8980   11.4327   11.1621 N.pl3     2 RES2    0.0000
     37 N7         3.4575   15.0868    8.9866 N.3       2 RES2    0.0000
     38 N8         2.0265   16.6866   10.0176 N.3       2 RES2    0.0000
     39 N9         3.4232   15.5935   11.3477 N.2       2 RES2    0.0000
     40 N10        2.6843   16.5121   12.1079 N.2       2 RES2    0.0000
     41 C13        4.6610   13.2470   10.1063 C.ar      2 RES2    0.0000
     42 H15        4.2684   13.4251   10.9303 H         2 RES2    0.0000
     43 C14        4.3567   14.0009    8.9843 C.ar      2 RES2    0.0000
     44 C15        4.9328   13.6750    7.7641 C.ar      2 RES2    0.0000
     45 H16        4.7092   14.1617    7.0039 H         2 RES2    0.0000
     46 C16        5.8404   12.6277    7.6731 C.ar      2 RES2    0.0000
     47 H17        6.2387   12.4344    6.8550 H         2 RES2    0.0000
     48 C17        6.1543   11.8825    8.7715 C.ar      2 RES2    0.0000
     49 H18        6.7490   11.1699    8.7076 H         2 RES2    0.0000
     50 C18        5.5838   12.2019    9.9502 C.ar      2 RES2    0.0000
     51 C19        3.0164   15.7343   10.1075 C.2       2 RES2    0.0000
     52 C20        1.8790   17.0991   11.2791 C.2       2 RES2    0.0000
     53 H19        1.2604   17.7444   11.5380 H         2 RES2    0.0000
     54 C21        1.3671   17.1361    8.8081 C.3       2 RES2    0.0000
     55 H20        0.6954   16.4799    8.5693 H         2 RES2    0.0000
     56 H21        2.0233   17.1491    8.0940 H         2 RES2    0.0000
     57 C22        0.7253   18.4419    8.8554 C.3       2 RES2    0.0000
     58 H22        1.3783   19.0959    9.1498 H         2 RES2    0.0000
     59 H23        0.0197   18.4136    9.5210 H         2 RES2    0.0000
     60 C23        0.1404   18.9047    7.5643 C.3       2 RES2    0.0000
     61 H24        0.8421   18.9112    6.8940 H         2 RES2    0.0000
     62 H25       -0.5276   18.2615    7.2806 H         2 RES2    0.0000
     63 C24       -0.4881   20.2474    7.5939 C.3       2 RES2    0.0000
     64 H26        0.1467   20.8905    7.9190 H         2 RES2    0.0000
     65 H27       -1.2521   20.2300    8.1756 H         2 RES2    0.0000
     66 H28       -0.7656   20.4907    6.7084 H         2 RES2    0.0000
     67 H29        8.3734   15.4262    9.2456 H         1 RES1    0.0000
     68 H30        3.3486   15.4696    8.0042 H         2 RES2    0.0000
@<TRIPOS>BOND
     1    1    7 2
     2    2    7 2
     3    3    8 1
     4    4    5 1
     5    5   25 2
     6    6   18 1
     7    7   15 1
     8    8    9 ar
     9    9   10 1
    10   11    9 ar
    11   12   11 1
    12   13   11 ar
    13   14   13 1
    14   15   13 ar
    15   16    8 ar
    16   17   16 1
    17   18    3 1
    18   19    6 1
    19   20   19 1
    20   21   19 1
    21   22   23 1
    22   24   22 1
    23   25    6 1
    24   26   25 1
    25   27   19 1
    26   28   27 1
    27   29   27 1
    28   30   22 1
    29   31   30 1
    30   32   30 1
    31   33   30 1
    32   34   36 2
    33   35   36 2
    34   36   50 1
    35   37   43 1
    36   38   51 1
    37   39   40 1
    38   40   52 2
    39   41   42 1
    40   43   41 ar
    41   44   43 ar
    42   45   44 1
    43   46   44 ar
    44   47   46 1
    45   48   46 ar
    46   49   48 1
    47   50   41 ar
    48   51   37 1
    49   52   38 1
    50   53   52 1
    51   54   38 1
    52   55   54 1
    53   56   54 1
    54   57   54 1
    55   58   57 1
    56   59   57 1
    57   60   57 1
    58   61   60 1
    59   62   60 1
    60   63   60 1
    61   64   63 1
    62   65   63 1
    63   66   63 1
    64   67    3 1
    65   68   37 1
    66    4   18 2
    67   15   16 ar
    68   22   27 1
    69   39   51 2
    70   48   50 ar
@<TRIPOS>SUBSTRUCTURE
     1 RES1 1
     2 RES2 34

@<TRIPOS>CRYSIN
  10.2397   21.7270   11.8443  90.0000  93.4390  90.0000  14 1

