# MOL2 file generated by ConQuest
# Please check atom types

@<TRIPOS>MOLECULE
GECTIU
    70    72     2
SMALL
NO_CHARGES
****
Generated from CSD

@<TRIPOS>ATOM
      1 C1        10.9255   15.9075   -0.2408 C.ar      1 RES1    0.0000
      2 C2         9.6790   16.2104   -0.7315 C.ar      1 RES1    0.0000
      3 H1         9.4956   17.0687   -1.0952 H         1 RES1    0.0000
      4 C3         8.6963   15.2396   -0.6839 C.ar      1 RES1    0.0000
      5 H2         7.8243   15.4436   -1.0025 H         1 RES1    0.0000
      6 C4         8.9593   13.9648   -0.1777 C.ar      1 RES1    0.0000
      7 C5        10.2454   13.7068    0.3293 C.ar      1 RES1    0.0000
      8 H3        10.4390   12.8527    0.6978 H         1 RES1    0.0000
      9 C6        11.2265   14.6684    0.3019 C.ar      1 RES1    0.0000
     10 H4        12.0930   14.4875    0.6477 H         1 RES1    0.0000
     11 C7         7.9338   12.8884   -0.1805 C.2       1 RES1    0.0000
     12 C8         6.5491   13.1907   -0.6816 C.3       1 RES1    0.0000
     13 H5         6.0771   12.3513   -0.8656 H         1 RES1    0.0000
     14 H6         6.6081   13.7209   -1.5045 H         1 RES1    0.0000
     15 H7         6.0585   13.6976   -0.0015 H         1 RES1    0.0000
     16 C9         6.3864   10.7737    1.2314 C.3       1 RES1    0.0000
     17 H8         6.6826   10.3704    2.0742 H         1 RES1    0.0000
     18 H9         5.5901   10.3044    0.9068 H         1 RES1    0.0000
     19 H10        6.1703   11.7180    1.3794 H         1 RES1    0.0000
     20 C10        8.0824    9.4129    0.0966 C.ar      1 RES1    0.0000
     21 C11        7.4993    8.2466    0.5956 C.ar      1 RES1    0.0000
     22 H11        6.6839    8.2960    1.0805 H         1 RES1    0.0000
     23 C12        8.1053    7.0180    0.3863 C.ar      1 RES1    0.0000
     24 H12        7.7005    6.2299    0.7287 H         1 RES1    0.0000
     25 C13        9.2868    6.9278   -0.3133 C.ar      1 RES1    0.0000
     26 H13        9.7045    6.0843   -0.4431 H         1 RES1    0.0000
     27 C14        9.8579    8.0735   -0.8241 C.ar      1 RES1    0.0000
     28 H14       10.6679    8.0144   -1.3175 H         1 RES1    0.0000
     29 C15        9.2631    9.3118   -0.6254 C.ar      1 RES1    0.0000
     30 H15        9.6659   10.0929   -0.9848 H         1 RES1    0.0000
     31 N1        11.9911   16.9256   -0.3093 N.pl3     1 RES1    0.0000
     32 N2         8.3669   11.7342    0.1834 N.2       1 RES1    0.0000
     33 N3         7.4548   10.6676    0.2372 N.3       1 RES1    0.0000
     34 O1        13.1053   16.6249    0.0969 O.2       1 RES1    0.0000
     35 O2        11.7101   18.0284   -0.7706 O.2       1 RES1    0.0000
     36 C16        5.4590    7.3784    3.7353 C.ar      2 RES2    0.0000
     37 C17        5.7906    8.5290    4.4082 C.ar      2 RES2    0.0000
     38 H16        6.6653    8.6477    4.7579 H         2 RES2    0.0000
     39 C18        4.8318    9.5112    4.5677 C.ar      2 RES2    0.0000
     40 H17        5.0565   10.3154    5.0199 H         2 RES2    0.0000
     41 C19        3.5326    9.3396    4.0726 C.ar      2 RES2    0.0000
     42 C20        3.2465    8.1588    3.3829 C.ar      2 RES2    0.0000
     43 H18        2.3779    8.0323    3.0193 H         2 RES2    0.0000
     44 C21        4.1933    7.1750    3.2183 C.ar      2 RES2    0.0000
     45 H19        3.9813    6.3714    2.7587 H         2 RES2    0.0000
     46 C22        2.4959   10.3875    4.2598 C.2       2 RES2    0.0000
     47 C23        2.8487   11.6284    5.0268 C.3       2 RES2    0.0000
     48 H20        3.3599   12.2345    4.4502 H         2 RES2    0.0000
     49 H21        3.3879   11.3869    5.8089 H         2 RES2    0.0000
     50 H22        2.0279   12.0752    5.3217 H         2 RES2    0.0000
     51 C24        0.5347   12.3165    3.1743 C.3       2 RES2    0.0000
     52 H23        1.4890   12.5354    3.2033 H         2 RES2    0.0000
     53 H24        0.0240   13.0217    3.6229 H         2 RES2    0.0000
     54 H25        0.2435   12.2455    2.2406 H         2 RES2    0.0000
     55 C25       -0.9703   10.4500    3.6635 C.ar      2 RES2    0.0000
     56 C26       -2.0262   11.1774    3.1284 C.ar      2 RES2    0.0000
     57 H26       -1.8895   12.0779    2.8574 H         2 RES2    0.0000
     58 C27       -3.2787   10.5998    2.9854 C.ar      2 RES2    0.0000
     59 H27       -3.9933   11.1081    2.6189 H         2 RES2    0.0000
     60 C28       -3.5010    9.3002    3.3683 C.ar      2 RES2    0.0000
     61 H28       -4.3526    8.8991    3.2460 H         2 RES2    0.0000
     62 C29       -2.4644    8.5868    3.9333 C.ar      2 RES2    0.0000
     63 H29       -2.6121    7.6916    4.2161 H         2 RES2    0.0000
     64 C30       -1.2134    9.1534    4.0960 C.ar      2 RES2    0.0000
     65 H30       -0.5176    8.6532    4.5061 H         2 RES2    0.0000
     66 N4         6.4848    6.3438    3.5453 N.pl3     2 RES2    0.0000
     67 N5         1.3343   10.0834    3.7768 N.2       2 RES2    0.0000
     68 N6         0.3065   11.0402    3.8544 N.3       2 RES2    0.0000
     69 O3         6.1925    5.3473    2.8875 O.2       2 RES2    0.0000
     70 O4         7.5945    6.5251    4.0387 O.2       2 RES2    0.0000
@<TRIPOS>BOND
     1    1    2 ar
     2    2    3 1
     3    4    2 ar
     4    5    4 1
     5    6    4 ar
     6    7    6 ar
     7    8    7 1
     8    9    1 ar
     9   10    9 1
    10   11    6 1
    11   12   11 1
    12   13   12 1
    13   14   12 1
    14   15   12 1
    15   16   17 1
    16   18   16 1
    17   19   16 1
    18   20   21 ar
    19   21   22 1
    20   23   21 ar
    21   24   23 1
    22   25   23 ar
    23   26   25 1
    24   27   25 ar
    25   28   27 1
    26   29   20 ar
    27   30   29 1
    28   31    1 1
    29   32   11 2
    30   33   16 1
    31   34   31 2
    32   35   31 2
    33   36   37 ar
    34   37   38 1
    35   39   37 ar
    36   40   39 1
    37   41   39 ar
    38   42   41 ar
    39   43   42 1
    40   44   36 ar
    41   45   44 1
    42   46   41 1
    43   47   46 1
    44   48   47 1
    45   49   47 1
    46   50   47 1
    47   51   52 1
    48   53   51 1
    49   54   51 1
    50   55   56 ar
    51   56   57 1
    52   58   56 ar
    53   59   58 1
    54   60   58 ar
    55   61   60 1
    56   62   60 ar
    57   63   62 1
    58   64   55 ar
    59   65   64 1
    60   66   36 1
    61   67   46 2
    62   68   51 1
    63   69   66 2
    64   70   66 2
    65    7    9 ar
    66   20   33 1
    67   27   29 ar
    68   32   33 1
    69   42   44 ar
    70   55   68 1
    71   62   64 ar
    72   67   68 1
@<TRIPOS>SUBSTRUCTURE
     1 RES1 1
     2 RES2 36

@<TRIPOS>CRYSIN
  13.3066   13.7374   14.7211  90.0000  90.0000  90.0000  19 1

