# MOL2 file generated by ConQuest
# Please check atom types

@<TRIPOS>MOLECULE
GECXAP
    45    47     1
SMALL
NO_CHARGES
****
Generated from CSD

@<TRIPOS>ATOM
      1 O1        14.6840    0.1945    4.3247 O.2       1 RES1    0.0000
      2 O2        14.9352    0.3211    8.6414 O.3       1 RES1    0.0000
      3 H1        14.7893   -0.0117    9.3998 H         1 RES1    0.0000
      4 O3        12.9257    2.6899    3.7491 O.2       1 RES1    0.0000
      5 O4        12.4537    5.2171    8.1345 O.3       1 RES1    0.0000
      6 H2        12.4958    5.4880    7.3412 H         1 RES1    0.0000
      7 O5        11.7161    2.8036    1.9516 O.2       1 RES1    0.0000
      8 O6         9.4728   -0.9316    0.1786 O.2       1 RES1    0.0000
      9 O7         9.3183   -2.7264    1.2734 O.2       1 RES1    0.0000
     10 N1        14.8513    1.5155    6.1503 N.am      1 RES1    0.0000
     11 N2        12.1542    2.2059    2.9242 N.pl3     1 RES1    0.0000
     12 N3         9.6904   -1.6015    1.1633 N.pl3     1 RES1    0.0000
     13 C1        13.0818    3.3719    9.4625 C.ar      1 RES1    0.0000
     14 H3        12.6536    3.7810   10.2058 H         1 RES1    0.0000
     15 C2        14.2537    2.1632    7.2895 C.ar      1 RES1    0.0000
     16 C3        13.7082    2.1639    9.6214 C.ar      1 RES1    0.0000
     17 H4        13.7350    1.7558   10.4779 H         1 RES1    0.0000
     18 C4        14.3024    1.5355    8.5452 C.ar      1 RES1    0.0000
     19 C5        16.2853    1.6601    5.9720 C.ar      1 RES1    0.0000
     20 C6        13.6547    3.3885    7.1607 C.ar      1 RES1    0.0000
     21 H5        13.6482    3.8201    6.3150 H         1 RES1    0.0000
     22 C7        16.7637    2.7811    5.3266 C.ar      1 RES1    0.0000
     23 H6        16.1581    3.4334    4.9918 H         1 RES1    0.0000
     24 C8        14.1303    0.7898    5.2626 C.2       1 RES1    0.0000
     25 C9        13.0663    3.9998    8.2330 C.ar      1 RES1    0.0000
     26 C10       11.8934    0.1387    4.3461 C.ar      1 RES1    0.0000
     27 C11       11.6607    0.8125    3.1461 C.ar      1 RES1    0.0000
     28 C12       17.1430    0.7011    6.4409 C.ar      1 RES1    0.0000
     29 H7        16.8054   -0.0781    6.8676 H         1 RES1    0.0000
     30 C13       12.6521    0.6836    5.5175 C.3       1 RES1    0.0000
     31 H8        12.5014    0.0957    6.3005 H         1 RES1    0.0000
     32 H9        12.2985    1.5800    5.7417 H         1 RES1    0.0000
     33 C14       18.5148    0.8828    6.2855 C.ar      1 RES1    0.0000
     34 H10       19.1147    0.2265    6.6183 H         1 RES1    0.0000
     35 C15       10.9363    0.2715    2.1072 C.ar      1 RES1    0.0000
     36 H11       10.7886    0.7617    1.3066 H         1 RES1    0.0000
     37 C16       10.4402   -0.9746    2.2518 C.ar      1 RES1    0.0000
     38 C17       11.3396   -1.1230    4.4533 C.ar      1 RES1    0.0000
     39 H12       11.4652   -1.6132    5.2576 H         1 RES1    0.0000
     40 C18       18.1314    2.9530    5.1662 C.ar      1 RES1    0.0000
     41 H13       18.4697    3.7225    4.7217 H         1 RES1    0.0000
     42 C19       19.0008    1.9862    5.6648 C.ar      1 RES1    0.0000
     43 H14       19.9389    2.0995    5.5672 H         1 RES1    0.0000
     44 C20       10.6048   -1.6972    3.4275 C.ar      1 RES1    0.0000
     45 H15       10.2237   -2.5604    3.5252 H         1 RES1    0.0000
@<TRIPOS>BOND
     1    1   24 2
     2    2    3 1
     3    4   11 2
     4    5    6 1
     5    7   11 2
     6    8   12 2
     7    9   12 2
     8   10   15 1
     9   11   27 1
    10   12   37 1
    11   13   14 1
    12   15   18 ar
    13   16   13 ar
    14   17   16 1
    15   18    2 1
    16   19   10 1
    17   20   15 ar
    18   21   20 1
    19   22   19 ar
    20   23   22 1
    21   24   10 1
    22   25    5 1
    23   26   27 ar
    24   27   35 ar
    25   28   19 ar
    26   29   28 1
    27   30   24 1
    28   31   30 1
    29   32   30 1
    30   33   28 ar
    31   34   33 1
    32   35   36 1
    33   37   35 ar
    34   38   26 ar
    35   39   38 1
    36   40   22 ar
    37   41   40 1
    38   42   33 ar
    39   43   42 1
    40   44   37 ar
    41   45   44 1
    42   13   25 ar
    43   16   18 ar
    44   20   25 ar
    45   26   30 1
    46   38   44 ar
    47   40   42 ar
@<TRIPOS>SUBSTRUCTURE
     1 RES1 1

@<TRIPOS>CRYSIN
  22.5515   22.5515   20.7730  90.0000  90.0000 120.0000 233 1

