# MOL2 file generated by ConQuest
# Please check atom types

@<TRIPOS>MOLECULE
GECXUI
    33    36     1
SMALL
USER_CHARGES
****
Generated from CSD

@<TRIPOS>ATOM
      1 O1         2.4867   10.8912    2.8444 O.2       1 RES1   -1.0000
      2 N1         2.7448   12.1286    2.7075 N.pl3     1 RES1    1.0000
      3 N2         2.0060   12.9435    1.8981 N.pl3     1 RES1    0.0000
      4 N3         1.4284   16.0438    0.5125 N.1       1 RES1    0.0000
      5 C1         2.5264   14.2077    1.9019 C.2       1 RES1    0.0000
      6 C2         3.6353   14.1954    2.7623 C.2       1 RES1    0.0000
      7 C3         4.5722   15.1573    3.1917 C.2       1 RES1    0.0000
      8 H1         4.5302   16.0378    2.8930 H         1 RES1    0.0000
      9 C4         5.5385   14.7544    4.0582 C.2       1 RES1    0.0000
     10 H2         6.1733   15.3716    4.3404 H         1 RES1    0.0000
     11 C5         5.6125   13.4360    4.5439 C.2       1 RES1    0.0000
     12 H3         6.2849   13.2138    5.1472 H         1 RES1    0.0000
     13 C6         4.7335   12.4800    4.1578 C.2       1 RES1    0.0000
     14 H4         4.7851   11.6070    4.4746 H         1 RES1    0.0000
     15 C7         3.7386   12.8827    3.2523 C.2       1 RES1    0.0000
     16 C8         1.9236   15.2348    1.1409 C.1       1 RES1    0.0000
     17 C9         0.9329   12.4429    1.0847 C.ar      1 RES1    0.0000
     18 C10        1.2466   11.9535   -0.2008 C.ar      1 RES1    0.0000
     19 C11        2.5647   11.8560   -0.7029 C.ar      1 RES1    0.0000
     20 H5         3.2842   12.1217   -0.1766 H         1 RES1    0.0000
     21 C12        2.7785   11.3738   -1.9573 C.ar      1 RES1    0.0000
     22 H6         3.6484   11.3062   -2.2776 H         1 RES1    0.0000
     23 C13        1.7195   10.9820   -2.7667 C.ar      1 RES1    0.0000
     24 H7         1.8859   10.6784   -3.6297 H         1 RES1    0.0000
     25 C14        0.4454   11.0393   -2.3070 C.ar      1 RES1    0.0000
     26 H8        -0.2516   10.7511   -2.8506 H         1 RES1    0.0000
     27 C15        0.1648   11.5288   -1.0146 C.ar      1 RES1    0.0000
     28 C16       -1.1529   11.5942   -0.4978 C.ar      1 RES1    0.0000
     29 H9        -1.8654   11.3062   -1.0223 H         1 RES1    0.0000
     30 C17       -1.3905   12.0680    0.7445 C.ar      1 RES1    0.0000
     31 H10       -2.2627   12.1015    1.0639 H         1 RES1    0.0000
     32 C18       -0.3368   12.5089    1.5591 C.ar      1 RES1    0.0000
     33 H11       -0.5062   12.8423    2.4109 H         1 RES1    0.0000
@<TRIPOS>BOND
     1    1    2 1
     2    2    3 1
     3    3    5 1
     4    4   16 3
     5    5    6 2
     6    6    7 1
     7    7    8 1
     8    9    7 2
     9   10    9 1
    10   11    9 1
    11   12   11 1
    12   13   11 2
    13   14   13 1
    14   15    2 2
    15   16    5 1
    16   17    3 1
    17   18   17 ar
    18   19   18 ar
    19   20   19 1
    20   21   19 ar
    21   22   21 1
    22   23   21 ar
    23   24   23 1
    24   25   23 ar
    25   26   25 1
    26   27   18 ar
    27   28   27 ar
    28   29   28 1
    29   30   28 ar
    30   31   30 1
    31   32   17 ar
    32   33   32 1
    33    6   15 1
    34   13   15 1
    35   25   27 ar
    36   30   32 ar
@<TRIPOS>SUBSTRUCTURE
     1 RES1 1

@<TRIPOS>CRYSIN
   8.0240   20.1860    8.6920  90.0000  95.1700  90.0000  14 1

