# MOL2 file generated by ConQuest
# Please check atom types

@<TRIPOS>MOLECULE
GEDTEO
    54    59     1
SMALL
NO_CHARGES
****
Generated from CSD

@<TRIPOS>ATOM
      1 N1         3.1093   -1.5966    0.3592 N.2       1 RES1    0.0000
      2 C1         2.1584   -2.4009    0.1421 C.2       1 RES1    0.0000
      3 O1         1.1425   -1.9836   -0.6781 O.3       1 RES1    0.0000
      4 N2         1.3097   -0.5252   -0.7641 N.3       1 RES1    0.0000
      5 C2         0.5233    0.0381    0.3821 C.3       1 RES1    0.0000
      6 C3         0.7222    1.5461    0.3734 C.3       1 RES1    0.0000
      7 C4         2.1855    1.8230    0.4594 C.2       1 RES1    0.0000
      8 C5         2.9177    2.9788    0.9070 C.ar      1 RES1    0.0000
      9 C6         2.5389    4.2273    1.4201 C.ar      1 RES1    0.0000
     10 C7         3.5260    5.1019    1.8116 C.ar      1 RES1    0.0000
     11 C8         4.8736    4.7550    1.7058 C.ar      1 RES1    0.0000
     12 C9         5.2840    3.5426    1.1998 C.ar      1 RES1    0.0000
     13 C10        4.2825    2.6562    0.7886 C.ar      1 RES1    0.0000
     14 N3         4.3846    1.3783    0.2692 N.pl3     1 RES1    0.0000
     15 C11        3.1048    0.8974    0.0868 C.2       1 RES1    0.0000
     16 C12        2.7821   -0.4302   -0.4855 C.3       1 RES1    0.0000
     17 C13        2.9918   -4.2461    1.6995 C.3       1 RES1    0.0000
     18 C14        3.3841   -5.7076    1.7926 C.3       1 RES1    0.0000
     19 C15        2.2533   -6.6391    2.2118 C.3       1 RES1    0.0000
     20 C16        1.4163   -6.0517    3.3027 C.3       1 RES1    0.0000
     21 C17        0.7339   -4.7771    2.8496 C.3       1 RES1    0.0000
     22 C18        1.7056   -3.7792    2.2481 C.3       1 RES1    0.0000
     23 C19        1.9487   -3.7461    0.7246 C.3       1 RES1    0.0000
     24 C20        1.2193   -4.6507   -0.1231 C.1       1 RES1    0.0000
     25 N4         0.6381   -5.3668   -0.7909 N.1       1 RES1    0.0000
     26 C21       -0.9500   -0.3296    0.2242 C.2       1 RES1    0.0000
     27 O2        -1.1949   -1.5408    0.7017 O.3       1 RES1    0.0000
     28 O3        -1.7842    0.3974   -0.2550 O.2       1 RES1    0.0000
     29 C22       -2.5362   -2.0769    0.5391 C.3       1 RES1    0.0000
     30 C23       -2.4757   -3.5012    0.9733 C.3       1 RES1    0.0000
     31 H1         0.8496   -0.3727    1.2946 H         1 RES1    0.0000
     32 H2         0.2892    1.9617   -0.5289 H         1 RES1    0.0000
     33 H3         0.2892    1.9113    1.1761 H         1 RES1    0.0000
     34 H4         1.5818    4.4784    1.4840 H         1 RES1    0.0000
     35 H5         3.2358    5.9805    2.1313 H         1 RES1    0.0000
     36 H6         5.5859    5.3556    1.9813 H         1 RES1    0.0000
     37 H7         6.2728    3.2929    1.1367 H         1 RES1    0.0000
     38 H8         5.1610    0.9556    0.0000 H         1 RES1    0.0000
     39 H9         3.2177   -0.5465   -1.3735 H         1 RES1    0.0000
     40 H10        3.7962   -3.6292    1.7840 H         1 RES1    0.0000
     41 H11        3.7691   -6.0254    0.8920 H         1 RES1    0.0000
     42 H12        4.0674   -5.7003    2.4865 H         1 RES1    0.0000
     43 H13        2.6935   -7.4546    2.5181 H         1 RES1    0.0000
     44 H14        1.5637   -6.8941    1.4603 H         1 RES1    0.0000
     45 H15        0.7592   -6.7260    3.6074 H         1 RES1    0.0000
     46 H16        2.0066   -5.8292    4.0810 H         1 RES1    0.0000
     47 H17        0.2712   -4.3439    3.6389 H         1 RES1    0.0000
     48 H18       -0.0271   -4.9744    2.1786 H         1 RES1    0.0000
     49 H19        1.7173   -2.8922    2.6207 H         1 RES1    0.0000
     50 H20       -3.1274   -1.5498    1.1209 H         1 RES1    0.0000
     51 H21       -2.7658   -1.9870   -0.3710 H         1 RES1    0.0000
     52 H22       -1.7444   -4.0160    0.4499 H         1 RES1    0.0000
     53 H23       -3.2991   -3.8955    0.6710 H         1 RES1    0.0000
     54 H24       -2.4043   -3.5311    1.9892 H         1 RES1    0.0000
@<TRIPOS>BOND
     1    1    2 2
     2    2    3 1
     3    3    4 1
     4    4    5 1
     5    5    6 1
     6    6    7 1
     7    7    8 1
     8    8    9 ar
     9    9   10 ar
    10   10   11 ar
    11   11   12 ar
    12   12   13 ar
    13   13    8 ar
    14   14   13 1
    15   15    7 2
    16   16    1 1
    17   17   18 1
    18   18   19 1
    19   19   20 1
    20   20   21 1
    21   21   22 1
    22   22   17 1
    23   23    2 1
    24   24   23 1
    25   25   24 3
    26   26    5 1
    27   27   26 1
    28   28   26 2
    29   29   27 1
    30   30   29 1
    31   31    5 1
    32   32    6 1
    33   33    6 1
    34   34    9 1
    35   35   10 1
    36   36   11 1
    37   37   12 1
    38   38   14 1
    39   39   16 1
    40   40   17 1
    41   41   18 1
    42   42   18 1
    43   43   19 1
    44   44   19 1
    45   45   20 1
    46   46   20 1
    47   47   21 1
    48   48   21 1
    49   49   22 1
    50   50   29 1
    51   51   29 1
    52   52   30 1
    53   53   30 1
    54   54   30 1
    55    4   16 1
    56   14   15 1
    57   15   16 1
    58   17   23 1
    59   22   23 1
@<TRIPOS>SUBSTRUCTURE
     1 RES1 1

@<TRIPOS>CRYSIN
   9.0386   28.0249    7.8936  90.0000  90.0000  90.0000  33 1

