# MOL2 file generated by ConQuest
# Please check atom types

@<TRIPOS>MOLECULE
GEDWUH
    32    32     1
SMALL
NO_CHARGES
****
Generated from CSD

@<TRIPOS>ATOM
      1 O1         6.6062   11.0871   -0.1731 O.2       1 RES1    0.0000
      2 O2         5.6140    9.2763    5.8511 O.2       1 RES1    0.0000
      3 O3         4.1040    9.2134    4.3297 O.2       1 RES1    0.0000
      4 O4         4.6544   11.7167    2.5059 O.2       1 RES1    0.0000
      5 O5         5.0871   12.1549    4.5779 O.2       1 RES1    0.0000
      6 N1         5.1622    8.0936   -0.9938 N.1       1 RES1    0.0000
      7 N2         5.2558    9.2533    4.6910 N.pl3     1 RES1    0.0000
      8 N3         5.3364   11.6340    3.4929 N.pl3     1 RES1    0.0000
      9 C1         6.5936   10.5938    0.9361 C.2       1 RES1    0.0000
     10 C2         5.9501    9.2855    1.1531 C.2       1 RES1    0.0000
     11 C3         5.8061    8.6696    2.3455 C.2       1 RES1    0.0000
     12 C4         6.3356    9.3329    3.5967 C.3       1 RES1    0.0000
     13 C5         6.6324   10.8466    3.4144 C.3       1 RES1    0.0000
     14 C6         7.3272   11.2096    2.0950 C.3       1 RES1    0.0000
     15 C7         5.4962    8.6221   -0.0404 C.1       1 RES1    0.0000
     16 C8         5.2466    7.2862    2.4736 C.3       1 RES1    0.0000
     17 C9         7.5295    8.5700    4.1346 C.3       1 RES1    0.0000
     18 C10        7.4317   12.7217    1.9542 C.3       1 RES1    0.0000
     19 C11        8.7446   10.6351    2.0442 C.3       1 RES1    0.0000
     20 H1         7.0282   11.1223    4.1289 H         1 RES1    0.0000
     21 H2         5.4966    6.7730    1.6991 H         1 RES1    0.0000
     22 H3         4.2881    7.3322    2.5325 H         1 RES1    0.0000
     23 H4         5.5958    6.8634    3.2643 H         1 RES1    0.0000
     24 H5         8.0924    8.3004    3.4028 H         1 RES1    0.0000
     25 H6         7.2287    7.7918    4.6125 H         1 RES1    0.0000
     26 H7         8.0279    9.1384    4.7302 H         1 RES1    0.0000
     27 H8         7.7599   13.0986    2.7760 H         1 RES1    0.0000
     28 H9         6.5641   13.0863    1.7580 H         1 RES1    0.0000
     29 H10        8.0387   12.9331    1.2385 H         1 RES1    0.0000
     30 H11        9.1834   10.7837    2.8869 H         1 RES1    0.0000
     31 H12        9.2422   11.0656    1.3424 H         1 RES1    0.0000
     32 H13        8.6970    9.6899    1.8699 H         1 RES1    0.0000
@<TRIPOS>BOND
     1    1    9 2
     2    2    7 2
     3    3    7 2
     4    4    8 2
     5    5    8 2
     6    6   15 3
     7    7   12 1
     8    8   13 1
     9    9   10 1
    10   10   11 2
    11   11   12 1
    12   12   13 1
    13   13   14 1
    14   14    9 1
    15   15   10 1
    16   16   11 1
    17   17   12 1
    18   18   14 1
    19   19   14 1
    20   20   13 1
    21   21   16 1
    22   22   16 1
    23   23   16 1
    24   24   17 1
    25   25   17 1
    26   26   17 1
    27   27   18 1
    28   28   18 1
    29   29   18 1
    30   30   19 1
    31   31   19 1
    32   32   19 1
@<TRIPOS>SUBSTRUCTURE
     1 RES1 1

@<TRIPOS>CRYSIN
   6.9720   15.3200   11.8900  90.0000 103.8800  90.0000 231 1

