# MOL2 file generated by ConQuest
# Please check atom types

@<TRIPOS>MOLECULE
GEDWIV
    33    33     1
SMALL
NO_CHARGES
****
Generated from CSD

@<TRIPOS>ATOM
      1 O1         2.2035   -2.0239    0.6419 O.2       1 RES1    0.0000
      2 O2         3.9391   -1.6845   -1.7718 O.2       1 RES1    0.0000
      3 O3         5.6655   -0.8234   -0.8842 O.2       1 RES1    0.0000
      4 O4         1.7214    0.5896    2.3636 O.2       1 RES1    0.0000
      5 O5         2.2072    0.8071    4.4330 O.2       1 RES1    0.0000
      6 N1         4.4760   -0.9692   -0.9724 N.pl3     1 RES1    0.0000
      7 N2         5.4950    2.5833   -0.8825 N.1       1 RES1    0.0000
      8 N3         5.6642    3.0824    3.0038 N.1       1 RES1    0.0000
      9 N4         2.5214    0.5179    3.3031 N.pl3     1 RES1    0.0000
     10 C1         3.0651   -1.2709    1.0174 C.2       1 RES1    0.0000
     11 C2         3.5727   -0.1861    0.0225 C.3       1 RES1    0.0000
     12 C3         4.4182    0.8888    0.6887 C.2       1 RES1    0.0000
     13 C4         4.5339    0.9893    2.0175 C.2       1 RES1    0.0000
     14 C5         3.9466    0.0352    3.0107 C.3       1 RES1    0.0000
     15 C6         3.7594   -1.3803    2.3757 C.3       1 RES1    0.0000
     16 C7         2.4287    0.4098   -0.7752 C.3       1 RES1    0.0000
     17 C8         5.0141    1.8530   -0.1990 C.1       1 RES1    0.0000
     18 C9         5.1697    2.1572    2.5660 C.1       1 RES1    0.0000
     19 C10        4.7118    0.0226    4.2704 C.3       1 RES1    0.0000
     20 C11        5.1037   -2.0453    2.1456 C.3       1 RES1    0.0000
     21 C12        2.9002   -2.2942    3.2841 C.3       1 RES1    0.0000
     22 H1         1.8507    0.9013   -0.1869 H         1 RES1    0.0000
     23 H2         1.9316   -0.2954   -1.1974 H         1 RES1    0.0000
     24 H3         2.7802    0.9994   -1.4465 H         1 RES1    0.0000
     25 H4         5.6076   -0.2778    4.0974 H         1 RES1    0.0000
     26 H5         4.2900   -0.5707    4.8950 H         1 RES1    0.0000
     27 H6         4.7373    0.9101    4.6372 H         1 RES1    0.0000
     28 H7         5.5634   -2.1371    2.9830 H         1 RES1    0.0000
     29 H8         5.6288   -1.5073    1.5486 H         1 RES1    0.0000
     30 H9         4.9681   -2.9140    1.7580 H         1 RES1    0.0000
     31 H10        3.3214   -2.3797    4.1423 H         1 RES1    0.0000
     32 H11        2.8187   -3.1616    2.8792 H         1 RES1    0.0000
     33 H12        2.0280   -1.9083    3.3914 H         1 RES1    0.0000
@<TRIPOS>BOND
     1    1   10 2
     2    2    6 2
     3    3    6 2
     4    4    9 2
     5    5    9 2
     6    6   11 1
     7    7   17 3
     8    8   18 3
     9    9   14 1
    10   10   11 1
    11   11   12 1
    12   12   13 2
    13   13   14 1
    14   14   15 1
    15   15   10 1
    16   16   11 1
    17   17   12 1
    18   18   13 1
    19   19   14 1
    20   20   15 1
    21   21   15 1
    22   22   16 1
    23   23   16 1
    24   24   16 1
    25   25   19 1
    26   26   19 1
    27   27   19 1
    28   28   20 1
    29   29   20 1
    30   30   20 1
    31   31   21 1
    32   32   21 1
    33   33   21 1
@<TRIPOS>SUBSTRUCTURE
     1 RES1 1

@<TRIPOS>CRYSIN
   6.2210   12.5710   17.3030  90.0000  90.0000  90.0000  19 1

