# MOL2 file generated by ConQuest
# Please check atom types

@<TRIPOS>MOLECULE
GEDXOD
    14    15     1
SMALL
NO_CHARGES
****
Generated from CSD

@<TRIPOS>ATOM
      1 O1        -2.0368   -0.2139    1.6940 O.2       1 RES1    0.0000
      2 N1        -1.1593    2.0195    5.2630 N.3       1 RES1    0.0000
      3 N2        -0.3892    2.1870    6.3566 N.2       1 RES1    0.0000
      4 N3         0.6213    1.3878    6.1902 N.2       1 RES1    0.0000
      5 N4         0.5299    0.6764    5.0062 N.2       1 RES1    0.0000
      6 N5        -1.3867    0.9059    3.3804 N.pl3     1 RES1    0.0000
      7 N6        -1.1553   -0.0935    2.5331 N.2       1 RES1    0.0000
      8 C1        -0.5909    1.1168    4.4862 C.2       1 RES1    0.0000
      9 C2        -2.4445    2.5237    4.7902 C.3       1 RES1    0.0000
     10 H1        -3.1490    2.2813    5.4231 H         1 RES1    0.0000
     11 H2        -2.4097    3.5234    4.6178 H         1 RES1    0.0000
     12 C3        -2.6121    1.7422    3.4672 C.3       1 RES1    0.0000
     13 H3        -3.3533    1.1609    3.5460 H         1 RES1    0.0000
     14 H4        -2.6653    2.3300    2.6847 H         1 RES1    0.0000
@<TRIPOS>BOND
     1    1    7 2
     2    2    3 1
     3    3    4 2
     4    4    5 1
     5    5    8 2
     6    6    7 1
     7    8    2 1
     8    9    2 1
     9   10    9 1
    10   11    9 1
    11   12    6 1
    12   13   12 1
    13   14   12 1
    14    6    8 1
    15    9   12 1
@<TRIPOS>SUBSTRUCTURE
     1 RES1 1

@<TRIPOS>CRYSIN
   6.0853    8.1184   11.6028  90.0000  99.6469  90.0000  14 1

