# MOL2 file generated by ConQuest
# Please check atom types

@<TRIPOS>MOLECULE
GEDXIX
    16    16     1
SMALL
NO_CHARGES
****
Generated from CSD

@<TRIPOS>ATOM
      1 O1        12.4119    1.4569   -0.0217 O.2       1 RES1    0.0000
      2 N1         8.8685    0.1980    1.4326 N.3       1 RES1    0.0000
      3 N2         7.9577   -0.5366    2.1184 N.2       1 RES1    0.0000
      4 N3         8.6130   -1.4824    2.6894 N.2       1 RES1    0.0000
      5 N4         9.9411   -1.4100    2.4087 N.2       1 RES1    0.0000
      6 N5        11.2788    0.0353    1.1123 N.pl3     1 RES1    0.0000
      7 N6        11.2955    1.1571    0.3885 N.2       1 RES1    0.0000
      8 C1        10.0568   -0.3647    1.6270 C.2       1 RES1    0.0000
      9 C2         8.3995    1.3104    0.6225 C.3       1 RES1    0.0000
     10 H1         7.4602    1.4401    0.7697 H         1 RES1    0.0000
     11 H2         8.5539    1.1183   -0.3056 H         1 RES1    0.0000
     12 H3         8.8743    2.1075    0.8678 H         1 RES1    0.0000
     13 C3        12.4611   -0.7617    1.3584 C.3       1 RES1    0.0000
     14 H4        12.2084   -1.6797    1.4814 H         1 RES1    0.0000
     15 H5        12.9029   -0.4434    2.1490 H         1 RES1    0.0000
     16 H6        13.0571   -0.6917    0.6088 H         1 RES1    0.0000
@<TRIPOS>BOND
     1    1    7 2
     2    2    3 1
     3    3    4 2
     4    4    5 1
     5    5    8 2
     6    6    7 1
     7    8    2 1
     8    9    2 1
     9   10    9 1
    10   11    9 1
    11   12    9 1
    12   13    6 1
    13   14   13 1
    14   15   13 1
    15   16   13 1
    16    6    8 1
@<TRIPOS>SUBSTRUCTURE
     1 RES1 1

@<TRIPOS>CRYSIN
  14.0450    5.7882    8.2310  90.0000 102.2850  90.0000  14 1

