# MOL2 file generated by ConQuest
# Please check atom types

@<TRIPOS>MOLECULE
GEFDAW
    43    45     1
SMALL
NO_CHARGES
****
Generated from CSD

@<TRIPOS>ATOM
      1 C1         2.3613   11.3342    1.6521 C.ar      1 RES1    0.0000
      2 C2         1.6857   12.3825    2.2275 C.ar      1 RES1    0.0000
      3 C3         0.9373   12.1512    3.3793 C.ar      1 RES1    0.0000
      4 O1         0.2553   13.2555    3.8398 O.3       1 RES1    0.0000
      5 C4        -0.6464   13.0746    4.9147 C.3       1 RES1    0.0000
      6 C5         0.9132   10.9014    3.9668 C.ar      1 RES1    0.0000
      7 C6         1.6273    9.8680    3.3571 C.ar      1 RES1    0.0000
      8 C7         2.3424   10.0470    2.1942 C.ar      1 RES1    0.0000
      9 C8         2.9797    8.9297    1.3973 C.3       1 RES1    0.0000
     10 C9         3.3226    7.6854    2.1979 C.ar      1 RES1    0.0000
     11 C10        4.1341    7.8104    3.3181 C.ar      1 RES1    0.0000
     12 C11        4.5609    6.6987    4.0168 C.ar      1 RES1    0.0000
     13 C12        4.2052    5.4320    3.5924 C.ar      1 RES1    0.0000
     14 C13        3.3944    5.2977    2.4833 C.ar      1 RES1    0.0000
     15 C14        2.9647    6.4188    1.7957 C.ar      1 RES1    0.0000
     16 O2         2.0551    8.5864    0.3317 O.3       1 RES1    0.0000
     17 N1         2.6192    8.9483   -0.9637 N.3       1 RES1    0.0000
     18 C15        2.8323    7.6817   -1.6605 C.3       1 RES1    0.0000
     19 C16        1.5784    9.7113   -1.6419 C.3       1 RES1    0.0000
     20 C17        1.2075   11.0208   -0.9831 C.3       1 RES1    0.0000
     21 C18        2.3420   11.9479   -0.6468 C.3       1 RES1    0.0000
     22 O3         3.1071   11.5151    0.4967 O.3       1 RES1    0.0000
     23 H1         1.7106   13.2816    1.8347 H         1 RES1    0.0000
     24 H2        -1.3272   12.4236    4.6608 H         1 RES1    0.0000
     25 H3        -0.1837   12.7034    5.6708 H         1 RES1    0.0000
     26 H4        -1.1461   13.8226    5.2631 H         1 RES1    0.0000
     27 H5         0.4265   10.7634    4.8090 H         1 RES1    0.0000
     28 H6         1.6182    8.9726    3.7898 H         1 RES1    0.0000
     29 H7         3.8228    9.2524    1.0007 H         1 RES1    0.0000
     30 H8         4.4357    8.6928    3.6137 H         1 RES1    0.0000
     31 H9         5.0965    6.8087    4.8276 H         1 RES1    0.0000
     32 H10        4.5192    4.6448    4.0863 H         1 RES1    0.0000
     33 H11        3.1355    4.4023    2.1775 H         1 RES1    0.0000
     34 H12        2.3834    6.3051    1.0193 H         1 RES1    0.0000
     35 H13        2.0249    7.1258   -1.6586 H         1 RES1    0.0000
     36 H14        3.1062    7.7787   -2.5574 H         1 RES1    0.0000
     37 H15        3.5117    7.1445   -1.2138 H         1 RES1    0.0000
     38 H16        1.8752    9.9053   -2.5481 H         1 RES1    0.0000
     39 H17        0.7861    9.1405   -1.7420 H         1 RES1    0.0000
     40 H18        0.5474   11.4536   -1.5104 H         1 RES1    0.0000
     41 H19        0.7714   10.7820   -0.1390 H         1 RES1    0.0000
     42 H20        2.8903   12.0505   -1.4270 H         1 RES1    0.0000
     43 H21        1.9620   12.8340   -0.4726 H         1 RES1    0.0000
@<TRIPOS>BOND
     1    1    2 ar
     2    2    3 ar
     3    3    4 1
     4    4    5 1
     5    5   24 1
     6    6    3 ar
     7    7    6 ar
     8    8    1 ar
     9    9    8 1
    10   10    9 1
    11   11   10 ar
    12   12   11 ar
    13   13   12 ar
    14   14   13 ar
    15   15   10 ar
    16   16    9 1
    17   17   16 1
    18   18   17 1
    19   19   17 1
    20   20   19 1
    21   21   20 1
    22   22    1 1
    23   23    2 1
    24   25    5 1
    25   26    5 1
    26   27    6 1
    27   28    7 1
    28   29    9 1
    29   30   11 1
    30   31   12 1
    31   32   13 1
    32   33   14 1
    33   34   15 1
    34   35   18 1
    35   36   18 1
    36   37   18 1
    37   38   19 1
    38   39   19 1
    39   40   20 1
    40   41   20 1
    41   42   21 1
    42   43   21 1
    43    7    8 ar
    44   14   15 ar
    45   21   22 1
@<TRIPOS>SUBSTRUCTURE
     1 RES1 1

@<TRIPOS>CRYSIN
   9.0510   18.6540    9.2670  90.0000  90.8500  90.0000  14 1

