# MOL2 file generated by ConQuest
# Please check atom types

@<TRIPOS>MOLECULE
GEFFUV
    48    53     1
SMALL
NO_CHARGES
****
Generated from CSD

@<TRIPOS>ATOM
      1 O1        -3.5046  -14.9635   -0.5781 O.3       1 RES1    0.0000
      2 O2        -0.6174  -14.8009   -0.2122 O.2       1 RES1    0.0000
      3 O3        -3.6527  -12.4345    4.2396 O.3       1 RES1    0.0000
      4 O4        -4.8127  -14.2836    3.6875 O.3       1 RES1    0.0000
      5 N1        -4.9409  -15.0033   -0.8229 N.3       1 RES1    0.0000
      6 C1        -2.3265  -14.7964    1.5344 C.3       1 RES1    0.0000
      7 C2        -2.9289  -13.5315    2.2394 C.3       1 RES1    0.0000
      8 C3        -3.8908  -12.6730    1.3766 C.3       1 RES1    0.0000
      9 H1        -4.0135  -11.8343    1.8474 H         1 RES1    0.0000
     10 H2        -3.4187  -12.4643    0.5562 H         1 RES1    0.0000
     11 C4        -5.3000  -13.1623    0.9668 C.3       1 RES1    0.0000
     12 H3        -5.5707  -13.8508    1.5929 H         1 RES1    0.0000
     13 H4        -5.9156  -12.4214    1.0725 H         1 RES1    0.0000
     14 C5        -5.4715  -13.7148   -0.4375 C.3       1 RES1    0.0000
     15 H5        -6.4247  -13.7379   -0.6147 H         1 RES1    0.0000
     16 H6        -5.0919  -13.0604   -1.0449 H         1 RES1    0.0000
     17 C6        -3.1672  -15.6904    0.6391 C.3       1 RES1    0.0000
     18 H7        -2.6083  -16.4520    0.3789 H         1 RES1    0.0000
     19 C7        -4.4735  -16.2492    1.1864 C.3       1 RES1    0.0000
     20 H8        -4.8001  -15.7204    1.9304 H         1 RES1    0.0000
     21 H9        -4.3729  -17.1701    1.4709 H         1 RES1    0.0000
     22 C8        -5.4002  -16.1381   -0.0260 C.3       1 RES1    0.0000
     23 H10       -5.3645  -16.9533   -0.5513 H         1 RES1    0.0000
     24 H11       -6.3157  -15.9981    0.2626 H         1 RES1    0.0000
     25 C9        -1.2107  -14.1989    0.6448 C.2       1 RES1    0.0000
     26 C10       -0.9355  -12.7823    1.0660 C.3       1 RES1    0.0000
     27 H12       -1.3410  -12.1482    0.4545 H         1 RES1    0.0000
     28 H13        0.0172  -12.6088    1.1197 H         1 RES1    0.0000
     29 C11       -1.5887  -12.7235    2.4418 C.3       1 RES1    0.0000
     30 H14       -1.7663  -11.7982    2.7142 H         1 RES1    0.0000
     31 C12       -1.5644  -15.6538    2.5874 C.3       1 RES1    0.0000
     32 H15       -2.1035  -16.4227    2.8337 H         1 RES1    0.0000
     33 H16       -0.7340  -15.9778    2.2044 H         1 RES1    0.0000
     34 C13       -1.2648  -14.8143    3.8339 C.3       1 RES1    0.0000
     35 H17       -0.6427  -15.2959    4.4193 H         1 RES1    0.0000
     36 C14       -0.6882  -13.4533    3.4696 C.3       1 RES1    0.0000
     37 H18        0.1994  -13.5685    3.0964 H         1 RES1    0.0000
     38 H19       -0.6088  -12.9114    4.2705 H         1 RES1    0.0000
     39 C15       -2.5823  -14.5934    4.5462 C.3       1 RES1    0.0000
     40 H20       -2.4262  -14.1443    5.3918 H         1 RES1    0.0000
     41 H21       -3.0027  -15.4472    4.7308 H         1 RES1    0.0000
     42 C16       -3.5006  -13.7449    3.6729 C.3       1 RES1    0.0000
     43 C17       -4.6889  -12.5321    5.1999 C.3       1 RES1    0.0000
     44 H22       -5.2435  -11.7372    5.1894 H         1 RES1    0.0000
     45 H23       -4.3212  -12.6450    6.0903 H         1 RES1    0.0000
     46 C18       -5.4691  -13.7175    4.8031 C.3       1 RES1    0.0000
     47 H24       -5.5082  -14.3543    5.5325 H         1 RES1    0.0000
     48 H25       -6.3747  -13.4601    4.5681 H         1 RES1    0.0000
@<TRIPOS>BOND
     1    1    5 1
     2    2   25 2
     3    3   42 1
     4    4   42 1
     5    5   14 1
     6    6    7 1
     7    7    8 1
     8    8    9 1
     9   10    8 1
    10   11    8 1
    11   12   11 1
    12   13   11 1
    13   14   11 1
    14   15   14 1
    15   16   14 1
    16   17    1 1
    17   18   17 1
    18   19   17 1
    19   20   19 1
    20   21   19 1
    21   22    5 1
    22   23   22 1
    23   24   22 1
    24   25    6 1
    25   26   25 1
    26   27   26 1
    27   28   26 1
    28   29    7 1
    29   30   29 1
    30   31    6 1
    31   32   31 1
    32   33   31 1
    33   34   31 1
    34   35   34 1
    35   36   29 1
    36   37   36 1
    37   38   36 1
    38   39   34 1
    39   40   39 1
    40   41   39 1
    41   42    7 1
    42   43    3 1
    43   44   43 1
    44   45   43 1
    45   46    4 1
    46   47   46 1
    47   48   46 1
    48    6   17 1
    49   19   22 1
    50   26   29 1
    51   34   36 1
    52   39   42 1
    53   43   46 1
@<TRIPOS>SUBSTRUCTURE
     1 RES1 1

@<TRIPOS>CRYSIN
   8.3782   22.5803    8.7664  90.0000 111.9440  90.0000  14 1

