# MOL2 file generated by ConQuest
# Please check atom types

@<TRIPOS>MOLECULE
GEFGOP
    30    32     1
SMALL
NO_CHARGES
****
Generated from CSD

@<TRIPOS>ATOM
      1 C1         1.2530    3.3933   -0.4108 C.3       1 RES1    0.0000
      2 H1         0.9251    4.2868   -0.6431 H         1 RES1    0.0000
      3 C2         0.6304    1.0711   -0.3302 C.3       1 RES1    0.0000
      4 H2         1.1131    0.8023   -1.1401 H         1 RES1    0.0000
      5 C3         1.5774    0.9344    0.8390 C.3       1 RES1    0.0000
      6 H3         2.0514    0.0902    0.7782 H         1 RES1    0.0000
      7 H4         1.0738    0.9392    1.6686 H         1 RES1    0.0000
      8 C4         2.5795    2.0836    0.8438 C.3       1 RES1    0.0000
      9 H5         3.2266    1.9847    1.5730 H         1 RES1    0.0000
     10 C5         2.4545    3.0367   -1.2167 C.3       1 RES1    0.0000
     11 H6         2.1921    2.5904   -2.0368 H         1 RES1    0.0000
     12 H7         2.9590    3.8341   -1.4442 H         1 RES1    0.0000
     13 C6         1.8258    3.3750    0.9615 C.3       1 RES1    0.0000
     14 H8         1.1394    3.3379    1.6457 H         1 RES1    0.0000
     15 H9         2.4125    4.1289    1.1250 H         1 RES1    0.0000
     16 C7        -0.5806    0.1866   -0.1999 C.ar      1 RES1    0.0000
     17 C8        -0.4302   -1.1871   -0.0545 C.ar      1 RES1    0.0000
     18 H10        0.4258   -1.5498   -0.0332 H         1 RES1    0.0000
     19 C9        -1.4996   -2.0131    0.0577 C.ar      1 RES1    0.0000
     20 H11       -1.3816   -2.9304    0.1533 H         1 RES1    0.0000
     21 C10       -2.7596   -1.4710    0.0284 C.ar      1 RES1    0.0000
     22 C11       -2.9616   -0.1231   -0.1122 C.ar      1 RES1    0.0000
     23 H12       -3.8220    0.2288   -0.1327 H         1 RES1    0.0000
     24 C12       -1.8669    0.6972   -0.2228 C.ar      1 RES1    0.0000
     25 H13       -1.9910    1.6142   -0.3144 H         1 RES1    0.0000
     26 N1        -3.9182   -2.3556    0.1264 N.pl3     1 RES1    0.0000
     27 O1         0.1959    2.4089   -0.5088 O.3       1 RES1    0.0000
     28 O2         3.2327    2.1709   -0.4069 O.3       1 RES1    0.0000
     29 O3        -3.7250   -3.5475    0.2425 O.2       1 RES1    0.0000
     30 O4        -5.0322   -1.8608    0.0964 O.2       1 RES1    0.0000
@<TRIPOS>BOND
     1    1    2 1
     2    3    4 1
     3    5    3 1
     4    6    5 1
     5    7    5 1
     6    8    5 1
     7    9    8 1
     8   10    1 1
     9   11   10 1
    10   12   10 1
    11   13    1 1
    12   14   13 1
    13   15   13 1
    14   16    3 1
    15   17   16 ar
    16   18   17 1
    17   19   17 ar
    18   20   19 1
    19   21   19 ar
    20   22   21 ar
    21   23   22 1
    22   24   16 ar
    23   25   24 1
    24   26   21 1
    25   27    1 1
    26   28    8 1
    27   29   26 2
    28   30   26 2
    29    3   27 1
    30    8   13 1
    31   10   28 1
    32   22   24 ar
@<TRIPOS>SUBSTRUCTURE
     1 RES1 1

@<TRIPOS>CRYSIN
   8.7441   16.1097    7.9006  90.0000  90.0000  90.0000  19 1

