# MOL2 file generated by ConQuest
# Please check atom types

@<TRIPOS>MOLECULE
GEFNAH01
    20    21     1
SMALL
NO_CHARGES
****
Generated from CSD

@<TRIPOS>ATOM
      1 O1         7.9699   -0.4244    5.7035 O.3       1 RES1    0.0000
      2 O2        10.1321   -0.1040    5.7283 O.2       1 RES1    0.0000
      3 O3         9.7476    2.9951    3.0301 O.2       1 RES1    0.0000
      4 O4        11.0863    1.8270    4.2111 O.2       1 RES1    0.0000
      5 O5         7.2658    2.6556    3.1011 O.3       1 RES1    0.0000
      6 N1         9.9588    2.0746    3.8464 N.pl3     1 RES1    0.0000
      7 C1         6.6925   -0.0573    5.3814 C.ar      1 RES1    0.0000
      8 C2         9.0832    0.2611    5.2812 C.2       1 RES1    0.0000
      9 C3         8.8350    1.3464    4.3380 C.2       1 RES1    0.0000
     10 C4         7.5530    1.6939    3.9387 C.2       1 RES1    0.0000
     11 C5         6.4311    0.9833    4.4994 C.ar      1 RES1    0.0000
     12 C6         5.0980    1.3122    4.2075 C.ar      1 RES1    0.0000
     13 C7         4.0780    0.6041    4.7852 C.ar      1 RES1    0.0000
     14 C8         4.3549   -0.4399    5.6574 C.ar      1 RES1    0.0000
     15 C9         5.6628   -0.7814    5.9608 C.ar      1 RES1    0.0000
     16 H1         8.1561    3.0232    2.7506 H         1 RES1    0.0000
     17 H2         4.9048    2.0339    3.6201 H         1 RES1    0.0000
     18 H3         3.1770    0.8286    4.6050 H         1 RES1    0.0000
     19 H4         3.6414   -0.8989    6.0602 H         1 RES1    0.0000
     20 H5         5.9452   -1.5267    6.6103 H         1 RES1    0.0000
@<TRIPOS>BOND
     1    1    7 1
     2    2    8 2
     3    3    6 2
     4    4    6 2
     5    5   10 1
     6    6    9 1
     7    7   11 ar
     8    8    1 1
     9    9    8 1
    10   10    9 2
    11   11   10 1
    12   12   11 ar
    13   13   12 ar
    14   14   13 ar
    15   15    7 ar
    16   16    5 1
    17   17   12 1
    18   18   13 1
    19   19   14 1
    20   20   15 1
    21   14   15 ar
@<TRIPOS>SUBSTRUCTURE
     1 RES1 1

@<TRIPOS>CRYSIN
  18.5788    5.0220    8.8729  90.0000  90.0000  90.0000  29 1

