# MOL2 file generated by ConQuest
# Please check atom types

@<TRIPOS>MOLECULE
GEFNAH
    20    21     1
SMALL
NO_CHARGES
****
Generated from CSD

@<TRIPOS>ATOM
      1 O1        10.6232   -0.4226    2.9851 O.3       1 RES1    0.0000
      2 C1         9.5059    0.2658    2.5646 C.2       1 RES1    0.0000
      3 C2         9.7561    1.3392    1.6261 C.2       1 RES1    0.0000
      4 C3        11.0387    1.6969    1.2233 C.2       1 RES1    0.0000
      5 C4        12.1624    0.9829    1.7804 C.ar      1 RES1    0.0000
      6 C5        13.4945    1.3110    1.4912 C.ar      1 RES1    0.0000
      7 H1        13.6851    2.0085    0.9057 H         1 RES1    0.0000
      8 C6        14.5197    0.6020    2.0714 C.ar      1 RES1    0.0000
      9 H2        15.4037    0.8226    1.8824 H         1 RES1    0.0000
     10 C7        14.2360   -0.4362    2.9354 C.ar      1 RES1    0.0000
     11 H3        14.9350   -0.9130    3.3222 H         1 RES1    0.0000
     12 C8        12.9324   -0.7789    3.2335 C.ar      1 RES1    0.0000
     13 H4        12.7496   -1.4864    3.8083 H         1 RES1    0.0000
     14 C9        11.9009   -0.0528    2.6613 C.ar      1 RES1    0.0000
     15 O2        11.3233    2.6582    0.3859 O.3       1 RES1    0.0000
     16 H5        10.6293    3.0170    0.1357 H         1 RES1    0.0000
     17 O3         8.4553   -0.1025    3.0099 O.2       1 RES1    0.0000
     18 N1         8.6277    2.0829    1.1337 N.pl3     1 RES1    0.0000
     19 O4         7.5006    1.8256    1.5001 O.2       1 RES1    0.0000
     20 O5         8.8414    3.0009    0.3140 O.2       1 RES1    0.0000
@<TRIPOS>BOND
     1    1    2 1
     2    2    3 1
     3    3    4 2
     4    4    5 1
     5    5    6 ar
     6    6    7 1
     7    8    6 ar
     8    9    8 1
     9   10    8 ar
    10   11   10 1
    11   12   10 ar
    12   13   12 1
    13   14    1 1
    14   15    4 1
    15   16   15 1
    16   17    2 2
    17   18    3 1
    18   19   18 2
    19   20   18 2
    20    5   14 ar
    21   12   14 ar
@<TRIPOS>SUBSTRUCTURE
     1 RES1 1

@<TRIPOS>CRYSIN
  18.5990    5.0250    8.8710  90.0000  90.0000  90.0000  29 1

