# MOL2 file generated by ConQuest
# Please check atom types

@<TRIPOS>MOLECULE
GEFXUM
    46    47     1
SMALL
NO_CHARGES
****
Generated from CSD

@<TRIPOS>ATOM
      1 O1         2.0964    7.9591   14.3070 O.3       1 RES1    0.0000
      2 C1         1.6861    9.0624   13.4866 C.3       1 RES1    0.0000
      3 H1         2.3980    9.6710   13.3820 H         1 RES1    0.0000
      4 C2         0.4784    9.6752   14.1934 C.3       1 RES1    0.0000
      5 H2         0.3300   10.5636   13.9765 H         1 RES1    0.0000
      6 H3        -0.3252    9.2106   13.9460 H         1 RES1    0.0000
      7 C3         0.7896    9.4328   15.6616 C.3       1 RES1    0.0000
      8 H4         0.0190    9.3669   16.1921 H         1 RES1    0.0000
      9 C4         1.5715    8.1138   15.6413 C.3       1 RES1    0.0000
     10 H5         2.2652    8.1275   16.2313 H         1 RES1    0.0000
     11 C5         0.7342    6.9167   16.0125 C.3       1 RES1    0.0000
     12 H6         1.2327    6.0871   15.8752 H         1 RES1    0.0000
     13 H7         0.4931    6.9406   16.9960 H         1 RES1    0.0000
     14 O2         1.6237   10.4670   16.2120 O.3       1 RES1    0.0000
     15 C6         0.8607   11.6250   16.5576 C.3       1 RES1    0.0000
     16 H8         0.4807   12.0203   15.7458 H         1 RES1    0.0000
     17 H9         1.4413   12.2792   16.9989 H         1 RES1    0.0000
     18 H10        0.1365   11.3695   17.1661 H         1 RES1    0.0000
     19 O3        -0.4451    6.8945   15.2150 O.3       1 RES1    0.0000
     20 C7        -1.2642    5.7867   15.5414 C.3       1 RES1    0.0000
     21 H11       -0.7813    4.9551   15.3504 H         1 RES1    0.0000
     22 H12       -2.0841    5.8172   15.0058 H         1 RES1    0.0000
     23 H13       -1.4944    5.8197   16.4930 H         1 RES1    0.0000
     24 N1         1.4077    8.5400   12.1566 N.am      1 RES1    0.0000
     25 C8         2.1622    8.9443   11.0978 C.2       1 RES1    0.0000
     26 N2         1.8267    8.3709    9.8489 N.am      1 RES1    0.0000
     27 O4         3.0456    9.7722   11.1606 O.2       1 RES1    0.0000
     28 C9         1.0446    7.2552    9.6807 C.2       1 RES1    0.0000
     29 C10        0.6700    6.5451   10.9950 C.3       1 RES1    0.0000
     30 C11        0.2932    7.6330   12.0006 C.3       1 RES1    0.0000
     31 H14        0.0740    7.2557   12.8615 H         1 RES1    0.0000
     32 C12        2.3705    9.0278    8.6496 C.3       1 RES1    0.0000
     33 H15        2.2302    8.4511    7.8693 H         1 RES1    0.0000
     34 H16        3.3301    9.1862    8.7706 H         1 RES1    0.0000
     35 H17        1.9135    9.8834    8.5104 H         1 RES1    0.0000
     36 O5         0.7111    6.8328    8.6005 O.2       1 RES1    0.0000
     37 C13       -0.4219    5.5260   10.7721 C.3       1 RES1    0.0000
     38 H18       -0.0398    4.7231   10.3596 H         1 RES1    0.0000
     39 H19       -1.1056    5.9039   10.1793 H         1 RES1    0.0000
     40 H20       -0.8287    5.2897   11.6316 H         1 RES1    0.0000
     41 O6         1.9693    5.9279   11.3044 O.3       1 RES1    0.0000
     42 N3         2.0157    5.0438   12.4151 N.pl3     1 RES1    0.0000
     43 O7         1.0616    4.9774   13.1431 O.2       1 RES1    0.0000
     44 O8         3.0601    4.4689   12.4729 O.2       1 RES1    0.0000
     45 O9        -0.8191    8.3156   11.4486 O.3       1 RES1    0.0000
     46 H21       -1.5645    8.1715   11.9209 H         1 RES1    0.0000
@<TRIPOS>BOND
     1    1    2 1
     2    2    3 1
     3    4    2 1
     4    5    4 1
     5    6    4 1
     6    7    4 1
     7    8    7 1
     8    9    1 1
     9   10    9 1
    10   11    9 1
    11   12   11 1
    12   13   11 1
    13   14    7 1
    14   15   14 1
    15   16   15 1
    16   17   15 1
    17   18   15 1
    18   19   11 1
    19   20   19 1
    20   21   20 1
    21   22   20 1
    22   23   20 1
    23   24    2 1
    24   25   24 1
    25   26   25 1
    26   27   25 2
    27   28   26 1
    28   29   28 1
    29   30   24 1
    30   31   30 1
    31   32   26 1
    32   33   32 1
    33   34   32 1
    34   35   32 1
    35   36   28 2
    36   37   29 1
    37   38   37 1
    38   39   37 1
    39   40   37 1
    40   41   29 1
    41   42   41 1
    42   43   42 2
    43   44   42 2
    44   45   30 1
    45   46   45 1
    46    7    9 1
    47   29   30 1
@<TRIPOS>SUBSTRUCTURE
     1 RES1 1

@<TRIPOS>CRYSIN
   9.4820   12.2108   14.5377  90.0000  90.0000  90.0000  19 1

