# MOL2 file generated by ConQuest
# Please check atom types

@<TRIPOS>MOLECULE
GEFYEX
    46    44     2
SMALL
NO_CHARGES
****
Generated from CSD

@<TRIPOS>ATOM
      1 O1         3.8959   -0.4167    9.9310 O.3       1 RES1    0.0000
      2 C1         3.4499    0.1918   11.1156 C.3       1 RES1    0.0000
      3 H1         4.1704    0.6673   11.4955 H         1 RES1    0.0000
      4 C2         2.9859   -0.9312   12.0588 C.3       1 RES1    0.0000
      5 H2         2.2670   -0.6180   12.6811 H         1 RES1    0.0000
      6 C3         2.5335   -1.9851   11.0392 C.3       1 RES1    0.0000
      7 H3         1.6308   -1.7341   10.7138 H         1 RES1    0.0000
      8 C4         3.5741   -1.8329    9.9376 C.3       1 RES1    0.0000
      9 H4         4.4026   -2.3291   10.1939 H         1 RES1    0.0000
     10 C5         3.1485   -2.2636    8.5589 C.3       1 RES1    0.0000
     11 H5         2.9889   -3.2397    8.5972 H         1 RES1    0.0000
     12 H6         3.8473   -2.0826    7.9390 H         1 RES1    0.0000
     13 O2         4.0943   -1.4491   12.7646 O.3       1 RES1    0.0000
     14 C6         4.4036   -0.6971   13.9412 C.3       1 RES1    0.0000
     15 H7         3.6185   -0.6690   14.5266 H         1 RES1    0.0000
     16 H8         4.6556    0.2153   13.6896 H         1 RES1    0.0000
     17 H9         5.1494   -1.1227   14.4141 H         1 RES1    0.0000
     18 O3         2.5504   -3.3200   11.4826 O.3       1 RES1    0.0000
     19 C7         1.6374   -3.5596   12.5533 C.3       1 RES1    0.0000
     20 H10        0.7280   -3.3367   12.2625 H         1 RES1    0.0000
     21 H11        1.8812   -3.0014   13.3208 H         1 RES1    0.0000
     22 H12        1.6762   -4.5038   12.8101 H         1 RES1    0.0000
     23 O4         1.9699   -1.5831    8.1903 O.3       1 RES1    0.0000
     24 C8         1.6030   -1.8589    6.8455 C.3       1 RES1    0.0000
     25 H13        1.3481   -2.8009    6.7627 H         1 RES1    0.0000
     26 H14        2.3629   -1.6733    6.2557 H         1 RES1    0.0000
     27 H15        0.8452   -1.2920    6.5913 H         1 RES1    0.0000
     28 N1         2.3488    1.1499   10.8012 N.am      1 RES1    0.0000
     29 C9         1.9978    2.0326   11.8278 C.2       1 RES1    0.0000
     30 N2         0.9425    2.8760   11.5538 N.am      1 RES1    0.0000
     31 O5         2.5795    2.0029   12.8966 O.2       1 RES1    0.0000
     32 C10        0.1994    2.9297   10.3495 C.2       1 RES1    0.0000
     33 C11        0.7482    2.0494    9.3303 C.2       1 RES1    0.0000
     34 C12        1.7767    1.2108    9.5772 C.2       1 RES1    0.0000
     35 H16        2.0700    0.6147    8.9217 H         1 RES1    0.0000
     36 C13        0.5135    3.7611   12.6479 C.3       1 RES1    0.0000
     37 H17       -0.1454    4.4035   12.3086 H         1 RES1    0.0000
     38 H18        1.2895    4.2441   13.0000 H         1 RES1    0.0000
     39 H19        0.1096    3.2250   13.3614 H         1 RES1    0.0000
     40 O6        -0.7838    3.6283   10.2748 O.2       1 RES1    0.0000
     41 N3         0.1677    1.9915    8.0107 N.pl3     1 RES1    0.0000
     42 O7        -0.9782    2.3929    7.8599 O.2       1 RES1    0.0000
     43 O8         0.8415    1.5099    7.1023 O.2       1 RES1    0.0000
     44 H20        0.9810    3.5126   13.4720 Du        2 SUP2    0.0000
     45 H21       -0.4534    3.6704   12.7806 Du        2 SUP2    0.0000
     46 H22        0.7260    4.6895   12.4192 Du        2 SUP2    0.0000
@<TRIPOS>BOND
     1    1    2 1
     2    2    3 1
     3    4    2 1
     4    5    4 1
     5    6    4 1
     6    7    6 1
     7    8    1 1
     8    9    8 1
     9   10    8 1
    10   11   10 1
    11   12   10 1
    12   13    4 1
    13   14   13 1
    14   15   14 1
    15   16   14 1
    16   17   14 1
    17   18    6 1
    18   19   18 1
    19   20   19 1
    20   21   19 1
    21   22   19 1
    22   23   10 1
    23   24   23 1
    24   25   24 1
    25   26   24 1
    26   27   24 1
    27   28    2 1
    28   29   28 1
    29   30   29 1
    30   31   29 2
    31   32   30 1
    32   33   32 1
    33   34   28 1
    34   35   34 1
    35   36   30 1
    36   37   36 1
    37   38   36 1
    38   39   36 1
    39   40   32 2
    40   41   33 1
    41   42   41 2
    42   43   41 2
    43    6    8 1
    44   33   34 2
@<TRIPOS>SUBSTRUCTURE
     1 RES1 1
     2 SUP2 44

@<TRIPOS>CRYSIN
   5.0489   16.4371   18.4371  90.0000  90.0000  90.0000  19 1

