# MOL2 file generated by ConQuest
# Please check atom types

@<TRIPOS>MOLECULE
GEFYAT
    46    47     1
SMALL
NO_CHARGES
****
Generated from CSD

@<TRIPOS>ATOM
      1 O1         1.8611    1.1789   19.9712 O.3       1 RES1    0.0000
      2 C1         0.6356    1.7676   19.5356 C.3       1 RES1    0.0000
      3 C2        -0.4706    0.8232   19.9740 C.3       1 RES1    0.0000
      4 C3         0.0821    0.1814   21.2340 C.3       1 RES1    0.0000
      5 C4         1.6048    0.1672   20.9805 C.3       1 RES1    0.0000
      6 C5         2.1308   -1.1654   20.5115 C.3       1 RES1    0.0000
      7 O2        -0.2656    0.9987   22.3372 O.3       1 RES1    0.0000
      8 C6        -0.0980    0.3311   23.5856 C.3       1 RES1    0.0000
      9 H1         0.8400    0.0698   23.6919 H         1 RES1    0.0000
     10 H2        -0.6649   -0.4687   23.6067 H         1 RES1    0.0000
     11 H3        -0.3548    0.9334   24.3145 H         1 RES1    0.0000
     12 O3         1.3163   -1.6267   19.4492 O.3       1 RES1    0.0000
     13 C7         1.6836   -2.9214   19.0330 C.3       1 RES1    0.0000
     14 H4         1.6745   -3.5273   19.8026 H         1 RES1    0.0000
     15 H5         2.5847   -2.8975   18.6482 H         1 RES1    0.0000
     16 H6         1.0488   -3.2404   18.3591 H         1 RES1    0.0000
     17 N1         0.7262    1.9470   18.0847 N.am      1 RES1    0.0000
     18 C8         0.5955    3.1959   17.5529 C.2       1 RES1    0.0000
     19 N2         0.7958    3.2947   16.1628 N.am      1 RES1    0.0000
     20 O4         0.3239    4.1854   18.2075 O.2       1 RES1    0.0000
     21 C9         0.8399    2.2255   15.2925 C.2       1 RES1    0.0000
     22 C10        0.5293    0.8732   15.9421 C.3       1 RES1    0.0000
     23 C11        1.2255    0.8218   17.3040 C.3       1 RES1    0.0000
     24 C12        0.9389    4.6380   15.5791 C.3       1 RES1    0.0000
     25 H7         0.1222    4.8704   15.0905 H         1 RES1    0.0000
     26 H8         1.7019    4.6473   14.9645 H         1 RES1    0.0000
     27 H9         1.0881    5.2909   16.2949 H         1 RES1    0.0000
     28 O5         1.0187    2.3651   14.1042 O.2       1 RES1    0.0000
     29 C13       -0.9924    0.7133   16.0031 C.3       1 RES1    0.0000
     30 H10       -1.2167   -0.0845   16.5265 H         1 RES1    0.0000
     31 H11       -1.3480    0.6190   15.0942 H         1 RES1    0.0000
     32 H12       -1.3872    1.5033   16.4283 H         1 RES1    0.0000
     33 O6         1.1481   -0.0474   14.9954 O.3       1 RES1    0.0000
     34 N3         1.1377   -1.4158   15.3399 N.pl3     1 RES1    0.0000
     35 O7         1.7870   -2.0704   14.5717 O.2       1 RES1    0.0000
     36 O8         0.5131   -1.7692   16.3092 O.2       1 RES1    0.0000
     37 O9         2.6091    0.8898   17.0543 O.3       1 RES1    0.0000
     38 H13        0.5317    2.6332   19.8785 H         1 RES1    0.0000
     39 H14       -0.5956    0.1277   19.2708 H         1 RES1    0.0000
     40 H15       -1.2787    1.3205   20.1583 H         1 RES1    0.0000
     41 H16       -0.2608   -0.7163   21.3628 H         1 RES1    0.0000
     42 H17        2.0840    0.4127   21.7723 H         1 RES1    0.0000
     43 H18        2.1068   -1.7902   21.2534 H         1 RES1    0.0000
     44 H19        3.0581   -1.1211   20.1954 H         1 RES1    0.0000
     45 H20        0.9941    0.0314   17.7476 H         1 RES1    0.0000
     46 H21        3.0453    0.7104   17.7680 H         1 RES1    0.0000
@<TRIPOS>BOND
     1    1    2 1
     2    2    3 1
     3    3    4 1
     4    4    5 1
     5    5    1 1
     6    6    5 1
     7    7    4 1
     8    8    7 1
     9    9    8 1
    10   10    8 1
    11   11    8 1
    12   12    6 1
    13   13   12 1
    14   14   13 1
    15   15   13 1
    16   16   13 1
    17   17    2 1
    18   18   17 1
    19   19   18 1
    20   20   18 2
    21   21   19 1
    22   22   21 1
    23   23   17 1
    24   24   19 1
    25   25   24 1
    26   26   24 1
    27   27   24 1
    28   28   21 2
    29   29   22 1
    30   30   29 1
    31   31   29 1
    32   32   29 1
    33   33   22 1
    34   34   33 1
    35   35   34 2
    36   36   34 2
    37   37   23 1
    38   38    2 1
    39   39    3 1
    40   40    3 1
    41   41    4 1
    42   42    5 1
    43   43    6 1
    44   44    6 1
    45   45   23 1
    46   46   37 1
    47   22   23 1
@<TRIPOS>SUBSTRUCTURE
     1 RES1 1

@<TRIPOS>CRYSIN
   9.1204    9.8252   18.5296  90.0000  90.0000  90.0000  19 1

