# MOL2 file generated by ConQuest
# Please check atom types

@<TRIPOS>MOLECULE
GEGFAA
    32    34     1
SMALL
NO_CHARGES
****
Generated from CSD

@<TRIPOS>ATOM
      1 O1         2.1623    4.3677    1.5790 O.3       1 RES1    0.0000
      2 O2         1.5870    2.2813    1.2254 O.2       1 RES1    0.0000
      3 O3         6.0457    5.1395    4.7800 O.2       1 RES1    0.0000
      4 O4         7.5015    3.5672    4.8397 O.2       1 RES1    0.0000
      5 N1         6.4100    3.9989    4.5092 N.pl3     1 RES1    0.0000
      6 C1         2.3853    3.0141    1.7288 C.2       1 RES1    0.0000
      7 C2         3.5524    2.6239    2.5104 C.ar      1 RES1    0.0000
      8 C3         3.7742    1.2692    2.7192 C.ar      1 RES1    0.0000
      9 H1         3.1850    0.6495    2.3535 H         1 RES1    0.0000
     10 C4         4.8408    0.8294    3.4505 C.ar      1 RES1    0.0000
     11 H2         4.9822   -0.0806    3.5779 H         1 RES1    0.0000
     12 C5         5.7035    1.7539    3.9965 C.ar      1 RES1    0.0000
     13 H3         6.4425    1.4673    4.4830 H         1 RES1    0.0000
     14 C6         5.4773    3.0951    3.8247 C.ar      1 RES1    0.0000
     15 C7         4.3987    3.6061    3.0704 C.ar      1 RES1    0.0000
     16 C8         4.0985    4.9754    2.7939 C.2       1 RES1    0.0000
     17 H4         4.6619    5.6395    3.1190 H         1 RES1    0.0000
     18 C9         3.0160    5.3233    2.0719 C.2       1 RES1    0.0000
     19 C10        2.5738    6.6798    1.7471 C.ar      1 RES1    0.0000
     20 C11        3.3446    7.7921    2.0616 C.ar      1 RES1    0.0000
     21 H5         4.1679    7.6768    2.4783 H         1 RES1    0.0000
     22 C12        2.9043    9.0633    1.7649 C.ar      1 RES1    0.0000
     23 H6         3.4377    9.7912    1.9918 H         1 RES1    0.0000
     24 C13        1.6869    9.2875    1.1378 C.ar      1 RES1    0.0000
     25 C14        0.9368    8.1815    0.8081 C.ar      1 RES1    0.0000
     26 H7         0.1227    8.2974    0.3727 H         1 RES1    0.0000
     27 C15        1.3638    6.9054    1.1073 C.ar      1 RES1    0.0000
     28 H8         0.8292    6.1807    0.8757 H         1 RES1    0.0000
     29 C16        1.2008   10.6806    0.8303 C.3       1 RES1    0.0000
     30 H9         0.4550   10.6331    0.2276 H         1 RES1    0.0000
     31 H10        1.9092   11.1839    0.4241 H         1 RES1    0.0000
     32 H11        0.9284   11.1117    1.6430 H         1 RES1    0.0000
@<TRIPOS>BOND
     1    1    6 1
     2    2    6 2
     3    3    5 2
     4    4    5 2
     5    5   14 1
     6    6    7 1
     7    7    8 ar
     8    8    9 1
     9   10    8 ar
    10   11   10 1
    11   12   10 ar
    12   13   12 1
    13   14   12 ar
    14   15    7 ar
    15   16   15 1
    16   17   16 1
    17   18    1 1
    18   19   18 1
    19   20   19 ar
    20   21   20 1
    21   22   20 ar
    22   23   22 1
    23   24   22 ar
    24   25   24 ar
    25   26   25 1
    26   27   19 ar
    27   28   27 1
    28   29   24 1
    29   30   29 1
    30   31   29 1
    31   32   29 1
    32   14   15 ar
    33   16   18 2
    34   25   27 ar
@<TRIPOS>SUBSTRUCTURE
     1 RES1 1

@<TRIPOS>CRYSIN
   5.8870   12.0270   18.4880  90.0000  96.8020  90.0000 231 1

