# MOL2 file generated by ConQuest
# Please check atom types

@<TRIPOS>MOLECULE
GEGGAD
    43    45     1
SMALL
NO_CHARGES
****
Generated from CSD

@<TRIPOS>ATOM
      1 O1         8.8186   12.5688    3.7809 O.2       1 RES1    0.0000
      2 O2         9.3502   12.8345    1.1638 O.3       1 RES1    0.0000
      3 N1         8.3567   11.9458    1.6328 N.am      1 RES1    0.0000
      4 C1         8.2816   11.8019    2.9930 C.2       1 RES1    0.0000
      5 C2         7.4342   10.6473    3.4905 C.3       1 RES1    0.0000
      6 H1         6.8198   11.0043    4.1797 H         1 RES1    0.0000
      7 H2         8.0381   10.0083    3.9440 H         1 RES1    0.0000
      8 C3         6.5970    9.8596    2.4926 C.3       1 RES1    0.0000
      9 C4         6.9772    9.9885    1.0312 C.3       1 RES1    0.0000
     10 C5         8.2084   10.8018    0.7231 C.3       1 RES1    0.0000
     11 H3         9.0082   10.2220    0.7958 H         1 RES1    0.0000
     12 H4         8.1555   11.1321   -0.2088 H         1 RES1    0.0000
     13 C6         5.7254   10.6638    1.5503 C.3       1 RES1    0.0000
     14 H5         4.8510   10.2793    1.2890 H         1 RES1    0.0000
     15 H6         5.7366   11.6499    1.6396 H         1 RES1    0.0000
     16 C7         6.8124    8.8023    0.1092 C.3       1 RES1    0.0000
     17 H7         6.8192    9.1093   -0.8215 H         1 RES1    0.0000
     18 H8         5.9614    8.3557    0.3000 H         1 RES1    0.0000
     19 H9         7.5498    8.1728    0.2513 H         1 RES1    0.0000
     20 C8         6.1621    8.5178    3.0016 C.ar      1 RES1    0.0000
     21 C9         4.8240    8.1582    3.1502 C.ar      1 RES1    0.0000
     22 H10        4.1421    8.7787    2.9225 H         1 RES1    0.0000
     23 C10        4.4748    6.8972    3.6298 C.ar      1 RES1    0.0000
     24 H11        3.5585    6.6612    3.7136 H         1 RES1    0.0000
     25 C11        5.4523    5.9876    3.9839 C.ar      1 RES1    0.0000
     26 H12        5.2108    5.1342    4.3250 H         1 RES1    0.0000
     27 C12        6.7888    6.3291    3.8382 C.ar      1 RES1    0.0000
     28 H13        7.4654    5.7049    4.0730 H         1 RES1    0.0000
     29 C13        7.1406    7.5800    3.3502 C.ar      1 RES1    0.0000
     30 H14        8.0589    7.8026    3.2515 H         1 RES1    0.0000
     31 C14        8.7861   14.1037    0.6708 C.3       1 RES1    0.0000
     32 C15        8.2175   14.8902    1.8369 C.3       1 RES1    0.0000
     33 H15        7.8997   15.7616    1.5200 H         1 RES1    0.0000
     34 H16        8.9152   15.0235    2.5124 H         1 RES1    0.0000
     35 H17        7.4704   14.3933    2.2321 H         1 RES1    0.0000
     36 C16        7.7298   13.8598   -0.3986 C.3       1 RES1    0.0000
     37 H18        7.4021   14.7194   -0.7357 H         1 RES1    0.0000
     38 H19        6.9842   13.3554   -0.0122 H         1 RES1    0.0000
     39 H20        8.1234   13.3488   -1.1356 H         1 RES1    0.0000
     40 C17       10.0057   14.7736    0.0716 C.3       1 RES1    0.0000
     41 H21        9.7713   15.6801   -0.2189 H         1 RES1    0.0000
     42 H22       10.3189   14.2544   -0.6979 H         1 RES1    0.0000
     43 H23       10.7161   14.8207    0.7451 H         1 RES1    0.0000
@<TRIPOS>BOND
     1    1    4 2
     2    2    3 1
     3    3    4 1
     4    4    5 1
     5    5    6 1
     6    7    5 1
     7    8    5 1
     8    9    8 1
     9   10    3 1
    10   11   10 1
    11   12   10 1
    12   13    8 1
    13   14   13 1
    14   15   13 1
    15   16    9 1
    16   17   16 1
    17   18   16 1
    18   19   16 1
    19   20    8 1
    20   21   20 ar
    21   22   21 1
    22   23   21 ar
    23   24   23 1
    24   25   23 ar
    25   26   25 1
    26   27   25 ar
    27   28   27 1
    28   29   20 ar
    29   30   29 1
    30   31    2 1
    31   32   31 1
    32   33   32 1
    33   34   32 1
    34   35   32 1
    35   36   31 1
    36   37   36 1
    37   38   36 1
    38   39   36 1
    39   40   31 1
    40   41   40 1
    41   42   40 1
    42   43   40 1
    43    9   10 1
    44    9   13 1
    45   27   29 ar
@<TRIPOS>SUBSTRUCTURE
     1 RES1 1

@<TRIPOS>CRYSIN
  10.1842   22.0350    6.8426  90.0000  99.1430  90.0000  14 1

