# MOL2 file generated by ConQuest
# Please check atom types

@<TRIPOS>MOLECULE
GEGGIL
    44    47     1
SMALL
NO_CHARGES
****
Generated from CSD

@<TRIPOS>ATOM
      1 N1         7.9288    0.4852    1.9163 N.pl3     1 RES1    0.0000
      2 H1         8.7615    0.4121    2.1915 H         1 RES1    0.0000
      3 C1         6.8377   -0.0684    2.5455 C.2       1 RES1    0.0000
      4 C2         5.6966    0.2217    1.8208 C.2       1 RES1    0.0000
      5 C3         6.1152    1.0182    0.6856 C.ar      1 RES1    0.0000
      6 C4         5.4864    1.6187   -0.4108 C.ar      1 RES1    0.0000
      7 H2         4.5463    1.5417   -0.5237 H         1 RES1    0.0000
      8 C5         6.2459    2.3276   -1.3332 C.ar      1 RES1    0.0000
      9 H3         5.8190    2.7293   -2.0802 H         1 RES1    0.0000
     10 C6         7.6327    2.4603   -1.1786 C.ar      1 RES1    0.0000
     11 H4         8.1298    2.9522   -1.8208 H         1 RES1    0.0000
     12 C7         8.2872    1.8871   -0.1089 C.ar      1 RES1    0.0000
     13 H5         9.2253    1.9848    0.0008 H         1 RES1    0.0000
     14 C8         7.5306    1.1633    0.8047 C.ar      1 RES1    0.0000
     15 C9         4.3380   -0.3225    2.1867 C.3       1 RES1    0.0000
     16 H6         4.4890   -1.1079    2.7873 H         1 RES1    0.0000
     17 C10        3.5412   -0.8311    0.9737 C.3       1 RES1    0.0000
     18 H7         2.7005   -1.2498    1.2883 H         1 RES1    0.0000
     19 H8         3.3013   -0.0635    0.3964 H         1 RES1    0.0000
     20 N2         4.3124   -1.8219    0.1746 N.pl3     1 RES1    0.0000
     21 O1         4.8553   -2.7415    0.7694 O.2       1 RES1    0.0000
     22 O2         4.3526   -1.6827   -1.0353 O.2       1 RES1    0.0000
     23 C11        7.0281   -0.8470    3.7777 C.ar      1 RES1    0.0000
     24 C12        6.2583   -0.6149    4.9236 C.ar      1 RES1    0.0000
     25 H9         5.5575    0.0270    4.9011 H         1 RES1    0.0000
     26 C13        6.5127   -1.3147    6.0862 C.ar      1 RES1    0.0000
     27 H10        5.9968   -1.1377    6.8637 H         1 RES1    0.0000
     28 C14        7.5082   -2.2672    6.1294 C.ar      1 RES1    0.0000
     29 H11        7.6712   -2.7482    6.9325 H         1 RES1    0.0000
     30 C15        8.2685   -2.5218    5.0036 C.ar      1 RES1    0.0000
     31 H12        8.9512   -3.1819    5.0300 H         1 RES1    0.0000
     32 C16        8.0331   -1.8146    3.8402 C.ar      1 RES1    0.0000
     33 H13        8.5633   -1.9889    3.0715 H         1 RES1    0.0000
     34 C17        3.4399    0.6565    2.9474 C.ar      1 RES1    0.0000
     35 C18        3.2243    1.9527    2.4926 C.ar      1 RES1    0.0000
     36 H14        3.6665    2.2551    1.7079 H         1 RES1    0.0000
     37 C19        2.3698    2.8098    3.1740 C.ar      1 RES1    0.0000
     38 H15        2.2356    3.6954    2.8593 H         1 RES1    0.0000
     39 C20        1.7112    2.3722    4.3150 C.ar      1 RES1    0.0000
     40 H16        1.1189    2.9549    4.7762 H         1 RES1    0.0000
     41 C21        1.9194    1.0920    4.7770 C.ar      1 RES1    0.0000
     42 H17        1.4713    0.7931    5.5593 H         1 RES1    0.0000
     43 C22        2.7831    0.2340    4.1020 C.ar      1 RES1    0.0000
     44 H18        2.9260   -0.6458    4.4311 H         1 RES1    0.0000
@<TRIPOS>BOND
     1    1    2 1
     2    3    1 1
     3    4    3 2
     4    5    4 1
     5    6    5 ar
     6    7    6 1
     7    8    6 ar
     8    9    8 1
     9   10    8 ar
    10   11   10 1
    11   12   10 ar
    12   13   12 1
    13   14    1 1
    14   15    4 1
    15   16   15 1
    16   17   15 1
    17   18   17 1
    18   19   17 1
    19   20   17 1
    20   21   20 2
    21   22   20 2
    22   23    3 1
    23   24   23 ar
    24   25   24 1
    25   26   24 ar
    26   27   26 1
    27   28   26 ar
    28   29   28 1
    29   30   28 ar
    30   31   30 1
    31   32   23 ar
    32   33   32 1
    33   34   15 1
    34   35   34 ar
    35   36   35 1
    36   37   35 ar
    37   38   37 1
    38   39   37 ar
    39   40   39 1
    40   41   39 ar
    41   42   41 1
    42   43   34 ar
    43   44   43 1
    44    5   14 ar
    45   12   14 ar
    46   30   32 ar
    47   41   43 ar
@<TRIPOS>SUBSTRUCTURE
     1 RES1 1

@<TRIPOS>CRYSIN
   7.8877   13.5114    8.1120  90.0000  99.2250  90.0000   4 1

