# MOL2 file generated by ConQuest
# Please check atom types

@<TRIPOS>MOLECULE
GEGGOR
    44    47     1
SMALL
NO_CHARGES
****
Generated from CSD

@<TRIPOS>ATOM
      1 N1         7.2825    0.8494    5.9241 N.pl3     1 RES1    0.0000
      2 H1         8.1147    0.9239    6.2012 H         1 RES1    0.0000
      3 C1         6.1895    1.3989    6.5512 C.2       1 RES1    0.0000
      4 C2         5.0531    1.1128    5.8282 C.2       1 RES1    0.0000
      5 C3         5.4717    0.3166    4.6942 C.ar      1 RES1    0.0000
      6 C4         4.8430   -0.2845    3.5934 C.ar      1 RES1    0.0000
      7 H2         3.9030   -0.2091    3.4791 H         1 RES1    0.0000
      8 C5         5.6020   -0.9883    2.6765 C.ar      1 RES1    0.0000
      9 H3         5.1741   -1.3879    1.9282 H         1 RES1    0.0000
     10 C6         6.9868   -1.1242    2.8262 C.ar      1 RES1    0.0000
     11 H4         7.4821   -1.6186    2.1838 H         1 RES1    0.0000
     12 C7         7.6413   -0.5502    3.8957 C.ar      1 RES1    0.0000
     13 H5         8.5798   -0.6461    4.0046 H         1 RES1    0.0000
     14 C8         6.8849    0.1701    4.8062 C.ar      1 RES1    0.0000
     15 C9         3.6888    1.6543    6.1929 C.3       1 RES1    0.0000
     16 H6         3.8380    2.4414    6.7916 H         1 RES1    0.0000
     17 C10        2.8917    2.1593    4.9801 C.3       1 RES1    0.0000
     18 H7         2.6537    1.3906    4.4036 H         1 RES1    0.0000
     19 H8         2.0513    2.5776    5.2936 H         1 RES1    0.0000
     20 N2         3.6660    3.1526    4.1793 N.pl3     1 RES1    0.0000
     21 O1         4.2077    4.0727    4.7710 O.2       1 RES1    0.0000
     22 O2         3.7024    3.0106    2.9687 O.2       1 RES1    0.0000
     23 C11        6.3803    2.1815    7.7880 C.ar      1 RES1    0.0000
     24 C12        5.6128    1.9422    8.9284 C.ar      1 RES1    0.0000
     25 H9         4.9154    1.2976    8.9041 H         1 RES1    0.0000
     26 C13        5.8671    2.6438   10.0969 C.ar      1 RES1    0.0000
     27 H10        5.3492    2.4697   10.8740 H         1 RES1    0.0000
     28 C14        6.8667    3.5937   10.1402 C.ar      1 RES1    0.0000
     29 H11        7.0356    4.0708   10.9445 H         1 RES1    0.0000
     30 C15        7.6220    3.8504    9.0123 C.ar      1 RES1    0.0000
     31 H12        8.3026    4.5118    9.0379 H         1 RES1    0.0000
     32 C16        7.3877    3.1452    7.8467 C.ar      1 RES1    0.0000
     33 H13        7.9185    3.3181    7.0776 H         1 RES1    0.0000
     34 C17        2.7947    0.6781    6.9538 C.ar      1 RES1    0.0000
     35 C18        2.1419    1.1002    8.1123 C.ar      1 RES1    0.0000
     36 H14        2.2878    1.9787    8.4443 H         1 RES1    0.0000
     37 C19        1.2764    0.2408    8.7855 C.ar      1 RES1    0.0000
     38 H15        0.8288    0.5395    9.5674 H         1 RES1    0.0000
     39 C20        1.0664   -1.0413    8.3233 C.ar      1 RES1    0.0000
     40 H16        0.4749   -1.6240    8.7855 H         1 RES1    0.0000
     41 C21        1.7222   -1.4770    7.1810 C.ar      1 RES1    0.0000
     42 H17        1.5879   -2.3632    6.8653 H         1 RES1    0.0000
     43 C22        2.5754   -0.6186    6.4964 C.ar      1 RES1    0.0000
     44 H18        3.0129   -0.9199    5.7086 H         1 RES1    0.0000
@<TRIPOS>BOND
     1    1    2 1
     2    3    1 1
     3    4    3 2
     4    5    4 1
     5    6    5 ar
     6    7    6 1
     7    8    6 ar
     8    9    8 1
     9   10    8 ar
    10   11   10 1
    11   12   10 ar
    12   13   12 1
    13   14    1 1
    14   15    4 1
    15   16   15 1
    16   17   15 1
    17   18   17 1
    18   19   17 1
    19   20   17 1
    20   21   20 2
    21   22   20 2
    22   23    3 1
    23   24   23 ar
    24   25   24 1
    25   26   24 ar
    26   27   26 1
    27   28   26 ar
    28   29   28 1
    29   30   28 ar
    30   31   30 1
    31   32   23 ar
    32   33   32 1
    33   34   15 1
    34   35   34 ar
    35   36   35 1
    36   37   35 ar
    37   38   37 1
    38   39   37 ar
    39   40   39 1
    40   41   39 ar
    41   42   41 1
    42   43   34 ar
    43   44   43 1
    44    5   14 ar
    45   12   14 ar
    46   30   32 ar
    47   41   43 ar
@<TRIPOS>SUBSTRUCTURE
     1 RES1 1

@<TRIPOS>CRYSIN
   7.8891   13.4883    8.1151  90.0000  99.1920  90.0000   4 1

