# MOL2 file generated by ConQuest
# Please check atom types

@<TRIPOS>MOLECULE
GEHVOG
    37    39     1
SMALL
NO_CHARGES
****
Generated from CSD

@<TRIPOS>ATOM
      1 C1         7.7776    4.3748    5.5074 C.3       1 RES1    0.0000
      2 C2         6.3581    4.2613    6.0443 C.3       1 RES1    0.0000
      3 C3         5.5667    3.7855    4.8337 C.3       1 RES1    0.0000
      4 C4         5.8591    0.2977    3.7293 C.ar      1 RES1    0.0000
      5 C5         6.7038   -0.1202    2.7126 C.ar      1 RES1    0.0000
      6 C6         6.2255   -1.0352    1.7918 C.ar      1 RES1    0.0000
      7 C7         4.9333   -1.5281    1.8378 C.ar      1 RES1    0.0000
      8 C8         4.1015   -1.0943    2.8414 C.ar      1 RES1    0.0000
      9 N1         7.1296   -1.4905    0.7256 N.pl3     1 RES1    0.0000
     10 O1         6.7342   -2.3674   -0.0350 O.2       1 RES1    0.0000
     11 O2         8.2276   -0.9611    0.6344 O.2       1 RES1    0.0000
     12 O3         9.5522    1.8600    5.8129 O.2       1 RES1    0.0000
     13 C9         4.5611   -0.1941    3.7914 C.ar      1 RES1    0.0000
     14 C10        8.7964    3.4665    3.3572 C.2       1 RES1    0.0000
     15 O4         9.1131    4.5530    2.9763 O.2       1 RES1    0.0000
     16 O5         9.1514    2.3305    2.7482 O.3       1 RES1    0.0000
     17 C11        9.9659    2.4626    1.5561 C.3       1 RES1    0.0000
     18 C12        6.4800    2.7561    4.1573 C.3       1 RES1    0.0000
     19 C13        6.3088    1.3256    4.7338 C.3       1 RES1    0.0000
     20 O6         7.6065    0.9331    5.2707 O.3       1 RES1    0.0000
     21 C14        8.4773    1.9584    5.2801 C.2       1 RES1    0.0000
     22 C15        7.9246    3.1712    4.5600 C.3       1 RES1    0.0000
     23 H1         8.4750    4.3371    6.2019 H         1 RES1    0.0000
     24 H2         7.8821    5.1837    4.9874 H         1 RES1    0.0000
     25 H3         6.0271    5.1286    6.3577 H         1 RES1    0.0000
     26 H4         6.3114    3.6083    6.7698 H         1 RES1    0.0000
     27 H5         5.4191    4.5219    4.2251 H         1 RES1    0.0000
     28 H6         4.7017    3.3962    5.0715 H         1 RES1    0.0000
     29 H7         7.5724    0.2086    2.6288 H         1 RES1    0.0000
     30 H8         4.6457   -2.1621    1.1965 H         1 RES1    0.0000
     31 H9         3.2283   -1.4215    2.8893 H         1 RES1    0.0000
     32 H10        3.9802    0.0856    4.4898 H         1 RES1    0.0000
     33 H11       10.0667    1.5792    1.1690 H         1 RES1    0.0000
     34 H12       10.8175    2.8504    1.8114 H         1 RES1    0.0000
     35 H13        9.5261    3.0505    0.9236 H         1 RES1    0.0000
     36 H14        6.3655    2.7422    3.1899 H         1 RES1    0.0000
     37 H15        5.6733    1.3434    5.4961 H         1 RES1    0.0000
@<TRIPOS>BOND
     1    1    2 1
     2    2    3 1
     3    3   18 1
     4    4    5 ar
     5    5    6 ar
     6    6    7 ar
     7    7    8 ar
     8    8   13 ar
     9    9    6 1
    10   10    9 2
    11   11    9 2
    12   12   21 2
    13   13    4 ar
    14   14   15 2
    15   16   14 1
    16   17   16 1
    17   18   19 1
    18   19    4 1
    19   20   19 1
    20   21   20 1
    21   22    1 1
    22   23    1 1
    23   24    1 1
    24   25    2 1
    25   26    2 1
    26   27    3 1
    27   28    3 1
    28   29    5 1
    29   30    7 1
    30   31    8 1
    31   32   13 1
    32   33   17 1
    33   34   17 1
    34   35   17 1
    35   36   18 1
    36   37   19 1
    37   14   22 1
    38   18   22 1
    39   21   22 1
@<TRIPOS>SUBSTRUCTURE
     1 RES1 1

@<TRIPOS>CRYSIN
   6.6885    7.8890   14.2710  76.9115  81.3249  83.2683   2 1

