# MOL2 file generated by ConQuest
# Please check atom types

@<TRIPOS>MOLECULE
GEHZEA
    60    68     2
SMALL
NO_CHARGES
****
Generated from CSD

@<TRIPOS>ATOM
      1 O1         3.1104    7.7738    1.6199 O.2       1 RES1    0.0000
      2 O2         1.5210    7.4586    3.1652 O.3       1 RES1    0.0000
      3 O3         2.9921    4.7710    5.8379 O.3       1 RES1    0.0000
      4 O4         0.7672    7.1862    7.3735 O.3       1 RES1    0.0000
      5 C1         3.6775    7.6533    3.9818 C.2       1 RES1    0.0000
      6 C2         2.9791    7.5672    6.5164 C.3       1 RES1    0.0000
      7 N1         0.8261    8.4751    6.7641 N.3       1 RES1    0.0000
      8 C3         2.8230    7.6447    2.7939 C.2       1 RES1    0.0000
      9 C4         2.0382    6.5054    7.1250 C.3       1 RES1    0.0000
     10 C5         2.8979    7.4760    5.0383 C.2       1 RES1    0.0000
     11 C6         1.4778    7.2902    4.6129 C.3       1 RES1    0.0000
     12 C7         0.9827    5.8686    4.9572 C.3       1 RES1    0.0000
     13 C8         2.2266    8.8847    6.8921 C.3       1 RES1    0.0000
     14 C9         0.6443    8.4338    5.2672 C.3       1 RES1    0.0000
     15 C10        1.7464    5.3471    6.1864 C.3       1 RES1    0.0000
     16 C11        1.1980    9.7994    4.8972 C.3       1 RES1    0.0000
     17 C12        2.3363   10.0532    5.9260 C.3       1 RES1    0.0000
     18 O5         8.6566    4.7358    0.3367 O.3       2 RES2    0.0000
     19 O6         6.2300    7.7041   -1.0654 O.3       2 RES2    0.0000
     20 C13        8.3278    7.5130   -0.0969 C.2       2 RES2    0.0000
     21 N2         7.4051    8.3522    2.4795 N.3       2 RES2    0.0000
     22 O7         7.5726    6.9952    2.9386 O.3       2 RES2    0.0000
     23 C14        6.5303    5.9547    0.6327 C.3       2 RES2    0.0000
     24 C15        8.7273    8.7203    1.9675 C.3       2 RES2    0.0000
     25 C16        8.5137    7.8185   -1.3733 C.2       2 RES2    0.0000
     26 C17        6.8761    7.3951    0.1969 C.3       2 RES2    0.0000
     27 C18        9.1258    7.4407    1.1535 C.3       2 RES2    0.0000
     28 C19        8.4388    9.9973    1.1947 C.3       2 RES2    0.0000
     29 C20        6.5320    8.4699    1.2653 C.3       2 RES2    0.0000
     30 C21        8.5360    6.3350    2.0575 C.3       2 RES2    0.0000
     31 O8         6.8934    8.1911   -3.1489 O.2       2 RES2    0.0000
     32 C22        7.7362    5.2869    1.2858 C.3       2 RES2    0.0000
     33 C23        7.2015    7.9338   -2.0032 C.2       2 RES2    0.0000
     34 C24        6.9416    9.8717    0.8130 C.3       2 RES2    0.0000
     35 H1         9.2150    5.9461    2.6074 H         2 RES2    0.0000
     36 H2        10.0901    7.3745    1.0039 H         2 RES2    0.0000
     37 H3         5.7579    5.9719    1.1994 H         2 RES2    0.0000
     38 H4         4.5967    7.8392    3.8803 H         1 RES1    0.0000
     39 H5         1.5411    9.8269    3.9348 H         1 RES1    0.0000
     40 H6         6.3992   10.5411    1.2800 H         2 RES2    0.0000
     41 H7         7.4512    4.6123    1.9449 H         2 RES2    0.0000
     42 H8         0.0431    5.8256    5.1200 H         1 RES1    0.0000
     43 H9         2.3889    6.1526    7.9764 H         1 RES1    0.0000
     44 H10        1.1771    5.2318    4.1837 H         1 RES1    0.0000
     45 H11        5.5302    8.3813    1.5005 H         2 RES2    0.0000
     46 H12        3.9197    7.5466    6.8587 H         1 RES1    0.0000
     47 H13        3.1737   10.1711    5.4756 H         1 RES1    0.0000
     48 H14        6.3325    5.3695   -0.1778 H         2 RES2    0.0000
     49 H15       -0.3634    8.2866    5.0312 H         1 RES1    0.0000
     50 H16        6.8252    9.9474   -0.1304 H         2 RES2    0.0000
     51 H17        2.4066    9.1471    7.8223 H         1 RES1    0.0000
     52 H18        9.0598   10.0506    0.4148 H         2 RES2    0.0000
     53 H19        0.4606   10.4207    5.0252 H         1 RES1    0.0000
     54 H20        9.3932    8.8287    2.7378 H         2 RES2    0.0000
     55 H21        1.1648    4.6553    6.6845 H         1 RES1    0.0000
     56 H22        2.2010   10.9456    6.4238 H         1 RES1    0.0000
     57 H23        9.2658    7.9596   -1.8252 H         2 RES2    0.0000
     58 H24        8.5519   10.7821    1.7422 H         2 RES2    0.0000
     59 H25        8.1208    4.3111   -0.2607 H         2 RES2    0.0000
     60 H26        2.8804    4.4488    4.9304 H         1 RES1    0.0000
@<TRIPOS>BOND
     1    1    8 2
     2    2    8 1
     3    3   15 1
     4    4    7 1
     5    5    8 1
     6    6    9 1
     7    7   13 1
     8    9    4 1
     9   10    5 2
    10   11    2 1
    11   12   11 1
    12   13    6 1
    13   14    7 1
    14   15    9 1
    15   16   14 1
    16   17   13 1
    17   18   32 1
    18   19   26 1
    19   20   25 2
    20   21   22 1
    21   22   30 1
    22   23   26 1
    23   24   21 1
    24   25   33 1
    25   26   20 1
    26   27   20 1
    27   28   24 1
    28   29   21 1
    29   30   27 1
    30   31   33 2
    31   32   23 1
    32   33   19 1
    33   34   28 1
    34   35   30 1
    35   36   27 1
    36   37   23 1
    37   38    5 1
    38   39   16 1
    39   40   34 1
    40   41   32 1
    41   42   12 1
    42   43    9 1
    43   44   12 1
    44   45   29 1
    45   46    6 1
    46   47   17 1
    47   48   23 1
    48   49   14 1
    49   50   34 1
    50   51   13 1
    51   52   28 1
    52   53   16 1
    53   54   24 1
    54   55   15 1
    55   56   17 1
    56   57   25 1
    57   58   28 1
    58   59   18 1
    59   60    3 1
    60    6   10 1
    61   10   11 1
    62   11   14 1
    63   12   15 1
    64   16   17 1
    65   24   27 1
    66   26   29 1
    67   29   34 1
    68   30   32 1
@<TRIPOS>SUBSTRUCTURE
     1 RES1 1
     2 RES2 18

@<TRIPOS>CRYSIN
  10.1645    8.6050   11.9296  90.0000  96.5410  90.0000   4 1

