# MOL2 file generated by ConQuest
# Please check atom types

@<TRIPOS>MOLECULE
GEJBED
    36    39     1
SMALL
NO_CHARGES
****
Generated from CSD

@<TRIPOS>ATOM
      1 O1         7.2621    5.8422    4.9546 O.3       1 RES1    0.0000
      2 O2         0.3999    1.4912    3.9575 O.3       1 RES1    0.0000
      3 N1         4.0715    5.2511    6.1828 N.pl3     1 RES1    0.0000
      4 N2         6.1779    6.1053    5.8286 N.2       1 RES1    0.0000
      5 N3         3.0144    3.4731    5.1302 N.2       1 RES1    0.0000
      6 N4         1.2328    2.6369    3.9020 N.2       1 RES1    0.0000
      7 C1         1.9838    4.8227    7.0108 C.ar      1 RES1    0.0000
      8 C2         0.7220    4.3073    7.3002 C.ar      1 RES1    0.0000
      9 C3        -0.0329    4.9372    8.2779 C.ar      1 RES1    0.0000
     10 C4         0.4512    6.0571    8.9381 C.ar      1 RES1    0.0000
     11 C5         1.7044    6.5712    8.6483 C.ar      1 RES1    0.0000
     12 C6         2.4689    5.9307    7.6835 C.ar      1 RES1    0.0000
     13 C7         3.8515    6.2600    7.2201 C.3       1 RES1    0.0000
     14 C8         2.9974    4.3876    6.0186 C.2       1 RES1    0.0000
     15 C9         5.2729    5.2196    5.4946 C.2       1 RES1    0.0000
     16 C10        5.7063    4.3742    4.4480 C.2       1 RES1    0.0000
     17 C11        6.9449    4.8096    4.1585 C.2       1 RES1    0.0000
     18 C12        7.9718    4.4020    3.1726 C.3       1 RES1    0.0000
     19 C13        1.9676    2.5678    4.9746 C.2       1 RES1    0.0000
     20 C14        1.6668    1.4193    5.7406 C.2       1 RES1    0.0000
     21 C15        0.6986    0.7941    5.0693 C.2       1 RES1    0.0000
     22 C16       -0.0619   -0.4664    5.2662 C.3       1 RES1    0.0000
     23 H1         0.3950    3.5623    6.8501 H         1 RES1    0.0000
     24 H2        -0.8733    4.6039    8.4935 H         1 RES1    0.0000
     25 H3        -0.0739    6.4687    9.5856 H         1 RES1    0.0000
     26 H4         2.0241    7.3249    9.0892 H         1 RES1    0.0000
     27 H5         3.8977    7.1574    6.8555 H         1 RES1    0.0000
     28 H6         4.4964    6.1737    7.9394 H         1 RES1    0.0000
     29 H7         5.2401    3.6749    4.0502 H         1 RES1    0.0000
     30 H8         8.8421    4.4646    3.5726 H         1 RES1    0.0000
     31 H9         7.9288    4.9811    2.4081 H         1 RES1    0.0000
     32 H10        7.8106    3.4965    2.8978 H         1 RES1    0.0000
     33 H11        2.0599    1.1559    6.5415 H         1 RES1    0.0000
     34 H12       -0.9761   -0.3326    5.0054 H         1 RES1    0.0000
     35 H13       -0.0262   -0.7207    6.1914 H         1 RES1    0.0000
     36 H14        0.3259   -1.1613    4.7291 H         1 RES1    0.0000
@<TRIPOS>BOND
     1    1    4 1
     2    2    6 1
     3    3   13 1
     4    4   15 2
     5    5   14 2
     6    6   19 2
     7    7    8 ar
     8    8    9 ar
     9    9   10 ar
    10   10   11 ar
    11   11   12 ar
    12   12    7 ar
    13   13   12 1
    14   14    3 1
    15   15    3 1
    16   16   15 1
    17   17    1 1
    18   18   17 1
    19   19    5 1
    20   20   19 1
    21   21    2 1
    22   22   21 1
    23   23    8 1
    24   24    9 1
    25   25   10 1
    26   26   11 1
    27   27   13 1
    28   28   13 1
    29   29   16 1
    30   30   18 1
    31   31   18 1
    32   32   18 1
    33   33   20 1
    34   34   22 1
    35   35   22 1
    36   36   22 1
    37    7   14 1
    38   16   17 2
    39   20   21 2
@<TRIPOS>SUBSTRUCTURE
     1 RES1 1

@<TRIPOS>CRYSIN
  13.5698    7.8257   13.6527  90.0000 100.6900  90.0000  14 1

