# MOL2 file generated by ConQuest
# Please check atom types

@<TRIPOS>MOLECULE
GEJBON
    21    21     1
SMALL
NO_CHARGES
****
Generated from CSD

@<TRIPOS>ATOM
      1 C1         9.5452    3.4652   14.5051 C.ar      1 RES1    0.0000
      2 N1         8.3256    2.8277   14.3761 N.3       1 RES1    0.0000
      3 N2         7.5902    2.5765   15.4763 N.2       1 RES1    0.0000
      4 C2         6.5130    1.8862   15.3516 C.2       1 RES1    0.0000
      5 C3         5.7876    1.6010   16.5698 C.2       1 RES1    0.0000
      6 O1         4.8274    0.8586   16.6263 O.2       1 RES1    0.0000
      7 C4        10.4054    3.7199   13.4156 C.ar      1 RES1    0.0000
      8 N3        10.0723    3.3502   12.0638 N.pl3     1 RES1    0.0000
      9 O2         9.0608    2.6587   11.8581 O.2       1 RES1    0.0000
     10 O3        10.7878    3.7187   11.1484 O.2       1 RES1    0.0000
     11 C5        11.6455    4.3340   13.6111 C.ar      1 RES1    0.0000
     12 C6        12.0480    4.7044   14.8601 C.ar      1 RES1    0.0000
     13 C7        11.2072    4.4902   15.9263 C.ar      1 RES1    0.0000
     14 C8         9.9844    3.8783   15.7600 C.ar      1 RES1    0.0000
     15 H1         8.0323    2.5882   13.5826 H         1 RES1    0.0000
     16 H2         6.2106    1.5798   14.5063 H         1 RES1    0.0000
     17 H3         6.0780    2.0182   17.3724 H         1 RES1    0.0000
     18 H4        12.2128    4.4947   12.8678 H         1 RES1    0.0000
     19 H5        12.8993    5.1054   14.9931 H         1 RES1    0.0000
     20 H6        11.4733    4.7689   16.7954 H         1 RES1    0.0000
     21 H7         9.4288    3.7353   16.5152 H         1 RES1    0.0000
@<TRIPOS>BOND
     1    1    2 1
     2    2    3 1
     3    3    4 2
     4    4    5 1
     5    5    6 2
     6    7    1 ar
     7    8    7 1
     8    9    8 2
     9   10    8 2
    10   11    7 ar
    11   12   11 ar
    12   13   12 ar
    13   14    1 ar
    14   15    2 1
    15   16    4 1
    16   17    5 1
    17   18   11 1
    18   19   12 1
    19   20   13 1
    20   21   14 1
    21   13   14 ar
@<TRIPOS>SUBSTRUCTURE
     1 RES1 1

@<TRIPOS>CRYSIN
  18.6700    3.7723   23.8960  90.0000  96.4290  90.0000  15 1

