# MOL2 file generated by ConQuest
# Please check atom types

@<TRIPOS>MOLECULE
GEJLAI
    64    66     2
SMALL
NO_CHARGES
****
Generated from CSD

@<TRIPOS>ATOM
      1 O1        16.8803    3.1845    6.7833 O.2       1 RES1    0.0000
      2 O2        16.8452    5.2383    7.4467 O.2       1 RES1    0.0000
      3 N1         8.6468    4.4218    5.4451 N.3       1 RES1    0.0000
      4 N2        16.3279    4.2765    6.9322 N.pl3     1 RES1    0.0000
      5 C1         7.5365    4.2868    6.2653 C.ar      1 RES1    0.0000
      6 C2         7.6067    4.3348    7.6476 C.ar      1 RES1    0.0000
      7 C3         6.4575    4.2952    8.4184 C.ar      1 RES1    0.0000
      8 C4         5.2140    4.1889    7.8304 C.ar      1 RES1    0.0000
      9 C5         5.1360    4.1090    6.4602 C.ar      1 RES1    0.0000
     10 C6         6.2741    4.1597    5.6790 C.ar      1 RES1    0.0000
     11 C7        10.0067    4.3409    5.9639 C.3       1 RES1    0.0000
     12 C8        10.9954    4.7758    4.9108 C.3       1 RES1    0.0000
     13 C9        12.4071    4.6623    5.4079 C.ar      1 RES1    0.0000
     14 C10       13.1073    3.4830    5.2806 C.ar      1 RES1    0.0000
     15 C11       14.3832    3.3443    5.7812 C.ar      1 RES1    0.0000
     16 C12       14.9551    4.4186    6.4082 C.ar      1 RES1    0.0000
     17 C13       14.3048    5.6094    6.5485 C.ar      1 RES1    0.0000
     18 C14       13.0218    5.7278    6.0375 C.ar      1 RES1    0.0000
     19 H1         8.5703    4.1876    4.6076 H         1 RES1    0.0000
     20 H2         8.4334    4.3811    8.0807 H         1 RES1    0.0000
     21 H3         6.5405    4.3171    9.4491 H         1 RES1    0.0000
     22 H4         4.4136    4.1873    8.2885 H         1 RES1    0.0000
     23 H5         4.2371    4.0421    6.0107 H         1 RES1    0.0000
     24 H6         6.2085    4.1309    4.6509 H         1 RES1    0.0000
     25 H7        10.2312    3.4243    6.2532 H         1 RES1    0.0000
     26 H8        10.0713    5.0043    6.6949 H         1 RES1    0.0000
     27 H9        10.9102    4.2741    4.1399 H         1 RES1    0.0000
     28 H10       10.8065    5.6700    4.6336 H         1 RES1    0.0000
     29 H11       12.6610    2.7574    4.8588 H         1 RES1    0.0000
     30 H12       14.8749    2.5259    5.6643 H         1 RES1    0.0000
     31 H13       14.7424    6.3166    7.0067 H         1 RES1    0.0000
     32 H14       12.4861    6.6001    6.0800 H         1 RES1    0.0000
     33 O3         8.9681    0.8719    6.2575 O.2       2 RES2    0.0000
     34 O4         8.9937   -1.1434    5.5222 O.2       2 RES2    0.0000
     35 N3         0.7698   -0.4399    7.5255 N.3       2 RES2    0.0000
     36 N4         8.4419   -0.2155    6.0869 N.pl3     2 RES2    0.0000
     37 C15       -0.3485   -0.3235    6.7088 C.ar      2 RES2    0.0000
     38 C16       -0.2809   -0.3546    5.3247 C.ar      2 RES2    0.0000
     39 C17       -1.4356   -0.3064    4.5695 C.ar      2 RES2    0.0000
     40 C18       -2.6787   -0.2157    5.1585 C.ar      2 RES2    0.0000
     41 C19       -2.7488   -0.1629    6.5252 C.ar      2 RES2    0.0000
     42 C20       -1.6124   -0.2155    7.2951 C.ar      2 RES2    0.0000
     43 C21        2.1169   -0.4613    6.9790 C.3       2 RES2    0.0000
     44 C22        3.1022   -0.9244    8.0270 C.3       2 RES2    0.0000
     45 C23        4.5177   -0.7655    7.5394 C.ar      2 RES2    0.0000
     46 C24        5.1982    0.4249    7.7403 C.ar      2 RES2    0.0000
     47 C25        6.4736    0.6104    7.2726 C.ar      2 RES2    0.0000
     48 C26        7.0722   -0.4140    6.5892 C.ar      2 RES2    0.0000
     49 C27        6.4402   -1.6106    6.3606 C.ar      2 RES2    0.0000
     50 C28        5.1615   -1.7741    6.8413 C.ar      2 RES2    0.0000
     51 H15        0.6587   -0.2224    8.3665 H         2 RES2    0.0000
     52 H16        0.5543   -0.4085    4.8761 H         2 RES2    0.0000
     53 H17       -1.3701   -0.3209    3.5856 H         2 RES2    0.0000
     54 H18       -3.5052   -0.1919    4.6596 H         2 RES2    0.0000
     55 H19       -3.6583   -0.0075    6.8681 H         2 RES2    0.0000
     56 H20       -1.6502   -0.1906    8.3145 H         2 RES2    0.0000
     57 H21        2.4173    0.4552    6.7209 H         2 RES2    0.0000
     58 H22        2.1819   -1.1422    6.2532 H         2 RES2    0.0000
     59 H23        2.9334   -0.3830    8.8515 H         2 RES2    0.0000
     60 H24        2.8934   -1.8220    8.2366 H         2 RES2    0.0000
     61 H25        4.7913    1.1040    8.2019 H         2 RES2    0.0000
     62 H26        6.9490    1.3761    7.4571 H         2 RES2    0.0000
     63 H27        6.8784   -2.2750    5.8115 H         2 RES2    0.0000
     64 H28        4.6950   -2.5325    6.6776 H         2 RES2    0.0000
@<TRIPOS>BOND
     1    1    4 2
     2    2    4 2
     3    3    5 1
     4    4   16 1
     5    5    6 ar
     6    6    7 ar
     7    7    8 ar
     8    8    9 ar
     9    9   10 ar
    10   10    5 ar
    11   11    3 1
    12   12   11 1
    13   13   12 1
    14   14   13 ar
    15   15   14 ar
    16   16   15 ar
    17   17   16 ar
    18   18   13 ar
    19   19    3 1
    20   20    6 1
    21   21    7 1
    22   22    8 1
    23   23    9 1
    24   24   10 1
    25   25   11 1
    26   26   11 1
    27   27   12 1
    28   28   12 1
    29   29   14 1
    30   30   15 1
    31   31   17 1
    32   32   18 1
    33   33   36 2
    34   34   36 2
    35   35   37 1
    36   36   48 1
    37   37   38 ar
    38   38   39 ar
    39   39   40 ar
    40   40   41 ar
    41   41   42 ar
    42   42   37 ar
    43   43   35 1
    44   44   43 1
    45   45   44 1
    46   46   45 ar
    47   47   46 ar
    48   48   47 ar
    49   49   48 ar
    50   50   45 ar
    51   51   35 1
    52   52   38 1
    53   53   39 1
    54   54   40 1
    55   55   41 1
    56   56   42 1
    57   57   43 1
    58   58   43 1
    59   59   44 1
    60   60   44 1
    61   61   46 1
    62   62   47 1
    63   63   49 1
    64   64   50 1
    65   17   18 ar
    66   49   50 ar
@<TRIPOS>SUBSTRUCTURE
     1 RES1 1
     2 RES2 33

@<TRIPOS>CRYSIN
  15.1060    9.5730    9.4270 113.2200  91.2700  83.6100   2 1

