# MOL2 file generated by ConQuest
# Please check atom types

@<TRIPOS>MOLECULE
GEJLEM
    38    39     1
SMALL
NO_CHARGES
****
Generated from CSD

@<TRIPOS>ATOM
      1 O1        10.5682    3.4465    1.0459 O.2       1 RES1    0.0000
      2 O2        10.8533    1.9826   -0.4972 O.2       1 RES1    0.0000
      3 N1         3.1484   -0.4376    2.1132 N.3       1 RES1    0.0000
      4 N2        10.2506    2.4230    0.4653 N.pl3     1 RES1    0.0000
      5 C1         2.8270   -1.4822    1.2644 C.ar      1 RES1    0.0000
      6 C2         3.5288   -1.7203    0.0781 C.ar      1 RES1    0.0000
      7 C3         3.1496   -2.7233   -0.7938 C.ar      1 RES1    0.0000
      8 C4         2.0767   -3.5604   -0.5452 C.ar      1 RES1    0.0000
      9 C5         1.3930   -3.3274    0.6340 C.ar      1 RES1    0.0000
     10 C6         1.7465   -2.3427    1.5148 C.ar      1 RES1    0.0000
     11 C7         4.3799    0.3119    1.9161 C.3       1 RES1    0.0000
     12 C8         5.6451   -0.4083    2.3441 C.3       1 RES1    0.0000
     13 C9         6.8825    0.3046    1.8788 C.ar      1 RES1    0.0000
     14 C10        7.2929    1.4902    2.4914 C.ar      1 RES1    0.0000
     15 C11        8.3903    2.1842    2.0297 C.ar      1 RES1    0.0000
     16 C12        9.0714    1.6882    0.9518 C.ar      1 RES1    0.0000
     17 C13        8.7066    0.5245    0.3179 C.ar      1 RES1    0.0000
     18 C14        7.6071   -0.1527    0.7902 C.ar      1 RES1    0.0000
     19 C15        1.6925   -4.6584   -1.4757 C.3       1 RES1    0.0000
     20 C16        2.5385   -0.3557    3.4166 C.3       1 RES1    0.0000
     21 H1         4.3145   -1.1761   -0.2486 H         1 RES1    0.0000
     22 H2         3.7072   -2.9293   -1.6160 H         1 RES1    0.0000
     23 H3         0.6453   -3.8059    0.8346 H         1 RES1    0.0000
     24 H4         1.2863   -2.2426    2.2730 H         1 RES1    0.0000
     25 H5         4.3482    1.1907    2.3618 H         1 RES1    0.0000
     26 H6         4.4495    0.5040    0.9944 H         1 RES1    0.0000
     27 H7         5.6810   -1.2491    1.9889 H         1 RES1    0.0000
     28 H8         5.6430   -0.4821    3.3740 H         1 RES1    0.0000
     29 H9         6.7902    1.8555    3.2675 H         1 RES1    0.0000
     30 H10        8.6670    2.9731    2.3796 H         1 RES1    0.0000
     31 H11        9.2954    0.1753   -0.4084 H         1 RES1    0.0000
     32 H12        7.3891   -1.0373    0.3729 H         1 RES1    0.0000
     33 H13        2.3365   -4.9673   -2.1842 H         1 RES1    0.0000
     34 H14        0.9995   -4.4487   -2.0067 H         1 RES1    0.0000
     35 H15        1.4339   -5.4933   -1.1365 H         1 RES1    0.0000
     36 H16        1.5267   -0.2776    3.2142 H         1 RES1    0.0000
     37 H17        2.6992   -1.1250    3.9778 H         1 RES1    0.0000
     38 H18        2.8046    0.3287    3.8890 H         1 RES1    0.0000
@<TRIPOS>BOND
     1    1    4 2
     2    2    4 2
     3    3    5 1
     4    4   16 1
     5    5    6 ar
     6    6    7 ar
     7    7    8 ar
     8    8    9 ar
     9    9   10 ar
    10   10    5 ar
    11   11    3 1
    12   12   11 1
    13   13   12 1
    14   14   13 ar
    15   15   14 ar
    16   16   15 ar
    17   17   16 ar
    18   18   13 ar
    19   19    8 1
    20   20    3 1
    21   21    6 1
    22   22    7 1
    23   23    9 1
    24   24   10 1
    25   25   11 1
    26   26   11 1
    27   27   12 1
    28   28   12 1
    29   29   14 1
    30   30   15 1
    31   31   17 1
    32   32   18 1
    33   33   19 1
    34   34   19 1
    35   35   19 1
    36   36   20 1
    37   37   20 1
    38   38   20 1
    39   17   18 ar
@<TRIPOS>SUBSTRUCTURE
     1 RES1 1

@<TRIPOS>CRYSIN
   8.4350    8.4350   17.7580  90.0000  90.0000 120.0000 144 1

