# MOL2 file generated by ConQuest
# Please check atom types

@<TRIPOS>MOLECULE
GEJQET
    49    53     1
SMALL
NO_CHARGES
****
Generated from CSD

@<TRIPOS>ATOM
      1 N1         5.8313    8.1143    3.6446 N.2       1 RES1    0.0000
      2 C1         4.6262    8.5419    3.8379 C.2       1 RES1    0.0000
      3 O1         3.5175    6.7283    6.6754 O.2       1 RES1    0.0000
      4 N2         3.8049    8.0675    4.8602 N.am      1 RES1    0.0000
      5 C2         4.2459    7.1019    5.7716 C.2       1 RES1    0.0000
      6 O2         2.5528   14.4034   -2.0659 O.2       1 RES1    0.0000
      7 C3         5.5918    6.6124    5.5368 C.ar      1 RES1    0.0000
      8 O3         4.5449   15.1593   -1.7918 O.2       1 RES1    0.0000
      9 N3         3.6639   14.3448   -1.5743 N.pl3     1 RES1    0.0000
     10 C4         6.1331    5.6023    6.3329 C.ar      1 RES1    0.0000
     11 H1         5.6370    5.2458    7.0346 H         1 RES1    0.0000
     12 C5         7.3939    5.1375    6.0793 C.ar      1 RES1    0.0000
     13 H2         7.7537    4.4613    6.6064 H         1 RES1    0.0000
     14 C6         8.1362    5.6743    5.0366 C.ar      1 RES1    0.0000
     15 H3         8.9898    5.3479    4.8665 H         1 RES1    0.0000
     16 C7         7.6303    6.6726    4.2599 C.ar      1 RES1    0.0000
     17 H4         8.1477    7.0395    3.5785 H         1 RES1    0.0000
     18 C8         6.3322    7.1470    4.4858 C.ar      1 RES1    0.0000
     19 C9         4.1111    9.5801    2.9438 C.2       1 RES1    0.0000
     20 H5         3.2400    9.8928    3.0534 H         1 RES1    0.0000
     21 C10        4.8692   10.0997    1.9903 C.2       1 RES1    0.0000
     22 H6         5.7415    9.7470    1.9252 H         1 RES1    0.0000
     23 C11        4.5246   11.1632    1.0543 C.ar      1 RES1    0.0000
     24 C12        3.2150   11.4871    0.7419 C.ar      1 RES1    0.0000
     25 H7         2.5209   10.9845    1.1181 H         1 RES1    0.0000
     26 C13        2.9263   12.5091   -0.1259 C.ar      1 RES1    0.0000
     27 H8         2.0433   12.7111   -0.3653 H         1 RES1    0.0000
     28 C14        3.9611   13.2254   -0.6744 C.ar      1 RES1    0.0000
     29 C15        5.2643   12.9411   -0.3840 C.ar      1 RES1    0.0000
     30 H9         5.9265   13.4636   -0.7782 H         1 RES1    0.0000
     31 C16        5.5446   11.9023    0.4581 C.ar      1 RES1    0.0000
     32 H10        6.4700   11.6690    0.6644 H         1 RES1    0.0000
     33 C17        2.4170    8.4959    4.9810 C.ar      1 RES1    0.0000
     34 C18        1.4719    7.8944    4.2077 C.ar      1 RES1    0.0000
     35 H11        1.7248    7.2291    3.6091 H         1 RES1    0.0000
     36 C19        0.1264    8.2629    4.3000 C.ar      1 RES1    0.0000
     37 H12       -0.5107    7.8444    3.7671 H         1 RES1    0.0000
     38 C20       -0.2464    9.2411    5.1767 C.ar      1 RES1    0.0000
     39 H13       -1.1428    9.4816    5.2403 H         1 RES1    0.0000
     40 C21        0.7013    9.8891    5.9837 C.ar      1 RES1    0.0000
     41 C22        0.3583   10.9218    6.8756 C.ar      1 RES1    0.0000
     42 H14       -0.5287   11.1975    6.9276 H         1 RES1    0.0000
     43 C23        1.2758   11.5226    7.6560 C.ar      1 RES1    0.0000
     44 H15        1.0207   12.2027    8.2376 H         1 RES1    0.0000
     45 C24        2.6044   11.1237    7.5904 C.ar      1 RES1    0.0000
     46 H16        3.2306   11.5348    8.1425 H         1 RES1    0.0000
     47 C25        3.0096   10.1461    6.7381 C.ar      1 RES1    0.0000
     48 H17        3.9061    9.9006    6.7067 H         1 RES1    0.0000
     49 C26        2.0763    9.5029    5.9011 C.ar      1 RES1    0.0000
@<TRIPOS>BOND
     1    1    2 2
     2    2    4 1
     3    3    5 2
     4    4    5 1
     5    5    7 1
     6    6    9 2
     7    7   10 ar
     8    8    9 2
     9    9   28 1
    10   10   11 1
    11   12   10 ar
    12   13   12 1
    13   14   12 ar
    14   15   14 1
    15   16   14 ar
    16   17   16 1
    17   18    1 1
    18   19    2 1
    19   20   19 1
    20   21   19 2
    21   22   21 1
    22   23   21 1
    23   24   23 ar
    24   25   24 1
    25   26   24 ar
    26   27   26 1
    27   28   26 ar
    28   29   28 ar
    29   30   29 1
    30   31   23 ar
    31   32   31 1
    32   33    4 1
    33   34   33 ar
    34   35   34 1
    35   36   34 ar
    36   37   36 1
    37   38   36 ar
    38   39   38 1
    39   40   38 ar
    40   41   40 ar
    41   42   41 1
    42   43   41 ar
    43   44   43 1
    44   45   43 ar
    45   46   45 1
    46   47   45 ar
    47   48   47 1
    48   49   33 ar
    49    7   18 ar
    50   16   18 ar
    51   29   31 ar
    52   40   49 ar
    53   47   49 ar
@<TRIPOS>SUBSTRUCTURE
     1 RES1 1

@<TRIPOS>CRYSIN
  12.5866    9.7217   17.6790  90.0000 106.0270  90.0000 231 1

