# MOL2 file generated by ConQuest
# Please check atom types

@<TRIPOS>MOLECULE
GEJSOG
    38    38     1
SMALL
USER_CHARGES
****
Generated from CSD

@<TRIPOS>ATOM
      1 N1         4.8207    2.1807    2.3961 N.3       1 RES1    0.0000
      2 N2         4.6862    2.3546    3.7751 N.pl3     1 RES1    1.0000
      3 N3         3.5039    2.6422    4.1681 N.2       1 RES1    0.0000
      4 O1         5.6857    2.1416    4.5022 O.2       1 RES1   -1.0000
      5 O2         3.5143    2.5692    5.5626 O.3       1 RES1    0.0000
      6 O3         1.9547    4.1977    6.1493 O.3       1 RES1    0.0000
      7 C1         6.1383    2.5848    1.9035 C.3       1 RES1    0.0000
      8 H1         6.2453    2.2447    0.9799 H         1 RES1    0.0000
      9 H2         6.8291    2.1486    2.4630 H         1 RES1    0.0000
     10 C2         3.6509    2.5692    1.6199 C.3       1 RES1    0.0000
     11 H3         2.8814    2.0273    1.8947 H         1 RES1    0.0000
     12 H4         3.8280    2.4250    0.6667 H         1 RES1    0.0000
     13 H5         3.4551    3.5167    1.7755 H         1 RES1    0.0000
     14 C3         2.1893    2.8302    6.0374 C.3       1 RES1    0.0000
     15 H6         1.5319    2.4340    5.4118 H         1 RES1    0.0000
     16 H7         2.0665    2.4025    6.9219 H         1 RES1    0.0000
     17 C4         1.2731    4.7867    5.0328 C.3       1 RES1    0.0000
     18 H8         0.3008    4.6155    5.1034 H         1 RES1    0.0000
     19 H9         1.5989    4.3843    4.1893 H         1 RES1    0.0000
     20 N1A        2.8514    6.6794    4.5341 N.3       1 RES1    0.0000
     21 N2A        2.9859    6.5056    3.1551 N.pl3     1 RES1    1.0000
     22 N3A        4.1681    6.2179    2.7622 N.2       1 RES1    0.0000
     23 O1A        1.9864    6.7185    2.4280 O.2       1 RES1   -1.0000
     24 O2A        4.1577    6.2909    1.3676 O.3       1 RES1    0.0000
     25 O3A        5.7174    4.6624    0.7810 O.3       1 RES1    0.0000
     26 C1A        1.5338    6.2754    5.0268 C.3       1 RES1    0.0000
     27 H1A        1.4268    6.6154    5.9503 H         1 RES1    0.0000
     28 H2A        0.8429    6.7115    4.4672 H         1 RES1    0.0000
     29 C2A        4.0212    6.2909    5.3104 C.3       1 RES1    0.0000
     30 H3A        4.7907    6.8329    5.0355 H         1 RES1    0.0000
     31 H4A        3.8441    6.4351    6.2635 H         1 RES1    0.0000
     32 H5A        4.2170    5.3435    5.1547 H         1 RES1    0.0000
     33 C3A        5.4828    6.0299    0.8928 C.3       1 RES1    0.0000
     34 H6A        6.1402    6.4261    1.5184 H         1 RES1    0.0000
     35 H7A        5.6056    6.4577    0.0083 H         1 RES1    0.0000
     36 C4A        6.3990    4.0735    1.8974 C.3       1 RES1    0.0000
     37 H8A        7.3713    4.2447    1.8268 H         1 RES1    0.0000
     38 H9A        6.0732    4.4759    2.7409 H         1 RES1    0.0000
@<TRIPOS>BOND
     1    1    2 1
     2    2    3 2
     3    3    5 1
     4    4    2 1
     5    5   14 1
     6    6   14 1
     7    7    1 1
     8    8    7 1
     9    9    7 1
    10   10    1 1
    11   11   10 1
    12   12   10 1
    13   13   10 1
    14   14   15 1
    15   16   14 1
    16   17    6 1
    17   18   17 1
    18   19   17 1
    19   20   21 1
    20   21   22 2
    21   22   24 1
    22   23   21 1
    23   24   33 1
    24   25   33 1
    25   26   17 1
    26   27   26 1
    27   28   26 1
    28   29   20 1
    29   30   29 1
    30   31   29 1
    31   32   29 1
    32   33   34 1
    33   35   33 1
    34   36    7 1
    35   37   36 1
    36   38   36 1
    37   20   26 1
    38   25   36 1
@<TRIPOS>SUBSTRUCTURE
     1 RES1 1

@<TRIPOS>CRYSIN
   6.5565    7.0088    7.1970  74.5620  86.1380  84.8360   2 1

