# MOL2 file generated by ConQuest
# Please check atom types

@<TRIPOS>MOLECULE
GEJTUL
    65    68     1
SMALL
NO_CHARGES
****
Generated from CSD

@<TRIPOS>ATOM
      1 O1         0.5162    1.4105    4.3979 O.2       1 RES1    0.0000
      2 O2         1.3137   -0.0138    5.8159 O.2       1 RES1    0.0000
      3 O3         6.0622    4.2549    5.7564 O.2       1 RES1    0.0000
      4 O4         4.7123    4.8719    4.1930 O.2       1 RES1    0.0000
      5 N1         1.2043    1.1119    5.3524 N.pl3     1 RES1    0.0000
      6 N2         4.9555    4.2759    5.2265 N.pl3     1 RES1    0.0000
      7 N3         0.6967    1.9396    8.0972 N.3       1 RES1    0.0000
      8 C1         1.9981    2.1774    6.0124 C.ar      1 RES1    0.0000
      9 C2         1.7804    2.4439    7.3697 C.ar      1 RES1    0.0000
     10 C3         2.6986    3.3081    8.0198 C.ar      1 RES1    0.0000
     11 C4         3.7423    3.8459    7.2689 C.ar      1 RES1    0.0000
     12 H1         4.3605    4.4034    7.6832 H         1 RES1    0.0000
     13 C5         3.8756    3.5691    5.9319 C.ar      1 RES1    0.0000
     14 C6         3.0207    2.7234    5.2313 C.ar      1 RES1    0.0000
     15 C7         3.2875    2.3494    3.8291 C.2       1 RES1    0.0000
     16 H2         2.6136    2.4587    3.1976 H         1 RES1    0.0000
     17 C8         4.4544    1.8635    3.4399 C.2       1 RES1    0.0000
     18 H3         5.0734    1.6941    4.1139 H         1 RES1    0.0000
     19 C9         4.8873    1.5618    2.0784 C.ar      1 RES1    0.0000
     20 C10        4.2191    2.0307    0.9532 C.ar      1 RES1    0.0000
     21 H4         3.4478    2.5402    1.0630 H         1 RES1    0.0000
     22 C11        4.6694    1.7587   -0.3173 C.ar      1 RES1    0.0000
     23 H5         4.2002    2.0937   -1.0470 H         1 RES1    0.0000
     24 C12        5.8009    1.0029   -0.5331 C.ar      1 RES1    0.0000
     25 C13        6.4506    0.5106    0.5807 C.ar      1 RES1    0.0000
     26 H6         7.1968   -0.0325    0.4661 H         1 RES1    0.0000
     27 C14        6.0246    0.8022    1.8603 C.ar      1 RES1    0.0000
     28 H7         6.5086    0.4833    2.5877 H         1 RES1    0.0000
     29 C15        6.3086    0.7344   -1.9318 C.3       1 RES1    0.0000
     30 H8         5.5639    0.6329   -2.5281 H         1 RES1    0.0000
     31 H9         6.8315   -0.0706   -1.9328 H         1 RES1    0.0000
     32 H10        6.8536    1.4698   -2.2218 H         1 RES1    0.0000
     33 C16        2.5261    3.7071    9.4218 C.2       1 RES1    0.0000
     34 H11        1.6996    3.5340    9.8120 H         1 RES1    0.0000
     35 C17        3.4421    4.2925   10.1816 C.2       1 RES1    0.0000
     36 H12        4.2704    4.4429    9.7873 H         1 RES1    0.0000
     37 C18        3.2945    4.7276   11.5692 C.ar      1 RES1    0.0000
     38 C19        2.3486    4.2198   12.4312 C.ar      1 RES1    0.0000
     39 H13        1.7539    3.5732   12.1267 H         1 RES1    0.0000
     40 C20        2.2669    4.6549   13.7380 C.ar      1 RES1    0.0000
     41 H14        1.6281    4.2779   14.2991 H         1 RES1    0.0000
     42 C21        3.0997    5.6279   14.2355 C.ar      1 RES1    0.0000
     43 C22        4.0504    6.1234   13.3860 C.ar      1 RES1    0.0000
     44 H15        4.6373    6.7762   13.6935 H         1 RES1    0.0000
     45 C23        4.1584    5.6806   12.0856 C.ar      1 RES1    0.0000
     46 H16        4.8277    6.0292   11.5415 H         1 RES1    0.0000
     47 C24        2.9822    6.1075   15.6638 C.3       1 RES1    0.0000
     48 H17        3.8600    6.2571   16.0242 H         1 RES1    0.0000
     49 H18        2.5302    5.4436   16.1883 H         1 RES1    0.0000
     50 H19        2.4830    6.9273   15.6858 H         1 RES1    0.0000
     51 C25       -0.5979    1.6751    7.4760 C.3       1 RES1    0.0000
     52 H20       -0.6065    0.7768    7.1096 H         1 RES1    0.0000
     53 H21       -0.7443    2.2988    6.7480 H         1 RES1    0.0000
     54 C26       -1.7046    1.8189    8.5025 C.3       1 RES1    0.0000
     55 H22       -1.7514    2.7422    8.7955 H         1 RES1    0.0000
     56 H23       -2.5535    1.5915    8.0927 H         1 RES1    0.0000
     57 C27       -1.4703    0.9224    9.7018 C.3       1 RES1    0.0000
     58 H24       -1.5473   -0.0064    9.4345 H         1 RES1    0.0000
     59 H25       -2.1437    1.0991   10.3769 H         1 RES1    0.0000
     60 C28       -0.0887    1.1761   10.2790 C.3       1 RES1    0.0000
     61 H26       -0.0537    2.0697   10.6542 H         1 RES1    0.0000
     62 H27        0.0843    0.5436   10.9940 H         1 RES1    0.0000
     63 C29        0.9677    1.0344    9.2121 C.3       1 RES1    0.0000
     64 H28        1.8382    1.2360    9.5898 H         1 RES1    0.0000
     65 H29        0.9835    0.1190    8.8899 H         1 RES1    0.0000
@<TRIPOS>BOND
     1    1    5 2
     2    2    5 2
     3    3    6 2
     4    4    6 2
     5    5    8 1
     6    6   13 1
     7    7    9 1
     8    8    9 ar
     9    9   10 ar
    10   10   11 ar
    11   11   12 1
    12   13   11 ar
    13   14    8 ar
    14   15   14 1
    15   16   15 1
    16   17   15 2
    17   18   17 1
    18   19   17 1
    19   20   19 ar
    20   21   20 1
    21   22   20 ar
    22   23   22 1
    23   24   22 ar
    24   25   24 ar
    25   26   25 1
    26   27   19 ar
    27   28   27 1
    28   29   24 1
    29   30   29 1
    30   31   29 1
    31   32   29 1
    32   33   10 1
    33   34   33 1
    34   35   33 2
    35   36   35 1
    36   37   35 1
    37   38   37 ar
    38   39   38 1
    39   40   38 ar
    40   41   40 1
    41   42   40 ar
    42   43   42 ar
    43   44   43 1
    44   45   37 ar
    45   46   45 1
    46   47   42 1
    47   48   47 1
    48   49   47 1
    49   50   47 1
    50   51    7 1
    51   52   51 1
    52   53   51 1
    53   54   51 1
    54   55   54 1
    55   56   54 1
    56   57   54 1
    57   58   57 1
    58   59   57 1
    59   60   57 1
    60   61   60 1
    61   62   60 1
    62   63    7 1
    63   64   63 1
    64   65   63 1
    65   13   14 ar
    66   25   27 ar
    67   43   45 ar
    68   60   63 1
@<TRIPOS>SUBSTRUCTURE
     1 RES1 1

@<TRIPOS>CRYSIN
   8.2260   10.6130   14.8890  91.8900 102.4200  94.5800   2 1

