# MOL2 file generated by ConQuest
# Please check atom types

@<TRIPOS>MOLECULE
GEJXAU
    21    20     1
SMALL
NO_CHARGES
****
Generated from CSD

@<TRIPOS>ATOM
      1 O1         9.3774    6.6841   -2.5407 O.2       1 RES1    0.0000
      2 O2         7.2444    6.6434   -2.1031 O.2       1 RES1    0.0000
      3 O3         8.0939    3.5956    1.0254 O.2       1 RES1    0.0000
      4 O4         6.3258    4.4191    2.0110 O.2       1 RES1    0.0000
      5 O5         4.2492    3.5747   -1.8641 O.2       1 RES1    0.0000
      6 O6         2.4587    3.2298   -0.6368 O.2       1 RES1    0.0000
      7 O7         3.2263    7.2641    0.8582 O.2       1 RES1    0.0000
      8 O8         1.1123    7.4224    1.3899 O.2       1 RES1    0.0000
      9 N1         8.4862    4.9062   -1.5643 N.3       1 RES1    0.0000
     10 N2         6.4948    4.5291   -0.1868 N.3       1 RES1    0.0000
     11 N3         4.0592    4.5689    0.1065 N.3       1 RES1    0.0000
     12 N4         2.0552    5.4218    1.2377 N.3       1 RES1    0.0000
     13 N5         8.3702    6.1439   -2.1090 N.pl3     1 RES1    0.0000
     14 N6         7.0039    4.1651    1.0111 N.pl3     1 RES1    0.0000
     15 N7         3.5533    3.7444   -0.8543 N.pl3     1 RES1    0.0000
     16 N8         2.1314    6.7732    1.1730 N.pl3     1 RES1    0.0000
     17 C1         9.7668    4.2230   -1.7204 C.3       1 RES1    0.0000
     18 C2         7.2507    4.1661   -1.3807 C.3       1 RES1    0.0000
     19 C3         5.2712    5.3213   -0.2064 C.3       1 RES1    0.0000
     20 C4         3.3165    4.7082    1.3514 C.3       1 RES1    0.0000
     21 C5         0.8219    4.8228    1.7439 C.3       1 RES1    0.0000
@<TRIPOS>BOND
     1    1   13 2
     2    2   13 2
     3    3   14 2
     4    4   14 2
     5    5   15 2
     6    6   15 2
     7    7   16 2
     8    8   16 2
     9    9   13 1
    10   10   14 1
    11   11   15 1
    12   12   16 1
    13   17    9 1
    14   18    9 1
    15   19   10 1
    16   20   11 1
    17   21   12 1
    18   10   18 1
    19   11   19 1
    20   12   20 1
@<TRIPOS>SUBSTRUCTURE
     1 RES1 1

@<TRIPOS>CRYSIN
  20.9520    9.4770    6.5710  90.0000  96.2900  90.0000  14 1

