# MOL2 file generated by ConQuest
# Please check atom types

@<TRIPOS>MOLECULE
GEKHEJ
    20    20     1
SMALL
NO_CHARGES
****
Generated from CSD

@<TRIPOS>ATOM
      1 C1        11.8239    5.6863   -2.3360 C.ar      1 RES1    0.0000
      2 C2        12.9472    5.4660   -3.1514 C.ar      1 RES1    0.0000
      3 C3        13.6306    6.5167   -3.7267 C.ar      1 RES1    0.0000
      4 C4        13.2151    7.8001   -3.4884 C.ar      1 RES1    0.0000
      5 C5        12.1110    8.0468   -2.7098 C.ar      1 RES1    0.0000
      6 C6        11.4267    6.9946   -2.1442 C.ar      1 RES1    0.0000
      7 O1        11.1858    4.5951   -1.8265 O.3       1 RES1    0.0000
      8 C7        10.0410    4.8449   -1.0285 C.3       1 RES1    0.0000
      9 C8         9.4390    3.5327   -0.6082 C.2       1 RES1    0.0000
     10 O2        10.0393    2.4501   -0.8290 O.co2     1 RES1    0.0000
     11 O3         8.3216    3.6347   -0.0291 O.co2     1 RES1    0.0000
     12 N1        13.4313    4.1172   -3.4187 N.pl3     1 RES1    0.0000
     13 O4        13.8920    3.8845   -4.4976 O.2       1 RES1    0.0000
     14 O5        13.3730    3.2813   -2.5432 O.2       1 RES1    0.0000
     15 H1        14.3904    6.3478   -4.2903 H         1 RES1    0.0000
     16 H2        13.6976    8.5333   -3.8778 H         1 RES1    0.0000
     17 H3        11.8221    8.9497   -2.5587 H         1 RES1    0.0000
     18 H4        10.6571    7.1790   -1.5999 H         1 RES1    0.0000
     19 H5        10.2831    5.3524   -0.2499 H         1 RES1    0.0000
     20 H6         9.3981    5.3368   -1.5437 H         1 RES1    0.0000
@<TRIPOS>BOND
     1    1    2 ar
     2    2    3 ar
     3    3    4 ar
     4    4    5 ar
     5    5    6 ar
     6    6    1 ar
     7    7    1 1
     8    8    7 1
     9    9    8 1
    10   10    9 1
    11   11    9 2
    12   12    2 1
    13   13   12 2
    14   14   12 2
    15   15    3 1
    16   16    4 1
    17   17    5 1
    18   18    6 1
    19   19    8 1
    20   20    8 1
@<TRIPOS>SUBSTRUCTURE
     1 RES1 1

@<TRIPOS>CRYSIN
  11.4960    7.7830   19.5770  90.0000  98.3500  90.0000  15 1

