# MOL2 file generated by ConQuest
# Please check atom types

@<TRIPOS>MOLECULE
GEKKUE
    31    33     1
SMALL
USER_CHARGES
****
Generated from CSD

@<TRIPOS>ATOM
      1 N1        -3.2910    1.6420    6.7255 N.2       1 RES1    0.0000
      2 C1        -2.8675    1.6420    8.1049 C.3       1 RES1    0.0000
      3 N2        -1.3554    1.6420    8.0465 N.pl3     1 RES1    1.0000
      4 C2        -0.9939    1.6420    6.7705 C.2       1 RES1    0.0000
      5 C3         0.2895    1.6420    6.2025 C.2       1 RES1    0.0000
      6 H1         1.0623    1.6420    6.7196 H         1 RES1    0.0000
      7 C4         0.3229    1.6420    4.8564 C.2       1 RES1    0.0000
      8 C5        -0.8522    1.6420    4.0249 C.2       1 RES1    0.0000
      9 H2        -0.7603    1.6420    3.0992 H         1 RES1    0.0000
     10 C6        -2.0809    1.6420    4.5704 C.2       1 RES1    0.0000
     11 H3        -2.8363    1.6420    4.0291 H         1 RES1    0.0000
     12 C7        -2.2101    1.6420    6.0015 C.2       1 RES1    0.0000
     13 C8        -3.3203    0.3770    8.8297 C.3       1 RES1    0.0000
     14 H4        -3.1045   -0.3980    8.2876 H         1 RES1    0.0000
     15 H5        -2.8405    0.2982    9.6687 H         1 RES1    0.0000
     16 C9        -4.8115    0.3980    9.1057 C.3       1 RES1    0.0000
     17 H6        -5.2945    0.3639    8.2650 H         1 RES1    0.0000
     18 H7        -5.0538   -0.3868    9.6220 H         1 RES1    0.0000
     19 C10       -5.2168    1.6420    9.8663 C.3       1 RES1    0.0000
     20 H8        -4.7919    1.6420   10.7379 H         1 RES1    0.0000
     21 H9        -6.1773    1.6420    9.9998 H         1 RES1    0.0000
     22 N3         1.6293    1.6420    4.1867 N.pl3     1 RES1    0.0000
     23 O1        -0.6194    1.6420    9.0707 O.2       1 RES1   -1.0000
     24 O2         2.6348    1.6420    4.8915 O.2       1 RES1    0.0000
     25 O3         1.6549    1.6420    2.9707 O.2       1 RES1    0.0000
     26 C8F       -3.3203    2.9070    8.8297 C.3       1 RES1    0.0000
     27 H4F       -3.1045    3.6820    8.2876 H         1 RES1    0.0000
     28 H5F       -2.8405    2.9858    9.6687 H         1 RES1    0.0000
     29 C9F       -4.8115    2.8859    9.1057 C.3       1 RES1    0.0000
     30 H6F       -5.2945    2.9201    8.2650 H         1 RES1    0.0000
     31 H7F       -5.0538    3.6708    9.6220 H         1 RES1    0.0000
@<TRIPOS>BOND
     1    1    2 1
     2    2    3 1
     3    3    4 2
     4    4    5 1
     5    5    6 1
     6    7    5 2
     7    8    7 1
     8    9    8 1
     9   10    8 2
    10   11   10 1
    11   12    1 2
    12   13    2 1
    13   14   13 1
    14   15   13 1
    15   16   13 1
    16   17   16 1
    17   18   16 1
    18   19   16 1
    19   20   19 1
    20   21   19 1
    21   22    7 1
    22   23    3 1
    23   24   22 2
    24   25   22 2
    25   26    2 1
    26   27   26 1
    27   28   26 1
    28   29   19 1
    29   30   29 1
    30   31   29 1
    31    4   12 1
    32   10   12 1
    33   26   29 1
@<TRIPOS>SUBSTRUCTURE
     1 RES1 1

@<TRIPOS>CRYSIN
  21.1190    6.5679    8.3401  90.0000  90.0000  90.0000  62 1

