# MOL2 file generated by ConQuest
# Please check atom types

@<TRIPOS>MOLECULE
GEKKOY
    32    34     1
SMALL
USER_CHARGES
****
Generated from CSD

@<TRIPOS>ATOM
      1 O1         1.4771    1.5556    7.2564 O.2       1 RES1   -1.0000
      2 N1        -1.6235   -1.0211    6.5877 N.2       1 RES1    0.0000
      3 O2        -0.5614   -1.2460    7.4868 O.3       1 RES1    0.0000
      4 N2        -2.9335    1.2899    2.6531 N.pl3     1 RES1    0.0000
      5 O3        -3.9244    0.5868    2.5925 O.2       1 RES1    0.0000
      6 C1        -0.0201   -0.0958    8.1424 C.3       1 RES1    0.0000
      7 C2        -0.2957    0.9199    5.9446 C.2       1 RES1    0.0000
      8 O4        -2.6102    2.0865    1.7863 O.2       1 RES1    0.0000
      9 N3         0.4463    0.8460    7.0496 N.pl3     1 RES1    1.0000
     10 C3        -0.0019    1.8364    4.8879 C.2       1 RES1    0.0000
     11 H1         0.7823    2.3611    4.9293 H         1 RES1    0.0000
     12 C4        -0.8460    1.9421    3.8414 C.2       1 RES1    0.0000
     13 H2        -0.6849    2.5039    3.1162 H         1 RES1    0.0000
     14 C5        -2.0407    1.1548    3.8188 C.2       1 RES1    0.0000
     15 C6        -1.4424    0.0437    5.8523 C.2       1 RES1    0.0000
     16 C7        -2.3730    0.2626    4.7709 C.2       1 RES1    0.0000
     17 H3        -3.1662   -0.2564    4.7481 H         1 RES1    0.0000
     18 C8         1.1711   -0.6047    8.9316 C.3       1 RES1    0.0000
     19 H4         1.7988   -1.0466    8.3206 H         1 RES1    0.0000
     20 H5         1.5922    0.1681    9.2926 H         1 RES1    0.0000
     21 C9         0.7178   -1.5084   10.0756 C.3       1 RES1    0.0000
     22 H6         0.2947   -2.3157    9.7043 H         1 RES1    0.0000
     23 H7         1.5211   -1.7906   10.5599 H         1 RES1    0.0000
     24 C10       -0.2670   -0.7894   10.9797 C.3       1 RES1    0.0000
     25 H8         0.1778   -0.0498   11.3887 H         1 RES1    0.0000
     26 H9        -0.5759   -1.3909   11.6863 H         1 RES1    0.0000
     27 C11       -1.4680   -0.2990   10.1784 C.3       1 RES1    0.0000
     28 H10       -2.1311    0.1939   10.7456 H         1 RES1    0.0000
     29 H11       -1.9499   -1.0336    9.8139 H         1 RES1    0.0000
     30 C12       -1.0483    0.6056    9.0170 C.3       1 RES1    0.0000
     31 H12       -1.8273    0.8570    8.4683 H         1 RES1    0.0000
     32 H13       -0.6448    1.4142    9.3441 H         1 RES1    0.0000
@<TRIPOS>BOND
     1    1    9 1
     2    2    3 1
     3    3    6 1
     4    4    5 2
     5    6    9 1
     6    7    9 2
     7    8    4 2
     8   10    7 1
     9   11   10 1
    10   12   10 2
    11   13   12 1
    12   14    4 1
    13   15    2 2
    14   16   14 2
    15   17   16 1
    16   18    6 1
    17   19   18 1
    18   20   18 1
    19   21   18 1
    20   22   21 1
    21   23   21 1
    22   24   21 1
    23   25   24 1
    24   26   24 1
    25   27   24 1
    26   28   27 1
    27   29   27 1
    28   30    6 1
    29   31   30 1
    30   32   30 1
    31    7   15 1
    32   12   14 1
    33   15   16 1
    34   27   30 1
@<TRIPOS>SUBSTRUCTURE
     1 RES1 1

@<TRIPOS>CRYSIN
   5.8845    9.1128   11.6075 104.2850  93.0130 101.2710   2 1

