# MOL2 file generated by ConQuest
# Please check atom types

@<TRIPOS>MOLECULE
GEKKEO
    66    66     2
SMALL
NO_CHARGES
****
Generated from CSD

@<TRIPOS>ATOM
      1 O1         4.5527    9.3745    5.0521 O.2       1 RES1    0.0000
      2 O2         3.0639    9.8439    6.5629 O.2       1 RES1    0.0000
      3 O3         2.4895    5.1983    8.6847 O.2       1 RES1    0.0000
      4 O4         1.0576    4.0643    7.5339 O.2       1 RES1    0.0000
      5 O5         2.0930    6.0118    1.8184 O.2       1 RES1    0.0000
      6 O6         0.8343    4.6244    2.8609 O.2       1 RES1    0.0000
      7 O7         4.6854    7.2572    2.3393 O.2       1 RES1    0.0000
      8 O8         4.2453    9.3312    1.6043 O.3       1 RES1    0.0000
      9 O9         0.3294    8.1643    2.7585 O.2       1 RES1    0.0000
     10 O10        1.5756    8.8564    1.0312 O.3       1 RES1    0.0000
     11 N1         3.5625    9.1075    5.7326 N.pl3     1 RES1    0.0000
     12 N2         1.8865    4.9565    7.6584 N.pl3     1 RES1    0.0000
     13 N3         1.6295    5.5419    2.8364 N.pl3     1 RES1    0.0000
     14 C1         2.6919    8.3993    3.0824 C.3       1 RES1    0.0000
     15 H1         2.7577    9.2806    3.5052 H         1 RES1    0.0000
     16 C2         3.9887    8.2297    2.2947 C.2       1 RES1    0.0000
     17 C3         1.3994    8.4342    2.2698 C.2       1 RES1    0.0000
     18 C4         2.5819    7.4080    4.2273 C.ar      1 RES1    0.0000
     19 C5         2.9437    7.7877    5.5243 C.ar      1 RES1    0.0000
     20 C6         2.7465    7.0198    6.6564 C.ar      1 RES1    0.0000
     21 H2         2.9977    7.3202    7.4997 H         1 RES1    0.0000
     22 C7         2.1603    5.7889    6.4759 C.ar      1 RES1    0.0000
     23 C8         1.7887    5.3180    5.2373 C.ar      1 RES1    0.0000
     24 H3         1.3918    4.4829    5.1420 H         1 RES1    0.0000
     25 C9         2.0232    6.1259    4.1413 C.ar      1 RES1    0.0000
     26 C10        5.4023    9.2671    0.7270 C.3       1 RES1    0.0000
     27 H4         5.5063   10.1071    0.2728 H         1 RES1    0.0000
     28 H5         5.2750    8.5677    0.0823 H         1 RES1    0.0000
     29 H6         6.1877    9.0837    1.2471 H         1 RES1    0.0000
     30 C11        0.3510    9.0748    0.2854 C.3       1 RES1    0.0000
     31 H7         0.5663    9.3784   -0.5997 H         1 RES1    0.0000
     32 H8        -0.1815    9.7377    0.7318 H         1 RES1    0.0000
     33 H9        -0.1408    8.2530    0.2317 H         1 RES1    0.0000
     34 O11        9.0284    9.3097    5.7307 O.2       2 RES2    0.0000
     35 O12        7.4695    9.8204    4.3046 O.2       2 RES2    0.0000
     36 O13        6.6220    5.0183    2.4876 O.2       2 RES2    0.0000
     37 O14        5.0213    4.2024    3.7074 O.2       2 RES2    0.0000
     38 O15        6.5424    6.2801    9.2891 O.2       2 RES2    0.0000
     39 O16        5.3603    4.7465    8.3668 O.2       2 RES2    0.0000
     40 O17        9.1909    7.1585    8.4513 O.2       2 RES2    0.0000
     41 O18        8.9828    9.2019    9.3372 O.3       2 RES2    0.0000
     42 O19        4.9214    8.4585    8.3289 O.2       2 RES2    0.0000
     43 O20        6.2931    9.3187    9.8750 O.3       2 RES2    0.0000
     44 N4         7.9739    9.0882    5.1364 N.pl3     2 RES2    0.0000
     45 N5         5.9810    4.9466    3.5169 N.pl3     2 RES2    0.0000
     46 N6         6.0865    5.7199    8.3142 N.pl3     2 RES2    0.0000
     47 C12        7.2754    8.5045    7.8810 C.3       2 RES2    0.0000
     48 H10        7.4360    9.3554    7.4218 H         2 RES2    0.0000
     49 C13        6.0222    8.7317    8.7288 C.2       2 RES2    0.0000
     50 C14        8.5797    8.1833    8.6000 C.2       2 RES2    0.0000
     51 C15        7.0087    7.5007    6.7781 C.ar      2 RES2    0.0000
     52 C16        7.2901    7.8139    5.4464 C.ar      2 RES2    0.0000
     53 C17        6.9829    7.0186    4.3589 C.ar      2 RES2    0.0000
     54 H11        7.1852    7.2770    3.4879 H         2 RES2    0.0000
     55 C18        6.3596    5.8196    4.6349 C.ar      2 RES2    0.0000
     56 C19        6.0652    5.4073    5.9154 C.ar      2 RES2    0.0000
     57 H12        5.6498    4.5907    6.0730 H         2 RES2    0.0000
     58 C20        6.4071    6.2468    6.9609 C.ar      2 RES2    0.0000
     59 C21       10.2234    9.0150   10.0502 C.3       2 RES2    0.0000
     60 H13       10.4273    9.8081   10.5525 H         2 RES2    0.0000
     61 H14       10.9307    8.8423    9.4223 H         2 RES2    0.0000
     62 H15       10.1389    8.2702   10.6499 H         2 RES2    0.0000
     63 C22        5.1386    9.6308   10.7010 C.3       2 RES2    0.0000
     64 H16        5.4311   10.0539   11.5116 H         2 RES2    0.0000
     65 H17        4.6694    8.8207   10.9140 H         2 RES2    0.0000
     66 H18        4.5539   10.2235   10.2234 H         2 RES2    0.0000
@<TRIPOS>BOND
     1    1   11 2
     2    2   11 2
     3    3   12 2
     4    4   12 2
     5    5   13 2
     6    6   13 2
     7    7   16 2
     8    8   16 1
     9    9   17 2
    10   10   17 1
    11   11   19 1
    12   12   22 1
    13   13   25 1
    14   14   15 1
    15   16   14 1
    16   17   14 1
    17   18   14 1
    18   19   18 ar
    19   20   19 ar
    20   21   20 1
    21   22   20 ar
    22   23   22 ar
    23   24   23 1
    24   25   18 ar
    25   26    8 1
    26   27   26 1
    27   28   26 1
    28   29   26 1
    29   30   10 1
    30   31   30 1
    31   32   30 1
    32   33   30 1
    33   34   44 2
    34   35   44 2
    35   36   45 2
    36   37   45 2
    37   38   46 2
    38   39   46 2
    39   40   50 2
    40   41   50 1
    41   42   49 2
    42   43   49 1
    43   44   52 1
    44   45   55 1
    45   46   58 1
    46   47   48 1
    47   49   47 1
    48   50   47 1
    49   51   47 1
    50   52   51 ar
    51   53   52 ar
    52   54   53 1
    53   55   53 ar
    54   56   55 ar
    55   57   56 1
    56   58   51 ar
    57   59   41 1
    58   60   59 1
    59   61   59 1
    60   62   59 1
    61   63   43 1
    62   64   63 1
    63   65   63 1
    64   66   63 1
    65   23   25 ar
    66   56   58 ar
@<TRIPOS>SUBSTRUCTURE
     1 RES1 1
     2 RES2 34

@<TRIPOS>CRYSIN
   8.9399   14.3730   21.9970  90.0000 100.1830  90.0000 231 1

