# MOL2 file generated by ConQuest
# Please check atom types

@<TRIPOS>MOLECULE
GEKMEP
    46    48     1
SMALL
NO_CHARGES
****
Generated from CSD

@<TRIPOS>ATOM
      1 O1         4.8062   10.6529    9.9876 O.3       1 RES1    0.0000
      2 H1         4.2816   10.5445   10.6073 H         1 RES1    0.0000
      3 N1         5.4493    9.3875   10.1215 N.2       1 RES1    0.0000
      4 C1         7.5827    4.8662    6.9161 C.3       1 RES1    0.0000
      5 C2         8.8712    3.9877    6.8867 C.3       1 RES1    0.0000
      6 H2         9.6485    4.5481    6.8287 H         1 RES1    0.0000
      7 H3         8.8376    3.4309    6.1055 H         1 RES1    0.0000
      8 C3         9.1114    3.2286    8.1118 C.3       1 RES1    0.0000
      9 H4         9.8500    2.6183    8.0519 H         1 RES1    0.0000
     10 H5         8.3041    2.7155    8.1936 H         1 RES1    0.0000
     11 C4         9.1935    4.1070    9.3301 C.3       1 RES1    0.0000
     12 H6        10.1124    4.3779    9.3921 H         1 RES1    0.0000
     13 H7         8.9858    3.5974   10.1168 H         1 RES1    0.0000
     14 C5         8.2867    5.3215    9.2904 C.2       1 RES1    0.0000
     15 C6         7.5497    5.6761    8.2313 C.2       1 RES1    0.0000
     16 C7         6.6561    6.9225    8.2765 C.3       1 RES1    0.0000
     17 H8         6.6394    7.3024    7.3950 H         1 RES1    0.0000
     18 C8         7.2550    7.9968    9.2354 C.3       1 RES1    0.0000
     19 C9         7.4522    7.3594   10.6141 C.3       1 RES1    0.0000
     20 H9         6.5873    7.1201   10.9551 H         1 RES1    0.0000
     21 H10        7.8491    7.9932   11.2161 H         1 RES1    0.0000
     22 C10        8.3786    6.1529   10.5497 C.3       1 RES1    0.0000
     23 H11        9.2827    6.4627   10.6409 H         1 RES1    0.0000
     24 H12        8.1912    5.5871   11.3021 H         1 RES1    0.0000
     25 C11        8.5665    8.5705    8.6472 C.3       1 RES1    0.0000
     26 H13        9.0670    7.8775    8.2102 H         1 RES1    0.0000
     27 H14        9.1192    8.9554    9.3312 H         1 RES1    0.0000
     28 C12        8.1112    9.6404    7.6294 C.3       1 RES1    0.0000
     29 H15        7.8895    9.2531    6.7795 H         1 RES1    0.0000
     30 H16        8.8144   10.2828    7.5099 H         1 RES1    0.0000
     31 C13        6.8611   10.2692    8.2630 C.3       1 RES1    0.0000
     32 H17        6.1837   10.4605    7.6102 H         1 RES1    0.0000
     33 H18        7.0982   11.0836    8.7125 H         1 RES1    0.0000
     34 C14        6.3902    9.2415    9.2684 C.2       1 RES1    0.0000
     35 C15        6.3406    3.9940    6.7445 C.3       1 RES1    0.0000
     36 H19        6.2601    3.4511    7.5322 H         1 RES1    0.0000
     37 H20        5.5426    4.5157    6.6325 H         1 RES1    0.0000
     38 H21        6.4640    3.4294    5.9780 H         1 RES1    0.0000
     39 C16        7.7048    5.7623    5.6876 C.3       1 RES1    0.0000
     40 H22        7.7375    5.2289    4.8901 H         1 RES1    0.0000
     41 H23        6.9778    6.3862    5.6257 H         1 RES1    0.0000
     42 H24        8.5306    6.2419    5.7859 H         1 RES1    0.0000
     43 C17        5.1973    6.5569    8.6294 C.3       1 RES1    0.0000
     44 H25        4.8552    5.8969    8.0219 H         1 RES1    0.0000
     45 H26        5.1811    6.2079    9.5236 H         1 RES1    0.0000
     46 H27        4.6528    7.3463    8.5841 H         1 RES1    0.0000
@<TRIPOS>BOND
     1    1    2 1
     2    3    1 1
     3    4    5 1
     4    5    6 1
     5    7    5 1
     6    8    5 1
     7    9    8 1
     8   10    8 1
     9   11    8 1
    10   12   11 1
    11   13   11 1
    12   14   11 1
    13   15    4 1
    14   16   15 1
    15   17   16 1
    16   18   16 1
    17   19   18 1
    18   20   19 1
    19   21   19 1
    20   22   14 1
    21   23   22 1
    22   24   22 1
    23   25   18 1
    24   26   25 1
    25   27   25 1
    26   28   25 1
    27   29   28 1
    28   30   28 1
    29   31   28 1
    30   32   31 1
    31   33   31 1
    32   34    3 2
    33   35    4 1
    34   36   35 1
    35   37   35 1
    36   38   35 1
    37   39    4 1
    38   40   39 1
    39   41   39 1
    40   42   39 1
    41   43   16 1
    42   44   43 1
    43   45   43 1
    44   46   43 1
    45   14   15 2
    46   18   34 1
    47   19   22 1
    48   31   34 1
@<TRIPOS>SUBSTRUCTURE
     1 RES1 1

@<TRIPOS>CRYSIN
   6.8860   10.0490   12.5720  66.1000  73.3900  81.4000   2 1

