# MOL2 file generated by ConQuest
# Please check atom types

@<TRIPOS>MOLECULE
GELRAS
    33    34     1
SMALL
USER_CHARGES
****
Generated from CSD

@<TRIPOS>ATOM
      1 O1         0.2362   -0.9703    5.2327 O.2       1 RES1    0.0000
      2 N1         0.6532   -2.1667    5.3307 N.pl3     1 RES1    0.0000
      3 C1         0.8835   -2.8780    6.6339 C.3       1 RES1    0.0000
      4 C2        -0.5029   -3.2946    7.1331 C.3       1 RES1    0.0000
      5 H1        -0.9994   -2.5067    7.4053 H         1 RES1    0.0000
      6 H2        -0.4075   -3.8945    7.8899 H         1 RES1    0.0000
      7 H3        -0.9808   -3.7476    6.4207 H         1 RES1    0.0000
      8 C3         1.5527   -1.9467    7.6277 C.3       1 RES1    0.0000
      9 H4         0.9418   -1.2295    7.8609 H         1 RES1    0.0000
     10 H5         2.3546   -1.5726    7.2311 H         1 RES1    0.0000
     11 H6         1.7890   -2.4423    8.4272 H         1 RES1    0.0000
     12 C4         1.7543   -4.0811    6.1874 C.3       1 RES1    0.0000
     13 C5         3.2597   -3.7107    6.1085 C.3       1 RES1    0.0000
     14 H7         3.7682   -4.4837    5.8181 H         1 RES1    0.0000
     15 H8         3.5692   -3.4295    6.9833 H         1 RES1    0.0000
     16 H9         3.3816   -2.9870    5.4741 H         1 RES1    0.0000
     17 C6         1.5272   -5.3530    6.9225 C.3       1 RES1    0.0000
     18 H10        2.1127   -6.0403    6.5677 H         1 RES1    0.0000
     19 H11        0.6035   -5.6283    6.8154 H         1 RES1    0.0000
     20 H12        1.7181   -5.2210    7.8645 H         1 RES1    0.0000
     21 N2         1.2904   -4.1929    4.7545 N.pl3     1 RES1    1.0000
     22 O2         1.4801   -5.2590    4.0675 O.2       1 RES1   -1.0000
     23 C7         0.7951   -3.0343    4.3025 C.2       1 RES1    0.0000
     24 C8         0.3428   -2.7738    2.9512 C.2       1 RES1    0.0000
     25 C9        -0.8295   -2.2219    2.4929 C.2       1 RES1    0.0000
     26 H13       -1.5140   -1.8663    3.0311 H         1 RES1    0.0000
     27 N3        -0.8365   -2.2750    1.1525 N.2       1 RES1    0.0000
     28 N4         0.2940   -2.8258    0.7514 N.2       1 RES1    0.0000
     29 N5         0.9995   -3.1339    1.8359 N.pl3     1 RES1    0.0000
     30 C10        2.3394   -3.6797    1.6698 C.3       1 RES1    0.0000
     31 H14        2.5099   -3.8339    0.7278 H         1 RES1    0.0000
     32 H15        2.4097   -4.5175    2.1526 H         1 RES1    0.0000
     33 H16        2.9904   -3.0501    2.0174 H         1 RES1    0.0000
@<TRIPOS>BOND
     1    1    2 1
     2    2    3 1
     3    3    4 1
     4    4    5 1
     5    6    4 1
     6    7    4 1
     7    8    3 1
     8    9    8 1
     9   10    8 1
    10   11    8 1
    11   12    3 1
    12   13   12 1
    13   14   13 1
    14   15   13 1
    15   16   13 1
    16   17   12 1
    17   18   17 1
    18   19   17 1
    19   20   17 1
    20   21   12 1
    21   22   21 1
    22   23    2 1
    23   24   23 1
    24   25   24 2
    25   26   25 1
    26   27   25 1
    27   28   27 2
    28   29   24 1
    29   30   29 1
    30   31   30 1
    31   32   30 1
    32   33   30 1
    33   21   23 2
    34   28   29 1
@<TRIPOS>SUBSTRUCTURE
     1 RES1 1

@<TRIPOS>CRYSIN
   7.0910    9.8770    9.8770  93.3900 110.2260 110.2260   2 1

