# MOL2 file generated by ConQuest
# Please check atom types

@<TRIPOS>MOLECULE
GEMSID
    63    67     1
SMALL
NO_CHARGES
****
Generated from CSD

@<TRIPOS>ATOM
      1 N1         0.2400    5.2721   15.6548 N.pl3     1 RES1    0.0000
      2 C1         3.5490    4.9223   10.9837 C.3       1 RES1    0.0000
      3 H1         3.0063    5.1505   10.1994 H         1 RES1    0.0000
      4 O1         0.2266    4.3807   16.4600 O.2       1 RES1    0.0000
      5 N2         6.1670    7.5156   10.5806 N.pl3     1 RES1    0.0000
      6 H2         6.7074    7.9889   10.1091 H         1 RES1    0.0000
      7 C2         2.5949    4.9139   12.1730 C.ar      1 RES1    0.0000
      8 O2        -0.3317    6.3184   15.8453 O.2       1 RES1    0.0000
      9 N3         4.3527    1.4412    9.9524 N.pl3     1 RES1    0.0000
     10 H3         4.1641    0.6985    9.5603 H         1 RES1    0.0000
     11 O3         5.9181    7.1205    7.8885 O.2       1 RES1    0.0000
     12 C3         1.6879    5.9431   12.3170 C.ar      1 RES1    0.0000
     13 H4         1.6049    6.5697   11.6345 H         1 RES1    0.0000
     14 O4         4.0602    5.9140    8.1983 O.3       1 RES1    0.0000
     15 C4         0.9028    6.0716   13.4388 C.ar      1 RES1    0.0000
     16 H5         0.3097    6.7815   13.5281 H         1 RES1    0.0000
     17 O5         1.7999    1.4023    8.8958 O.2       1 RES1    0.0000
     18 C5         1.0191    5.1252   14.4181 C.ar      1 RES1    0.0000
     19 O6         1.5087    3.5330    9.4820 O.3       1 RES1    0.0000
     20 C6         1.8421    4.0319   14.2943 C.ar      1 RES1    0.0000
     21 H6         1.8687    3.3773   14.9542 H         1 RES1    0.0000
     22 C7         2.6357    3.9301   13.1518 C.ar      1 RES1    0.0000
     23 H7         3.1973    3.1971   13.0443 H         1 RES1    0.0000
     24 C8         4.5709    6.0123   11.1164 C.2       1 RES1    0.0000
     25 C9         5.1056    6.5977   12.3170 C.ar      1 RES1    0.0000
     26 C10        4.8644    6.4510   13.7023 C.ar      1 RES1    0.0000
     27 H8         4.2316    5.8412   14.0083 H         1 RES1    0.0000
     28 C11        5.5704    7.2137   14.5804 C.ar      1 RES1    0.0000
     29 H9         5.4026    7.1213   15.4904 H         1 RES1    0.0000
     30 C12        6.5297    8.1244   14.1663 C.ar      1 RES1    0.0000
     31 H10        6.9814    8.6353   14.7990 H         1 RES1    0.0000
     32 C13        6.8179    8.2811   12.8537 C.ar      1 RES1    0.0000
     33 H11        7.4772    8.8755   12.5750 H         1 RES1    0.0000
     34 C14        6.1004    7.5270   11.9354 C.ar      1 RES1    0.0000
     35 C15        5.2472    6.6394   10.0779 C.2       1 RES1    0.0000
     36 C16        5.1312    6.5751    8.6285 C.2       1 RES1    0.0000
     37 C17        3.8541    5.8617    6.7624 C.3       1 RES1    0.0000
     38 H12        3.8793    6.7610    6.3994 H         1 RES1    0.0000
     39 H13        4.5689    5.3512    6.3525 H         1 RES1    0.0000
     40 C18        2.6155    5.2659    6.4536 C.3       1 RES1    0.0000
     41 H14        2.4904    5.2627    5.5022 H         1 RES1    0.0000
     42 H15        1.9081    5.7669    6.8670 H         1 RES1    0.0000
     43 H16        2.6035    4.3635    6.7821 H         1 RES1    0.0000
     44 C19        4.1502    3.5469   10.6996 C.2       1 RES1    0.0000
     45 C20        5.4242    3.0366   11.1149 C.ar      1 RES1    0.0000
     46 C21        6.5015    3.5153   11.8693 C.ar      1 RES1    0.0000
     47 H17        6.4812    4.3745   12.2230 H         1 RES1    0.0000
     48 C22        7.5798    2.7120   12.0816 C.ar      1 RES1    0.0000
     49 H18        8.2963    3.0344   12.5786 H         1 RES1    0.0000
     50 C23        7.6352    1.4081   11.5690 C.ar      1 RES1    0.0000
     51 H19        8.3865    0.8850   11.7320 H         1 RES1    0.0000
     52 C24        6.6082    0.8920   10.8366 C.ar      1 RES1    0.0000
     53 H20        6.6427    0.0269   10.4990 H         1 RES1    0.0000
     54 C25        5.5049    1.7119   10.6151 C.ar      1 RES1    0.0000
     55 C26        3.5387    2.5400   10.0069 C.2       1 RES1    0.0000
     56 C27        2.2096    2.4149    9.4011 C.2       1 RES1    0.0000
     57 C28        0.1893    3.5591    8.8982 C.3       1 RES1    0.0000
     58 H21       -0.3830    2.9032    9.3256 H         1 RES1    0.0000
     59 H22        0.2344    3.3599    7.9501 H         1 RES1    0.0000
     60 C29       -0.3374    4.9229    9.1162 C.3       1 RES1    0.0000
     61 H23       -1.2191    4.9877    8.7426 H         1 RES1    0.0000
     62 H24        0.2401    5.5598    8.6884 H         1 RES1    0.0000
     63 H25       -0.3735    5.1047   10.0567 H         1 RES1    0.0000
@<TRIPOS>BOND
     1    1    4 2
     2    2    3 1
     3    5    6 1
     4    7    2 1
     5    8    1 2
     6    9   10 1
     7   11   36 2
     8   12    7 ar
     9   13   12 1
    10   14   36 1
    11   15   12 ar
    12   16   15 1
    13   17   56 2
    14   18    1 1
    15   19   56 1
    16   20   18 ar
    17   21   20 1
    18   22    7 ar
    19   23   22 1
    20   24    2 1
    21   25   24 1
    22   26   25 ar
    23   27   26 1
    24   28   26 ar
    25   29   28 1
    26   30   28 ar
    27   31   30 1
    28   32   30 ar
    29   33   32 1
    30   34    5 1
    31   35    5 1
    32   36   35 1
    33   37   14 1
    34   38   37 1
    35   39   37 1
    36   40   37 1
    37   41   40 1
    38   42   40 1
    39   43   40 1
    40   44    2 1
    41   45   44 1
    42   46   45 ar
    43   47   46 1
    44   48   46 ar
    45   49   48 1
    46   50   48 ar
    47   51   50 1
    48   52   50 ar
    49   53   52 1
    50   54    9 1
    51   55    9 1
    52   56   55 1
    53   57   19 1
    54   58   57 1
    55   59   57 1
    56   60   57 1
    57   61   60 1
    58   62   60 1
    59   63   60 1
    60   15   18 ar
    61   20   22 ar
    62   24   35 2
    63   25   34 ar
    64   32   34 ar
    65   44   55 2
    66   45   54 ar
    67   52   54 ar
@<TRIPOS>SUBSTRUCTURE
     1 RES1 1

@<TRIPOS>CRYSIN
   8.8040   15.8040   18.2660  90.0000  98.7800  90.0000 231 1

