# MOL2 file generated by ConQuest
# Please check atom types

@<TRIPOS>MOLECULE
GEMZAZ
    20    21     1
SMALL
NO_CHARGES
****
Generated from CSD

@<TRIPOS>ATOM
      1 N1         1.5579    2.3871    0.8368 N.am      1 RES1    0.0000
      2 C1         2.7015    1.7044    0.9267 C.2       1 RES1    0.0000
      3 O1         3.7692    1.9395    0.4328 O.2       1 RES1    0.0000
      4 N2         2.3923    0.5756    1.7538 N.am      1 RES1    0.0000
      5 N3         3.2691   -0.4024    2.1064 N.pl3     1 RES1    0.0000
      6 O2         2.7872   -1.2930    2.8018 O.2       1 RES1    0.0000
      7 O3         4.4196   -0.3173    1.7591 O.2       1 RES1    0.0000
      8 C2         0.9873    0.4986    2.1631 C.3       1 RES1    0.0000
      9 N4         0.8026    0.6220    3.5836 N.am      1 RES1    0.0000
     10 C3         0.3404    1.8217    4.0024 C.2       1 RES1    0.0000
     11 O4         0.0912    2.1675    5.1298 O.2       1 RES1    0.0000
     12 N5         0.2277    2.5958    2.8332 N.am      1 RES1    0.0000
     13 N6        -0.3577    3.8481    2.7355 N.pl3     1 RES1    0.0000
     14 O5        -0.5797    4.4435    3.7764 O.2       1 RES1    0.0000
     15 O6        -0.5601    4.2349    1.5977 O.2       1 RES1    0.0000
     16 C4         0.4507    1.8643    1.5881 C.3       1 RES1    0.0000
     17 H1         0.5765   -0.3319    1.8769 H         1 RES1    0.0000
     18 H2        -0.4425    1.7686    0.9712 H         1 RES1    0.0000
     19 H3         0.8879   -0.2462    4.1071 H         1 RES1    0.0000
     20 H4         1.4405    3.1057    0.2382 H         1 RES1    0.0000
@<TRIPOS>BOND
     1    1    2 1
     2    2    3 2
     3    4    2 1
     4    5    4 1
     5    6    5 2
     6    7    5 2
     7    8    4 1
     8    9    8 1
     9   10    9 1
    10   11   10 2
    11   12   10 1
    12   13   12 1
    13   14   13 2
    14   15   13 2
    15   16    1 1
    16   17    8 1
    17   18   16 1
    18   19    9 1
    19   20    1 1
    20    8   16 1
    21   12   16 1
@<TRIPOS>SUBSTRUCTURE
     1 RES1 1

@<TRIPOS>CRYSIN
   6.3920    6.9840    9.2280 103.3800 101.5700  96.6400   2 1

