# MOL2 file generated by ConQuest
# Please check atom types

@<TRIPOS>MOLECULE
GEMZOP
    47    41     2
SMALL
USER_CHARGES
****
Generated from CSD

@<TRIPOS>ATOM
      1 N1         5.1415    1.1992    3.1266 N.pl3     1 RES1    0.0000
      2 O1         5.8322    1.1723    4.2112 O.2       1 RES1    0.0000
      3 C1         3.7105    0.7610    3.0867 C.3       1 RES1    0.0000
      4 O2         4.6293    1.8026   -0.1986 O.2       1 RES1   -1.0000
      5 N2         4.5614    1.5469    1.0554 N.pl3     1 RES1    1.0000
      6 C2         3.7408   -0.7573    3.0015 C.3       1 RES1    0.0000
      7 H1         4.1966   -1.0527    2.1638 H         1 RES1    0.0000
      8 H2         4.2066   -1.1397    3.8203 H         1 RES1    0.0000
      9 H3         2.8112   -1.1269    3.0103 H         1 RES1    0.0000
     10 N3         9.2136    1.6852    1.4141 N.2       1 RES1    0.0000
     11 C3         2.9867    1.2184    4.3422 C.3       1 RES1    0.0000
     12 H4         2.0290    1.0617    4.1740 H         1 RES1    0.0000
     13 H5         3.1489    2.1579    4.5519 H         1 RES1    0.0000
     14 H6         3.2958    0.7176    5.1089 H         1 RES1    0.0000
     15 C4         3.2568    1.4576    1.7826 C.3       1 RES1    0.0000
     16 N4         8.7193    2.6636    0.6134 N.3       1 RES1    0.0000
     17 C5         2.7982    2.9009    2.0002 C.3       1 RES1    0.0000
     18 H7         1.9012    2.8653    2.4124 H         1 RES1    0.0000
     19 H8         3.4529    3.4217    2.5683 H         1 RES1    0.0000
     20 H9         2.7062    3.3539    1.1515 H         1 RES1    0.0000
     21 C6         2.2556    0.6856    0.9571 C.3       1 RES1    0.0000
     22 H10        1.3906    0.6652    1.4234 H         1 RES1    0.0000
     23 H11        2.5924   -0.2290    0.7205 H         1 RES1    0.0000
     24 H12        2.0486    1.1819    0.1702 H         1 RES1    0.0000
     25 C7         5.6043    1.4971    1.9042 C.2       1 RES1    0.0000
     26 C8         6.9708    1.7729    1.5520 C.2       1 RES1    0.0000
     27 C9         8.1534    1.1374    1.9848 C.2       1 RES1    0.0000
     28 C10        7.3884    2.7316    0.6610 C.2       1 RES1    0.0000
     29 H13        6.8953    3.3475    0.1171 H         1 RES1    0.0000
     30 C11        9.6545    3.5867   -0.0674 C.3       1 RES1    0.0000
     31 H14       10.3608    3.8592    0.5382 H         1 RES1    0.0000
     32 H15        9.1853    4.3785   -0.3735 H         1 RES1    0.0000
     33 C12       10.2250    2.8410   -1.2267 C.3       1 RES1    0.0000
     34 H16       10.8157    3.4166   -1.7173 H         1 RES1    0.0000
     35 H17        9.5133    2.5481   -1.8002 H         1 RES1    0.0000
     36 H18       10.7125    2.0786   -0.9084 H         1 RES1    0.0000
     37 C13        8.3096   -0.0574    2.8545 C.3       1 RES1    0.0000
     38 H19        7.9039    0.0601    3.7551 H         1 RES1    0.0000
     39 H20        9.1871   -0.2494    2.9871 H         1 RES1    0.0000
     40 H21        7.8565   -0.7905    2.4312 H         1 RES1    0.0000
     41 C14        9.5325    3.2657   -0.4697 Du        2 SUP2    0.0000
     42 C15       10.1658    4.4246    0.2310 Du        2 SUP2    0.0000
     43 H22        8.9760    3.5586   -1.2090 Du        2 SUP2    0.0000
     44 H23       10.1996    2.6440   -0.7990 Du        2 SUP2    0.0000
     45 H24       10.7555    4.8800   -0.3746 Du        2 SUP2    0.0000
     46 H25       10.6644    4.1074    0.9869 Du        2 SUP2    0.0000
     47 H26        9.4830    5.0296    0.5293 Du        2 SUP2    0.0000
@<TRIPOS>BOND
     1    1    2 1
     2    3    1 1
     3    4    5 1
     4    5   15 1
     5    6    3 1
     6    7    6 1
     7    8    6 1
     8    9    6 1
     9   10   16 1
    10   11    3 1
    11   12   11 1
    12   13   11 1
    13   14   11 1
    14   15    3 1
    15   16   28 1
    16   17   15 1
    17   18   17 1
    18   19   17 1
    19   20   17 1
    20   21   15 1
    21   22   21 1
    22   23   21 1
    23   24   21 1
    24   25    1 1
    25   26   25 1
    26   27   10 2
    27   28   26 2
    28   29   28 1
    29   30   16 1
    30   31   30 1
    31   32   30 1
    32   33   30 1
    33   34   33 1
    34   35   33 1
    35   36   33 1
    36   37   27 1
    37   38   37 1
    38   39   37 1
    39   40   37 1
    40    5   25 2
    41   26   27 1
@<TRIPOS>SUBSTRUCTURE
     1 RES1 1
     2 SUP2 41

@<TRIPOS>CRYSIN
  10.5022   12.7915   11.1556  90.0000  97.8510  90.0000  14 1

