# MOL2 file generated by ConQuest
# Please check atom types

@<TRIPOS>MOLECULE
GENHOX
   116   103     2
SMALL
NO_CHARGES
****
Generated from CSD

@<TRIPOS>ATOM
      1 C1        -0.3959    4.4096    8.4475 C.3       1 RES1    0.0000
      2 H1         0.4965    4.3847    8.0177 H         1 RES1    0.0000
      3 C2        -0.6911    5.8740    8.7327 C.ar      1 RES1    0.0000
      4 C3        -0.2987    6.8445    7.7940 C.ar      1 RES1    0.0000
      5 C4        -0.5330    8.1954    8.0124 C.ar      1 RES1    0.0000
      6 H2        -0.2234    8.8326    7.3954 H         1 RES1    0.0000
      7 C5        -1.2204    8.5980    9.1341 C.ar      1 RES1    0.0000
      8 H3        -1.3999    9.5085    9.2832 H         1 RES1    0.0000
      9 C6        -1.6408    7.6449   10.0324 C.ar      1 RES1    0.0000
     10 C7        -1.3637    6.2972    9.8612 C.ar      1 RES1    0.0000
     11 H4        -1.6332    5.6736   10.5120 H         1 RES1    0.0000
     12 N1        -2.4108    8.0607   11.2053 N.pl3     1 RES1    0.0000
     13 O1        -2.6406    7.2403   12.0736 O.2       1 RES1    0.0000
     14 O2        -2.8091    9.2265   11.2568 O.2       1 RES1    0.0000
     15 O3         0.3178    6.3522    6.6772 O.3       1 RES1    0.0000
     16 C8         0.4483    7.2072    5.5436 C.3       1 RES1    0.0000
     17 H5         1.0115    7.9755    5.7757 H         1 RES1    0.0000
     18 H6        -0.4350    7.5437    5.2832 H         1 RES1    0.0000
     19 C9         1.0642    6.4592    4.3885 C.2       1 RES1    0.0000
     20 O4         1.0221    6.9789    3.2700 O.2       1 RES1    0.0000
     21 N2         1.6525    5.3005    4.6376 N.am      1 RES1    0.0000
     22 H7         1.5765    4.9644    5.4357 H         1 RES1    0.0000
     23 C10        2.4257    4.5543    3.6427 C.3       1 RES1    0.0000
     24 H8         2.1782    4.8631    2.7468 H         1 RES1    0.0000
     25 H9         2.1987    3.6024    3.7073 H         1 RES1    0.0000
     26 C11        3.9212    4.7224    3.8316 C.3       1 RES1    0.0000
     27 H10        4.1386    4.6222    4.7818 H         1 RES1    0.0000
     28 H11        4.1800    5.6271    3.5583 H         1 RES1    0.0000
     29 C12        4.7215    3.7034    3.0221 C.3       1 RES1    0.0000
     30 H12        5.6714    3.8134    3.2358 H         1 RES1    0.0000
     31 H13        4.4573    2.8036    3.3059 H         1 RES1    0.0000
     32 C13        4.5560    3.8008    1.5471 C.3       1 RES1    0.0000
     33 H14        3.6431    3.5742    1.3094 H         1 RES1    0.0000
     34 H15        5.1662    3.1839    1.1113 H         1 RES1    0.0000
     35 H16        4.7511    4.7069    1.2586 H         1 RES1    0.0000
     36 C14       -0.2832    3.5795    9.7185 C.ar      1 RES1    0.0000
     37 C15        0.9265    3.5805   10.4284 C.ar      1 RES1    0.0000
     38 C16        1.0675    2.8169   11.5825 C.ar      1 RES1    0.0000
     39 H17        1.8807    2.8268   12.0545 H         1 RES1    0.0000
     40 C17        0.0272    2.0510   12.0344 C.ar      1 RES1    0.0000
     41 H18        0.1224    1.5280   12.8100 H         1 RES1    0.0000
     42 C18       -1.1512    2.0585   11.3434 C.ar      1 RES1    0.0000
     43 C19       -1.3173    2.8082   10.1933 C.ar      1 RES1    0.0000
     44 H19       -2.1388    2.7903    9.7355 H         1 RES1    0.0000
     45 N3        -2.2599    1.2385   11.8284 N.pl3     1 RES1    0.0000
     46 O5        -3.3111    1.2551   11.2117 O.2       1 RES1    0.0000
     47 O6        -2.0876    0.5610   12.8337 O.2       1 RES1    0.0000
     48 O7         1.9143    4.3565    9.9099 O.3       1 RES1    0.0000
     49 C20        3.1460    4.4595   10.6342 C.3       1 RES1    0.0000
     50 H20        3.5452    3.5709   10.7416 H         1 RES1    0.0000
     51 H21        2.9798    4.8315   11.5252 H         1 RES1    0.0000
     52 C21        4.0927    5.3635    9.8633 C.2       1 RES1    0.0000
     53 O8         4.8411    6.1140   10.4873 O.2       1 RES1    0.0000
     54 N4         4.0650    5.2401    8.5474 N.am      1 RES1    0.0000
     55 H22        3.5969    4.5923    8.2035 H         1 RES1    0.0000
     56 C22        4.7803    6.1366    7.6401 C.3       1 RES1    0.0000
     57 H23        5.2172    5.6121    6.9361 H         1 RES1    0.0000
     58 H24        5.4738    6.6203    8.1351 H         1 RES1    0.0000
     59 C23        3.8187    7.1267    7.0133 C.3       1 RES1    0.0000
     60 H25        3.4418    7.6882    7.7232 H         1 RES1    0.0000
     61 H26        3.0789    6.6286    6.6066 H         1 RES1    0.0000
     62 C24        4.4335    8.0320    5.9556 C.3       1 RES1    0.0000
     63 H27        4.7846    7.4789    5.2253 H         1 RES1    0.0000
     64 H28        3.7346    8.6100    5.5847 H         1 RES1    0.0000
     65 C25        5.5385    8.8857    6.4974 C.3       1 RES1    0.0000
     66 H29        5.2312    9.3458    7.2937 H         1 RES1    0.0000
     67 H30        5.8007    9.5384    5.8283 H         1 RES1    0.0000
     68 H31        6.2991    8.3277    6.7205 H         1 RES1    0.0000
     69 C26       -1.3703    3.8047    7.4466 C.ar      1 RES1    0.0000
     70 C27       -0.9606    2.6674    6.7377 C.ar      1 RES1    0.0000
     71 C28       -1.7809    2.0716    5.7885 C.ar      1 RES1    0.0000
     72 H32       -1.4906    1.3038    5.3305 H         1 RES1    0.0000
     73 C29       -3.0162    2.6074    5.5216 C.ar      1 RES1    0.0000
     74 H33       -3.5744    2.2239    4.8695 H         1 RES1    0.0000
     75 C30       -3.4202    3.7154    6.2241 C.ar      1 RES1    0.0000
     76 C31       -2.6179    4.3183    7.1738 C.ar      1 RES1    0.0000
     77 H34       -2.9243    5.0790    7.6338 H         1 RES1    0.0000
     78 N5        -4.7476    4.2758    5.9571 N.pl3     1 RES1    0.0000
     79 O9        -5.1854    5.1238    6.7191 O.2       1 RES1    0.0000
     80 O10       -5.3676    3.8615    4.9901 O.2       1 RES1    0.0000
     81 O11        0.2552    2.1831    7.0984 O.3       1 RES1    0.0000
     82 C32        1.1096    1.6207    6.1075 C.3       1 RES1    0.0000
     83 H35        0.8104    1.8751    5.2095 H         1 RES1    0.0000
     84 H36        1.1135    0.6428    6.1719 H         1 RES1    0.0000
     85 C33        2.4875    2.1766    6.3843 C.2       1 RES1    0.0000
     86 O12        2.6311    3.3603    6.7062 O.2       1 RES1    0.0000
     87 N6         3.5020    1.3187    6.1929 N.am      1 RES1    0.0000
     88 H37        3.3197    0.4916    5.9896 H         1 RES1    0.0000
     89 C34        4.8926    1.7173    6.3121 C.3       1 RES1    0.0000
     90 H38        4.9422    2.6923    6.4068 H         1 RES1    0.0000
     91 H39        5.3741    1.4666    5.4970 H         1 RES1    0.0000
     92 C35        5.5551    1.0596    7.5128 C.3       1 RES1    0.0000
     93 H40        5.4566    0.0880    7.4427 H         1 RES1    0.0000
     94 H41        5.1025    1.3520    8.3314 H         1 RES1    0.0000
     95 C36        7.0364    1.4117    7.6040 C.3       1 RES1    0.0000
     96 H42        7.4834    1.1294    6.7784 H         1 RES1    0.0000
     97 H43        7.1310    2.3834    7.6776 H         1 RES1    0.0000
     98 C37        7.7231    0.7557    8.7872 C.3       1 RES1    0.0000
     99 H44        7.3304    1.0829    9.6110 H         1 RES1    0.0000
    100 H45        8.6692    0.9700    8.7731 H         1 RES1    0.0000
    101 H46        7.6096   -0.2059    8.7346 H         1 RES1    0.0000
    102 N7         3.4562    1.3038    6.2630 Du        2 SUP2    0.0000
    103 H47        3.2531    0.5265    5.9300 Du        2 SUP2    0.0000
    104 C38        4.8529    1.5247    6.6381 Du        2 SUP2    0.0000
    105 H48        5.1022    2.4432    6.4068 Du        2 SUP2    0.0000
    106 H49        5.4219    0.9201    6.1175 Du        2 SUP2    0.0000
    107 C39        5.1163    1.2988    8.1141 Du        2 SUP2    0.0000
    108 H50        5.0032    0.3455    8.3069 Du        2 SUP2    0.0000
    109 H51        4.4382    1.7854    8.6277 Du        2 SUP2    0.0000
    110 C40        6.4859    1.7290    8.6014 Du        2 SUP2    0.0000
    111 H52        6.6239    2.6674    8.3577 Du        2 SUP2    0.0000
    112 H53        6.5005    1.6725    9.5795 Du        2 SUP2    0.0000
    113 C41        7.6296    0.9185    8.0562 Du        2 SUP2    0.0000
    114 H54        7.6122    0.0316    8.4489 Du        2 SUP2    0.0000
    115 H55        8.4676    1.3536    8.2788 Du        2 SUP2    0.0000
    116 H56        7.5468    0.8487    7.0939 Du        2 SUP2    0.0000
@<TRIPOS>BOND
     1    1    2 1
     2    3    1 1
     3    4    3 ar
     4    5    4 ar
     5    6    5 1
     6    7    5 ar
     7    8    7 1
     8    9    7 ar
     9   10    3 ar
    10   11   10 1
    11   12    9 1
    12   13   12 2
    13   14   12 2
    14   15    4 1
    15   16   15 1
    16   17   16 1
    17   18   16 1
    18   19   16 1
    19   20   19 2
    20   21   19 1
    21   22   21 1
    22   23   21 1
    23   24   23 1
    24   25   23 1
    25   26   23 1
    26   27   26 1
    27   28   26 1
    28   29   26 1
    29   30   29 1
    30   31   29 1
    31   32   29 1
    32   33   32 1
    33   34   32 1
    34   35   32 1
    35   36    1 1
    36   37   36 ar
    37   38   37 ar
    38   39   38 1
    39   40   38 ar
    40   41   40 1
    41   42   40 ar
    42   43   36 ar
    43   44   43 1
    44   45   42 1
    45   46   45 2
    46   47   45 2
    47   48   37 1
    48   49   48 1
    49   50   49 1
    50   51   49 1
    51   52   49 1
    52   53   52 2
    53   54   52 1
    54   55   54 1
    55   56   54 1
    56   57   56 1
    57   58   56 1
    58   59   56 1
    59   60   59 1
    60   61   59 1
    61   62   59 1
    62   63   62 1
    63   64   62 1
    64   65   62 1
    65   66   65 1
    66   67   65 1
    67   68   65 1
    68   69    1 1
    69   70   69 ar
    70   71   70 ar
    71   72   71 1
    72   73   71 ar
    73   74   73 1
    74   75   73 ar
    75   76   69 ar
    76   77   76 1
    77   78   75 1
    78   79   78 2
    79   80   78 2
    80   81   70 1
    81   82   81 1
    82   83   82 1
    83   84   82 1
    84   85   82 1
    85   86   85 2
    86   87   85 1
    87   88   87 1
    88   89   87 1
    89   90   89 1
    90   91   89 1
    91   92   89 1
    92   93   92 1
    93   94   92 1
    94   95   92 1
    95   96   95 1
    96   97   95 1
    97   98   95 1
    98   99   98 1
    99  100   98 1
   100  101   98 1
   101    9   10 ar
   102   42   43 ar
   103   75   76 ar
@<TRIPOS>SUBSTRUCTURE
     1 RES1 1
     2 SUP2 102

@<TRIPOS>CRYSIN
  13.1120   16.6088   18.4861  90.0000 108.5200  90.0000 231 1

