# MOL2 file generated by ConQuest
# Please check atom types

@<TRIPOS>MOLECULE
GENXOM
    74    77     2
SMALL
NO_CHARGES
****
Generated from CSD

@<TRIPOS>ATOM
      1 O1        -0.7526   -3.6105    9.8019 O.2       1 RES1    0.0000
      2 O2        -0.9420   -3.8300    7.6738 O.2       1 RES1    0.0000
      3 O3        -0.7147    2.3621    8.2054 O.3       1 RES1    0.0000
      4 O4        -0.6190    3.4799    5.7522 O.3       1 RES1    0.0000
      5 O5         7.4685    2.1628    5.3158 O.2       1 RES1    0.0000
      6 O6         6.8391    3.2092    3.5541 O.2       1 RES1    0.0000
      7 O7         1.8878    4.2488    7.1261 O.3       1 RES1    0.0000
      8 O8         1.5042    3.7021    9.6583 O.3       1 RES1    0.0000
      9 N1        -0.8329   -3.1499    8.6651 N.pl3     1 RES1    0.0000
     10 N2         6.6532    2.8240    4.6998 N.pl3     1 RES1    0.0000
     11 C1        -0.7953   -1.7022    8.5143 C.ar      1 RES1    0.0000
     12 C2        -0.3472   -0.9413    9.5703 C.ar      1 RES1    0.0000
     13 C3        -0.2963    0.4296    9.4481 C.ar      1 RES1    0.0000
     14 C4        -0.7399    1.0168    8.2467 C.ar      1 RES1    0.0000
     15 C5        -1.2332    0.2384    7.1907 C.ar      1 RES1    0.0000
     16 C6        -1.2367   -1.1339    7.3326 C.ar      1 RES1    0.0000
     17 C7        -1.7842    0.8807    5.9318 C.3       1 RES1    0.0000
     18 C8         0.8732    0.5266    3.2559 C.ar      1 RES1    0.0000
     19 C9        -0.2023    0.2720    4.0749 C.ar      1 RES1    0.0000
     20 C10       -0.6813    1.2268    4.9495 C.ar      1 RES1    0.0000
     21 C11       -0.0729    2.4820    4.9495 C.ar      1 RES1    0.0000
     22 C12        1.0773    2.7473    4.1916 C.ar      1 RES1    0.0000
     23 C13        1.5124    1.7561    3.3403 C.ar      1 RES1    0.0000
     24 C14       -1.6366    4.2435    5.0392 C.3       1 RES1    0.0000
     25 C15       -1.9956    5.4555    5.8510 C.3       1 RES1    0.0000
     26 C16       -0.8889    6.4669    5.9516 C.3       1 RES1    0.0000
     27 C17        1.8594    4.0172    4.3712 C.3       1 RES1    0.0000
     28 C18        5.4028    3.1903    5.3625 C.ar      1 RES1    0.0000
     29 C19        4.2920    3.4112    4.5795 C.ar      1 RES1    0.0000
     30 C20        3.1037    3.7533    5.1955 C.ar      1 RES1    0.0000
     31 C21        3.0713    3.8785    6.5999 C.ar      1 RES1    0.0000
     32 C22        4.2248    3.6819    7.3829 C.ar      1 RES1    0.0000
     33 C23        5.3777    3.3210    6.7382 C.ar      1 RES1    0.0000
     34 C24        4.2361    3.8866    8.8878 C.3       1 RES1    0.0000
     35 C25        3.9761    0.5037   10.6119 C.ar      1 RES1    0.0000
     36 C26        4.5010    1.6309    9.9959 C.ar      1 RES1    0.0000
     37 C27        3.6810    2.6947    9.6403 C.ar      1 RES1    0.0000
     38 C28        2.3211    2.6045    9.9402 C.ar      1 RES1    0.0000
     39 C29        1.7375    1.4450   10.4664 C.ar      1 RES1    0.0000
     40 C30        2.6035    0.4081   10.8184 C.ar      1 RES1    0.0000
     41 C31        1.3602    4.6192   10.7789 C.3       1 RES1    0.0000
     42 C32        0.7136    5.8878   10.2814 C.3       1 RES1    0.0000
     43 C33       -0.5964    5.7612    9.6744 C.3       1 RES1    0.0000
     44 C34        0.2387    1.2834   10.5795 C.3       1 RES1    0.0000
     45 H1         0.0418   -1.4006   10.2904 H         1 RES1    0.0000
     46 H2         1.8255    4.0670    8.0096 H         1 RES1    0.0000
     47 H3        -1.5880   -1.6430    6.6986 H         1 RES1    0.0000
     48 H4        -2.1749    1.6834    6.1778 H         1 RES1    0.0000
     49 H5        -2.3950    0.1751    5.5134 H         1 RES1    0.0000
     50 H6         1.2851   -0.1481    2.6040 H         1 RES1    0.0000
     51 H7        -0.5946   -0.4579    4.0228 H         1 RES1    0.0000
     52 H8         2.3154    1.9258    2.8734 H         1 RES1    0.0000
     53 H9        -1.2255    4.5788    4.1485 H         1 RES1    0.0000
     54 H10       -2.3919    3.5957    4.7411 H         1 RES1    0.0000
     55 H11       -2.9293    5.9389    5.4056 H         1 RES1    0.0000
     56 H12       -2.2662    5.2117    6.7705 H         1 RES1    0.0000
     57 H13       -1.2318    7.1644    6.5011 H         1 RES1    0.0000
     58 H14       -0.1399    5.9389    6.4831 H         1 RES1    0.0000
     59 H15       -0.5474    6.6392    4.8848 H         1 RES1    0.0000
     60 H16        1.5651    4.7135    4.6513 H         1 RES1    0.0000
     61 H17        2.1875    4.2286    3.4661 H         1 RES1    0.0000
     62 H18        4.4215    3.3668    3.5199 H         1 RES1    0.0000
     63 H19        5.8569    3.2051    7.3452 H         1 RES1    0.0000
     64 H20        5.2010    3.9862    9.2308 H         1 RES1    0.0000
     65 H21        3.8238    4.6730    9.1231 H         1 RES1    0.0000
     66 H22        4.6966   -0.3367   10.9549 H         1 RES1    0.0000
     67 H23        5.5984    1.8180    9.8235 H         1 RES1    0.0000
     68 H24        2.2147   -0.3771   11.1524 H         1 RES1    0.0000
     69 H25        2.3048    4.8616   11.1345 H         1 RES1    0.0000
     70 H26        0.8930    4.1344   11.4936 H         1 RES1    0.0000
     71 H27        0.1220    0.8350   11.4039 H         1 RES1    0.0000
     72 H28       -0.1130    2.1413   10.5598 H         1 RES1    0.0000
     73 H29       -0.7049    2.7877    7.2554 H         1 RES1    0.0000
     74 C35        1.0955    6.7066    9.6134 Du        2 SUP2    0.0000
@<TRIPOS>BOND
     1    1    9 2
     2    2    9 2
     3    3   14 1
     4    4   21 1
     5    5   10 2
     6    6   10 2
     7    7   31 1
     8    8   38 1
     9    9   11 1
    10   10   28 1
    11   11   12 ar
    12   12   13 ar
    13   13   14 ar
    14   14   15 ar
    15   15   16 ar
    16   16   11 ar
    17   17   15 1
    18   18   19 ar
    19   19   20 ar
    20   20   17 1
    21   21   20 ar
    22   22   21 ar
    23   23   18 ar
    24   24    4 1
    25   25   24 1
    26   26   25 1
    27   27   22 1
    28   28   29 ar
    29   29   30 ar
    30   30   27 1
    31   31   30 ar
    32   32   31 ar
    33   33   28 ar
    34   34   32 1
    35   35   36 ar
    36   36   37 ar
    37   37   34 1
    38   38   37 ar
    39   39   38 ar
    40   40   35 ar
    41   41    8 1
    42   42   41 1
    43   43   42 1
    44   44   13 1
    45   45   12 1
    46   46    7 1
    47   47   16 1
    48   48   17 1
    49   49   17 1
    50   50   18 1
    51   51   19 1
    52   52   23 1
    53   53   24 1
    54   54   24 1
    55   55   25 1
    56   56   25 1
    57   57   26 1
    58   58   26 1
    59   59   26 1
    60   60   27 1
    61   61   27 1
    62   62   29 1
    63   63   33 1
    64   64   34 1
    65   65   34 1
    66   66   35 1
    67   67   36 1
    68   68   40 1
    69   69   41 1
    70   70   41 1
    71   71   44 1
    72   72   44 1
    73   73    3 1
    74   22   23 ar
    75   32   33 ar
    76   39   40 ar
    77   39   44 1
@<TRIPOS>SUBSTRUCTURE
     1 RES1 1
     2 SUP2 74

@<TRIPOS>CRYSIN
  12.2170   13.4670   18.5430  90.0000 104.4200  90.0000 231 1

