# MOL2 file generated by ConQuest
# Please check atom types

@<TRIPOS>MOLECULE
GEPCAG
    76    80     2
SMALL
NO_CHARGES
****
Generated from CSD

@<TRIPOS>ATOM
      1 O1        -2.1439    7.4864    1.3376 O.3       1 RES1    0.0000
      2 N1         0.5575    8.0981    6.2039 N.pl3     1 RES1    0.0000
      3 C1        -1.5123    7.7195    2.5454 C.ar      1 RES1    0.0000
      4 C2        -0.8951    8.9339    2.8551 C.ar      1 RES1    0.0000
      5 H1        -0.9379    9.6639    2.2497 H         1 RES1    0.0000
      6 C3        -0.2146    9.0590    4.0654 C.ar      1 RES1    0.0000
      7 H2         0.2058    9.8782    4.2989 H         1 RES1    0.0000
      8 C4        -0.1594    7.9699    4.9266 C.ar      1 RES1    0.0000
      9 C5        -0.7641    6.7572    4.6211 C.ar      1 RES1    0.0000
     10 H3        -0.7058    6.0235    5.2226 H         1 RES1    0.0000
     11 C6        -1.4570    6.6336    3.4202 C.ar      1 RES1    0.0000
     12 H4        -1.8886    5.8170    3.1975 H         1 RES1    0.0000
     13 O2         0.7739    7.0738    6.8586 O.2       1 RES1    0.0000
     14 O3         0.9146    9.2217    6.5681 O.2       1 RES1    0.0000
     15 C7        -2.7953    8.5564    0.6937 C.ar      1 RES1    0.0000
     16 C8        -2.5190    8.7567   -0.6551 C.ar      1 RES1    0.0000
     17 H5        -1.8555    8.2359   -1.0922 H         1 RES1    0.0000
     18 C9        -3.7594    9.3042    1.3576 C.ar      1 RES1    0.0000
     19 H6        -3.9348    9.1532    2.2795 H         1 RES1    0.0000
     20 O4         1.5698    3.4831    4.1798 O.3       2 RES2    0.0000
     21 N2         0.3247    6.4468   -0.3803 N.pl3     2 RES2    0.0000
     22 C10        1.3394    4.2537    3.0599 C.ar      2 RES2    0.0000
     23 C11        1.9333    5.4984    2.8540 C.ar      2 RES2    0.0000
     24 H7         2.5583    5.8465    3.4794 H         2 RES2    0.0000
     25 C12        1.5927    6.2180    1.7153 C.ar      2 RES2    0.0000
     26 H8         1.9783    7.0711    1.5529 H         2 RES2    0.0000
     27 C13        0.6808    5.6767    0.8160 C.ar      2 RES2    0.0000
     28 C14        0.0929    4.4319    1.0073 C.ar      2 RES2    0.0000
     29 H9        -0.5212    4.0798    0.3736 H         2 RES2    0.0000
     30 C15        0.4278    3.7178    2.1499 C.ar      2 RES2    0.0000
     31 H10        0.0373    2.8669    2.3116 H         2 RES2    0.0000
     32 O5         0.8315    7.5565   -0.5295 O.2       2 RES2    0.0000
     33 O6        -0.4709    5.9605   -1.1833 O.2       2 RES2    0.0000
     34 C16        2.7203    3.7349    4.9373 C.ar      2 RES2    0.0000
     35 C17        2.5678    4.3181    6.1862 C.ar      2 RES2    0.0000
     36 H11        1.7104    4.5964    6.4879 H         2 RES2    0.0000
     37 C18        3.9569    3.3252    4.4682 C.ar      2 RES2    0.0000
     38 H12        4.0380    2.9324    3.6067 H         2 RES2    0.0000
     39 O1A       -4.8415   11.5485   -1.3376 O.3       1 RES1    0.0000
     40 N1A       -7.5429   10.9369   -6.2039 N.pl3     1 RES1    0.0000
     41 C1A       -5.4730   11.3155   -2.5454 C.ar      1 RES1    0.0000
     42 C2A       -6.0903   10.1011   -2.8551 C.ar      1 RES1    0.0000
     43 H1A       -6.0475    9.3710   -2.2497 H         1 RES1    0.0000
     44 C3A       -6.7708    9.9759   -4.0654 C.ar      1 RES1    0.0000
     45 H2A       -7.1912    9.1567   -4.2989 H         1 RES1    0.0000
     46 C4A       -6.8260   11.0650   -4.9266 C.ar      1 RES1    0.0000
     47 C5A       -6.2212   12.2778   -4.6211 C.ar      1 RES1    0.0000
     48 H3A       -6.2796   13.0114   -5.2226 H         1 RES1    0.0000
     49 C6A       -5.5284   12.4014   -3.4202 C.ar      1 RES1    0.0000
     50 H4A       -5.0968   13.2179   -3.1975 H         1 RES1    0.0000
     51 O2A       -7.7593   11.9611   -6.8586 O.2       1 RES1    0.0000
     52 O3A       -7.9000    9.8133   -6.5681 O.2       1 RES1    0.0000
     53 C7A       -4.1901   10.4785   -0.6937 C.ar      1 RES1    0.0000
     54 C8A       -4.4664   10.2783    0.6551 C.ar      1 RES1    0.0000
     55 H5A       -5.1299   10.7990    1.0922 H         1 RES1    0.0000
     56 C9A       -3.2260    9.7307   -1.3576 C.ar      1 RES1    0.0000
     57 H6A       -3.0506    9.8818   -2.2795 H         1 RES1    0.0000
     58 O4A        6.0783    4.3320    7.2808 O.3       2 RES2    0.0000
     59 N2A        7.3234    1.3683   11.8409 N.pl3     2 RES2    0.0000
     60 C10A       6.3088    3.5614    8.4007 C.ar      2 RES2    0.0000
     61 C11A       5.7148    2.3167    8.6066 C.ar      2 RES2    0.0000
     62 H7A        5.0899    1.9685    7.9812 H         2 RES2    0.0000
     63 C12A       6.0554    1.5970    9.7453 C.ar      2 RES2    0.0000
     64 H8A        5.6698    0.7439    9.9077 H         2 RES2    0.0000
     65 C13A       6.9673    2.1383   10.6446 C.ar      2 RES2    0.0000
     66 C14A       7.5552    3.3832   10.4533 C.ar      2 RES2    0.0000
     67 H9A        8.1693    3.7352   11.0870 H         2 RES2    0.0000
     68 C15A       7.2203    4.0973    9.3107 C.ar      2 RES2    0.0000
     69 H10A       7.6108    4.9482    9.1490 H         2 RES2    0.0000
     70 O5A        6.8166    0.2585   11.9901 O.2       2 RES2    0.0000
     71 O6A        8.1190    1.8546   12.6439 O.2       2 RES2    0.0000
     72 C16A       4.9278    4.0802    6.5233 C.ar      2 RES2    0.0000
     73 C17A       5.0803    3.4970    5.2744 C.ar      2 RES2    0.0000
     74 H11A       5.9377    3.2187    4.9728 H         2 RES2    0.0000
     75 C18A       3.6912    4.4898    6.9925 C.ar      2 RES2    0.0000
     76 H12A       3.6101    4.8826    7.8540 H         2 RES2    0.0000
@<TRIPOS>BOND
     1    1    3 1
     2    2    8 1
     3    3    4 ar
     4    4    5 1
     5    6    4 ar
     6    7    6 1
     7    8    6 ar
     8    9    8 ar
     9   10    9 1
    10   11    3 ar
    11   12   11 1
    12   13    2 2
    13   14    2 2
    14   15    1 1
    15   16   15 ar
    16   17   16 1
    17   18   15 ar
    18   19   18 1
    19   20   22 1
    20   21   27 1
    21   22   23 ar
    22   23   24 1
    23   25   23 ar
    24   26   25 1
    25   27   25 ar
    26   28   27 ar
    27   29   28 1
    28   30   22 ar
    29   31   30 1
    30   32   21 2
    31   33   21 2
    32   34   20 1
    33   35   34 ar
    34   36   35 1
    35   37   34 ar
    36   38   37 1
    37   39   41 1
    38   40   46 1
    39   41   42 ar
    40   42   43 1
    41   44   42 ar
    42   45   44 1
    43   46   44 ar
    44   47   46 ar
    45   48   47 1
    46   49   41 ar
    47   50   49 1
    48   51   40 2
    49   52   40 2
    50   53   39 1
    51   54   18 ar
    52   55   54 1
    53   56   16 ar
    54   57   56 1
    55   58   60 1
    56   59   65 1
    57   60   61 ar
    58   61   62 1
    59   63   61 ar
    60   64   63 1
    61   65   63 ar
    62   66   65 ar
    63   67   66 1
    64   68   60 ar
    65   69   68 1
    66   70   59 2
    67   71   59 2
    68   72   58 1
    69   73   37 ar
    70   74   73 1
    71   75   35 ar
    72   76   75 1
    73    9   11 ar
    74   28   30 ar
    75   47   49 ar
    76   53   54 ar
    77   53   56 ar
    78   66   68 ar
    79   72   73 ar
    80   72   75 ar
@<TRIPOS>SUBSTRUCTURE
     1 RES1 1
     2 RES2 20

@<TRIPOS>CRYSIN
   7.2861   10.1381   12.0838  91.9730 106.4970 110.1520   2 1

