# MOL2 file generated by ConQuest
# Please check atom types

@<TRIPOS>MOLECULE
GEPGOX
    34    32     2
SMALL
NO_CHARGES
****
Generated from CSD

@<TRIPOS>ATOM
      1 C1         2.5371    0.4916    8.2426 C.ar      1 RES1    0.0000
      2 C2         2.8543   -0.2303    9.3795 C.ar      1 RES1    0.0000
      3 C3         4.1508   -0.2484    9.8840 C.ar      1 RES1    0.0000
      4 C4         5.1511    0.4340    9.2701 C.ar      1 RES1    0.0000
      5 C5         5.9819    1.5931    7.1944 C.ar      1 RES1    0.0000
      6 C6         5.7310    2.0398    5.9343 C.ar      1 RES1    0.0000
      7 C7         4.4404    1.9950    5.3976 C.ar      1 RES1    0.0000
      8 C8         3.4106    1.5120    6.1509 C.ar      1 RES1    0.0000
      9 C9         3.6303    1.0631    7.4732 C.ar      1 RES1    0.0000
     10 C10        4.9514    1.0748    7.9996 C.ar      1 RES1    0.0000
     11 N1         1.2446    0.6014    7.7865 N.3       1 RES1    0.0000
     12 C11        0.2730   -0.3668    8.3405 C.3       1 RES1    0.0000
     13 C12        0.7108    1.9695    7.5699 C.3       1 RES1    0.0000
     14 C13        0.1562    2.5730    8.8704 C.3       1 RES1    0.0000
     15 C14       -0.3265    1.9759    6.4354 C.3       1 RES1    0.0000
     16 N2         6.4130    0.4852    9.9819 N.pl3     1 RES1    0.0000
     17 O1         7.2547    1.2945    9.6559 O.2       1 RES1    0.0000
     18 O2         6.5581   -0.2399   10.9656 O.2       1 RES1    0.0000
     19 H1         2.0807   -0.7923    9.8829 H         1 RES1    0.0000
     20 H2         3.8470   -0.8125   10.7801 H         1 RES1    0.0000
     21 H3         6.9942    1.6357    7.5481 H         1 RES1    0.0000
     22 H4         6.5427    2.4376    5.3434 H         1 RES1    0.0000
     23 H5         4.2630    2.3395    4.3885 H         1 RES1    0.0000
     24 H6         2.4155    1.4726    5.7316 H         1 RES1    0.0000
     25 H7        -0.7009   -0.1855    7.9109 H         1 RES1    0.0000
     26 H8         0.2205   -0.2538    9.4129 H         1 RES1    0.0000
     27 H9         0.5911   -1.3702    8.0986 H         1 RES1    0.0000
     28 H10        1.1774    2.6540    8.2622 Du        2 SUP2    0.0000
     29 H11       -0.3566    1.9652    7.7208 Du        2 SUP2    0.0000
     30 H12        0.9241    2.2797    6.5483 Du        2 SUP2    0.0000
     31 H13       -0.2235    3.5657    8.6746 H         1 RES1    0.0000
     32 H14        0.9480    2.6306    9.6133 H         1 RES1    0.0000
     33 H15       -0.6395    1.9513    9.2539 H         1 RES1    0.0000
     34 H16       -0.7003    2.9803    6.2960 H         1 RES1    0.0000
@<TRIPOS>BOND
     1    1    2 ar
     2    2    3 ar
     3    3    4 ar
     4    4   10 ar
     5    5    6 ar
     6    6    7 ar
     7    7    8 ar
     8    8    9 ar
     9    9    1 ar
    10   10    5 ar
    11   11    1 1
    12   12   11 1
    13   13   11 1
    14   14   13 1
    15   15   13 1
    16   16    4 1
    17   17   16 2
    18   18   16 2
    19   19    2 1
    20   20    3 1
    21   21    5 1
    22   22    6 1
    23   23    7 1
    24   24    8 1
    25   25   12 1
    26   26   12 1
    27   27   12 1
    28   31   14 1
    29   32   14 1
    30   33   14 1
    31   34   15 1
    32    9   10 ar
@<TRIPOS>SUBSTRUCTURE
     1 RES1 1
     2 SUP2 28

@<TRIPOS>CRYSIN
  10.3410   10.6630   11.6510  90.0000  98.6500  90.0000  14 1

