# MOL2 file generated by ConQuest
# Please check atom types

@<TRIPOS>MOLECULE
GEPPUN
    76    78     2
SMALL
NO_CHARGES
****
Generated from CSD

@<TRIPOS>ATOM
      1 N1         3.7860   -3.2771   11.2260 N.am      1 RES1    0.0000
      2 N2         1.8485    1.7127    5.7199 N.pl3     1 RES1    0.0000
      3 N3         0.4215    1.8806   11.4276 N.am      2 RES2    0.0000
      4 N4        -3.6747    1.4706    4.7000 N.pl3     2 RES2    0.0000
      5 O1         1.6838   -2.6195   10.7503 O.2       1 RES1    0.0000
      6 O2         1.8569   -3.2656    8.1508 O.3       1 RES1    0.0000
      7 O3         0.9341    1.9439    4.9550 O.2       1 RES1    0.0000
      8 O4         2.7397    2.5207    5.9697 O.2       1 RES1    0.0000
      9 O5        -1.6984    1.1353   11.2206 O.2       2 RES2    0.0000
     10 O6        -1.1147   -0.5316    9.1952 O.3       2 RES2    0.0000
     11 O7        -4.3914    0.6960    4.0856 O.2       2 RES2    0.0000
     12 O8        -3.5227    2.6350    4.3672 O.2       2 RES2    0.0000
     13 C1         2.7251   -3.1424   10.4135 C.2       1 RES1    0.0000
     14 C2         2.9000   -3.6916    9.0099 C.3       1 RES1    0.0000
     15 H1         3.7514   -3.3951    8.6532 H         1 RES1    0.0000
     16 H2         2.9118   -4.6615    9.0447 H         1 RES1    0.0000
     17 C3         1.9075   -2.0146    7.6295 C.ar      1 RES1    0.0000
     18 C4         2.8641   -1.0663    7.9373 C.ar      1 RES1    0.0000
     19 H3         3.5229   -1.2519    8.5656 H         1 RES1    0.0000
     20 C5         2.8319    0.1577    7.3037 C.ar      1 RES1    0.0000
     21 H4         3.4765    0.7980    7.5007 H         1 RES1    0.0000
     22 C6         1.8650    0.4295    6.3933 C.ar      1 RES1    0.0000
     23 C7         0.8925   -0.5022    6.0920 C.ar      1 RES1    0.0000
     24 H5         0.2294   -0.3092    5.4701 H         1 RES1    0.0000
     25 C8         0.9186   -1.7069    6.7178 C.ar      1 RES1    0.0000
     26 H6         0.2589   -2.3351    6.5285 H         1 RES1    0.0000
     27 C9         5.0045   -3.9120   10.8139 C.ar      1 RES1    0.0000
     28 C10        5.1022   -5.2801   10.7547 C.ar      1 RES1    0.0000
     29 H7         4.3652   -5.8102   10.9594 H         1 RES1    0.0000
     30 C11        6.2962   -5.8668   10.3929 C.ar      1 RES1    0.0000
     31 H8         6.3651   -6.7929   10.3452 H         1 RES1    0.0000
     32 C12        7.3850   -5.0832   10.0993 C.ar      1 RES1    0.0000
     33 H9         8.1925   -5.4823    9.8649 H         1 RES1    0.0000
     34 C13        7.2884   -3.7278   10.1521 C.ar      1 RES1    0.0000
     35 H10        8.0279   -3.2002    9.9499 H         1 RES1    0.0000
     36 C14        6.1037   -3.1397   10.4997 C.ar      1 RES1    0.0000
     37 H11        6.0378   -2.2125   10.5255 H         1 RES1    0.0000
     38 C15        3.6786   -2.8809   12.6270 C.3       1 RES1    0.0000
     39 H12        2.9958   -2.1974   12.7094 H         1 RES1    0.0000
     40 H13        4.5211   -2.4948   12.9116 H         1 RES1    0.0000
     41 C16        3.3421   -4.0064   13.5168 C.3       1 RES1    0.0000
     42 H14        3.2817   -3.6917   14.4207 H         1 RES1    0.0000
     43 H15        4.0256   -4.6779   13.4563 H         1 RES1    0.0000
     44 H16        2.5001   -4.3833   13.2515 H         1 RES1    0.0000
     45 C17       -0.5268    1.1048   10.8809 C.2       2 RES2    0.0000
     46 C18       -0.0428    0.1507    9.8198 C.3       2 RES2    0.0000
     47 H17        0.4556    0.6433    9.1503 H         2 RES2    0.0000
     48 H18        0.5570   -0.4965   10.2216 H         2 RES2    0.0000
     49 C19       -1.7229    0.0548    8.1356 C.ar      2 RES2    0.0000
     50 C20       -1.5803    1.3765    7.7544 C.ar      2 RES2    0.0000
     51 H19       -1.0577    1.9553    8.2618 H         2 RES2    0.0000
     52 C21       -2.2140    1.8339    6.6264 C.ar      2 RES2    0.0000
     53 H20       -2.1181    2.7215    6.3650 H         2 RES2    0.0000
     54 C22       -2.9890    0.9796    5.8860 C.ar      2 RES2    0.0000
     55 C23       -3.1587   -0.3357    6.2646 C.ar      2 RES2    0.0000
     56 H21       -3.6972   -0.9044    5.7637 H         2 RES2    0.0000
     57 C24       -2.5256   -0.7927    7.3861 C.ar      2 RES2    0.0000
     58 H22       -2.6331   -1.6777    7.6475 H         2 RES2    0.0000
     59 C25        1.7840    1.8393   10.9800 C.ar      2 RES2    0.0000
     60 C26        2.1989    2.7179   10.0001 C.ar      2 RES2    0.0000
     61 H23        1.5934    3.3102    9.6151 H         2 RES2    0.0000
     62 C27        3.5166    2.7148    9.5932 C.ar      2 RES2    0.0000
     63 H24        3.8047    3.3135    8.9429 H         2 RES2    0.0000
     64 C28        4.3965    1.8316   10.1469 C.ar      2 RES2    0.0000
     65 H25        5.2841    1.8290    9.8675 H         2 RES2    0.0000
     66 C29        3.9856    0.9484   11.1088 C.ar      2 RES2    0.0000
     67 H26        4.5907    0.3428   11.4719 H         2 RES2    0.0000
     68 C30        2.6717    0.9559   11.5428 C.ar      2 RES2    0.0000
     69 H27        2.3932    0.3682   12.2085 H         2 RES2    0.0000
     70 C31        0.0824    2.8057   12.5150 C.3       2 RES2    0.0000
     71 H28        0.7198    2.6861   13.2373 H         2 RES2    0.0000
     72 H29       -0.7968    2.5774   12.8575 H         2 RES2    0.0000
     73 C32        0.0836    4.2393   12.1016 C.3       2 RES2    0.0000
     74 H30       -0.1354    4.7895   12.8575 H         2 RES2    0.0000
     75 H31       -0.5672    4.3726   11.4088 H         2 RES2    0.0000
     76 H32        0.9543    4.4768   11.7733 H         2 RES2    0.0000
@<TRIPOS>BOND
     1    1   13 1
     2    2    7 2
     3    3   45 1
     4    4   11 2
     5    5   13 2
     6    6   14 1
     7    8    2 2
     8    9   45 2
     9   10   46 1
    10   12    4 2
    11   13   14 1
    12   14   15 1
    13   16   14 1
    14   17    6 1
    15   18   17 ar
    16   19   18 1
    17   20   18 ar
    18   21   20 1
    19   22    2 1
    20   23   22 ar
    21   24   23 1
    22   25   17 ar
    23   26   25 1
    24   27    1 1
    25   28   27 ar
    26   29   28 1
    27   30   28 ar
    28   31   30 1
    29   32   30 ar
    30   33   32 1
    31   34   32 ar
    32   35   34 1
    33   36   27 ar
    34   37   36 1
    35   38    1 1
    36   39   38 1
    37   40   38 1
    38   41   38 1
    39   42   41 1
    40   43   41 1
    41   44   41 1
    42   45   46 1
    43   46   47 1
    44   48   46 1
    45   49   10 1
    46   50   49 ar
    47   51   50 1
    48   52   50 ar
    49   53   52 1
    50   54    4 1
    51   55   54 ar
    52   56   55 1
    53   57   49 ar
    54   58   57 1
    55   59    3 1
    56   60   59 ar
    57   61   60 1
    58   62   60 ar
    59   63   62 1
    60   64   62 ar
    61   65   64 1
    62   66   64 ar
    63   67   66 1
    64   68   59 ar
    65   69   68 1
    66   70    3 1
    67   71   70 1
    68   72   70 1
    69   73   70 1
    70   74   73 1
    71   75   73 1
    72   76   73 1
    73   20   22 ar
    74   23   25 ar
    75   34   36 ar
    76   52   54 ar
    77   55   57 ar
    78   66   68 ar
@<TRIPOS>SUBSTRUCTURE
     1 RES1 1
     2 RES2 3

@<TRIPOS>CRYSIN
   9.1060   13.5440   14.5300 110.3180 101.9010 105.0170   2 1

