# MOL2 file generated by ConQuest
# Please check atom types

@<TRIPOS>MOLECULE
GEQGAN
    42    46     1
SMALL
NO_CHARGES
****
Generated from CSD

@<TRIPOS>ATOM
      1 O1         0.6952    7.8773    8.0383 O.2       1 RES1    0.0000
      2 O2        -0.2187    8.4603    6.2000 O.2       1 RES1    0.0000
      3 N1        -0.5268    5.6337    9.0633 N.pl3     1 RES1    0.0000
      4 N2        -0.2730    7.9637    7.3104 N.pl3     1 RES1    0.0000
      5 C1         0.3257    4.8904    8.2314 C.ar      1 RES1    0.0000
      6 C2         0.2738    4.7303    6.8611 C.ar      1 RES1    0.0000
      7 H1        -0.3855    5.1739    6.3393 H         1 RES1    0.0000
      8 C3         1.1989    3.9121    6.2762 C.ar      1 RES1    0.0000
      9 H2         1.1734    3.7773    5.3366 H         1 RES1    0.0000
     10 C4         2.1863    3.2691    7.0375 C.ar      1 RES1    0.0000
     11 H3         2.8208    2.7091    6.6048 H         1 RES1    0.0000
     12 C5         2.2493    3.4374    8.3985 C.ar      1 RES1    0.0000
     13 H4         2.9206    2.9983    8.9073 H         1 RES1    0.0000
     14 C6         1.3090    4.2659    9.0317 C.ar      1 RES1    0.0000
     15 C7         1.0424    4.6657   10.3872 C.2       1 RES1    0.0000
     16 C8         1.5294    4.4940   11.8151 C.3       1 RES1    0.0000
     17 H5         1.4096    3.5365   12.0770 H         1 RES1    0.0000
     18 C9         0.5021    5.3306   12.5690 C.ar      1 RES1    0.0000
     19 C10        0.4111    5.5519   13.9171 C.ar      1 RES1    0.0000
     20 H6         1.0377    5.1566   14.5113 H         1 RES1    0.0000
     21 C11       -0.6122    6.3666   14.4073 C.ar      1 RES1    0.0000
     22 H7        -0.6689    6.5440   15.3376 H         1 RES1    0.0000
     23 C12       -1.5485    6.9197   13.5420 C.ar      1 RES1    0.0000
     24 H8        -2.2469    7.4613   13.8911 H         1 RES1    0.0000
     25 C13       -1.4759    6.6927   12.1791 C.ar      1 RES1    0.0000
     26 H9        -2.1176    7.0729   11.5905 H         1 RES1    0.0000
     27 C14       -0.4526    5.9033   11.6907 C.ar      1 RES1    0.0000
     28 C15       -0.0686    5.4724   10.3594 C.2       1 RES1    0.0000
     29 C16        2.9486    4.8778   12.0677 C.3       1 RES1    0.0000
     30 H10        3.1625    4.7314   13.0128 H         1 RES1    0.0000
     31 H11        3.5392    4.3304   11.5106 H         1 RES1    0.0000
     32 H12        3.0755    5.8250   11.8467 H         1 RES1    0.0000
     33 C17       -1.6507    6.3781    8.6436 C.ar      1 RES1    0.0000
     34 C18       -1.5733    7.4613    7.7839 C.ar      1 RES1    0.0000
     35 C19       -2.7011    8.1239    7.3271 C.ar      1 RES1    0.0000
     36 H13       -2.6189    8.8371    6.7051 H         1 RES1    0.0000
     37 C20       -3.9415    7.7401    7.7839 C.ar      1 RES1    0.0000
     38 H14       -4.7206    8.2045    7.5017 H         1 RES1    0.0000
     39 C21       -4.0437    6.6616    8.6659 C.ar      1 RES1    0.0000
     40 H15       -4.8962    6.3919    8.9872 H         1 RES1    0.0000
     41 C22       -2.9214    5.9898    9.0670 C.ar      1 RES1    0.0000
     42 H16       -3.0100    5.2431    9.6463 H         1 RES1    0.0000
@<TRIPOS>BOND
     1    1    4 2
     2    2    4 2
     3    3    5 1
     4    4   34 1
     5    5    6 ar
     6    6    7 1
     7    8    6 ar
     8    9    8 1
     9   10    8 ar
    10   11   10 1
    11   12   10 ar
    12   13   12 1
    13   14    5 ar
    14   15   14 1
    15   16   15 1
    16   17   16 1
    17   18   16 1
    18   19   18 ar
    19   20   19 1
    20   21   19 ar
    21   22   21 1
    22   23   21 ar
    23   24   23 1
    24   25   23 ar
    25   26   25 1
    26   27   18 ar
    27   28    3 1
    28   29   16 1
    29   30   29 1
    30   31   29 1
    31   32   29 1
    32   33    3 1
    33   34   33 ar
    34   35   34 ar
    35   36   35 1
    36   37   35 ar
    37   38   37 1
    38   39   37 ar
    39   40   39 1
    40   41   33 ar
    41   42   41 1
    42   12   14 ar
    43   15   28 2
    44   25   27 ar
    45   27   28 1
    46   39   41 ar
@<TRIPOS>SUBSTRUCTURE
     1 RES1 1

@<TRIPOS>CRYSIN
   7.9820   11.5232   18.5685  90.0000  90.0000  90.0000  19 1

