# MOL2 file generated by ConQuest
# Please check atom types

@<TRIPOS>MOLECULE
GEQQAU
    50    54     1
SMALL
NO_CHARGES
****
Generated from CSD

@<TRIPOS>ATOM
      1 O1         3.0496   -0.0696    5.1925 O.3       1 RES1    0.0000
      2 O2         3.7760    2.8972    5.3849 O.3       1 RES1    0.0000
      3 O3         2.0203    3.6501    4.1312 O.3       1 RES1    0.0000
      4 O4         0.6782    1.2825    2.7921 O.3       1 RES1    0.0000
      5 O5         0.8613   -1.0137    2.4396 O.3       1 RES1    0.0000
      6 O6         3.4823   -1.2845    8.0925 O.2       1 RES1    0.0000
      7 O7         5.4408   -1.1783    7.2206 O.2       1 RES1    0.0000
      8 N1         4.3649   -0.6875    7.5174 N.pl3     1 RES1    0.0000
      9 C1         4.1117    0.7358    7.1310 C.3       1 RES1    0.0000
     10 H1         4.8704    1.0800    6.6350 H         1 RES1    0.0000
     11 H2         4.0011    1.2766    7.9279 H         1 RES1    0.0000
     12 C2         2.8691    0.8184    6.2838 C.3       1 RES1    0.0000
     13 H3         2.1099    0.5023    6.8179 H         1 RES1    0.0000
     14 C3         2.5928    2.2572    5.8599 C.3       1 RES1    0.0000
     15 H4         2.2420    2.7567    6.6257 H         1 RES1    0.0000
     16 C4         1.6310    2.4026    4.6818 C.3       1 RES1    0.0000
     17 H5         0.7050    2.4443    5.0010 H         1 RES1    0.0000
     18 C5         1.7931    1.2805    3.6733 C.3       1 RES1    0.0000
     19 H6         2.6108    1.4317    3.1547 H         1 RES1    0.0000
     20 C6         1.8893   -0.0707    4.3688 C.3       1 RES1    0.0000
     21 H7         1.0911   -0.2214    4.9173 H         1 RES1    0.0000
     22 C7         1.9930   -1.1452    3.3000 C.3       1 RES1    0.0000
     23 H8         2.8127   -1.0350    2.7935 H         1 RES1    0.0000
     24 H9         2.0012   -2.0251    3.7097 H         1 RES1    0.0000
     25 C8         3.4318    3.7363    4.2782 C.3       1 RES1    0.0000
     26 H10        3.8634    3.3961    3.4663 H         1 RES1    0.0000
     27 C9         0.8301    0.2562    1.8279 C.3       1 RES1    0.0000
     28 H11        1.6711    0.3967    1.3440 H         1 RES1    0.0000
     29 C10        3.8162    5.1748    4.4815 C.ar      1 RES1    0.0000
     30 C11        3.0683    5.9932    5.3153 C.ar      1 RES1    0.0000
     31 H12        2.3416    5.6516    5.7839 H         1 RES1    0.0000
     32 C12        3.4211    7.3339    5.4397 C.ar      1 RES1    0.0000
     33 H13        2.9385    7.8857    6.0118 H         1 RES1    0.0000
     34 C13        4.4783    7.8509    4.7235 C.ar      1 RES1    0.0000
     35 H14        4.6961    8.7510    4.7995 H         1 RES1    0.0000
     36 C14        5.2071    7.0327    3.9004 C.ar      1 RES1    0.0000
     37 H15        5.9224    7.3834    3.4198 H         1 RES1    0.0000
     38 C15        4.8856    5.6774    3.7742 C.ar      1 RES1    0.0000
     39 H16        5.3871    5.1234    3.2198 H         1 RES1    0.0000
     40 C16       -0.3097    0.3315    0.8539 C.ar      1 RES1    0.0000
     41 C17       -0.8057   -0.8114    0.2435 C.ar      1 RES1    0.0000
     42 H17       -0.4886   -1.6486    0.4945 H         1 RES1    0.0000
     43 C18       -1.7793   -0.7024   -0.7457 C.ar      1 RES1    0.0000
     44 H18       -2.0917   -1.4688   -1.1689 H         1 RES1    0.0000
     45 C19       -2.2800    0.5158   -1.1000 C.ar      1 RES1    0.0000
     46 H19       -2.9237    0.5799   -1.7673 H         1 RES1    0.0000
     47 C20       -1.8272    1.6531   -0.4651 C.ar      1 RES1    0.0000
     48 H20       -2.1763    2.4836   -0.6961 H         1 RES1    0.0000
     49 C21       -0.8575    1.5621    0.5130 C.ar      1 RES1    0.0000
     50 H21       -0.5675    2.3308    0.9472 H         1 RES1    0.0000
@<TRIPOS>BOND
     1    1   12 1
     2    2   14 1
     3    3   16 1
     4    4   18 1
     5    5   22 1
     6    6    8 2
     7    7    8 2
     8    8    9 1
     9    9   10 1
    10   11    9 1
    11   12    9 1
    12   13   12 1
    13   14   12 1
    14   15   14 1
    15   16   14 1
    16   17   16 1
    17   18   16 1
    18   19   18 1
    19   20    1 1
    20   21   20 1
    21   22   20 1
    22   23   22 1
    23   24   22 1
    24   25    2 1
    25   26   25 1
    26   27    4 1
    27   28   27 1
    28   29   25 1
    29   30   29 ar
    30   31   30 1
    31   32   30 ar
    32   33   32 1
    33   34   32 ar
    34   35   34 1
    35   36   34 ar
    36   37   36 1
    37   38   29 ar
    38   39   38 1
    39   40   27 1
    40   41   40 ar
    41   42   41 1
    42   43   41 ar
    43   44   43 1
    44   45   43 ar
    45   46   45 1
    46   47   45 ar
    47   48   47 1
    48   49   40 ar
    49   50   49 1
    50    3   25 1
    51    5   27 1
    52   18   20 1
    53   36   38 ar
    54   47   49 ar
@<TRIPOS>SUBSTRUCTURE
     1 RES1 1

@<TRIPOS>CRYSIN
   5.4540   11.2380   15.5750  90.0000  95.5400  90.0000   4 1

