# MOL2 file generated by ConQuest
# Please check atom types

@<TRIPOS>MOLECULE
GEQZUX
    80    82     1
SMALL
NO_CHARGES
****
Generated from CSD

@<TRIPOS>ATOM
      1 C1         6.7596   -3.4814   -3.5930 C.2       1 RES1    0.0000
      2 H1         5.9754   -3.3544   -4.1321 H         1 RES1    0.0000
      3 C2         7.0476   -2.5192   -2.7556 C.2       1 RES1    0.0000
      4 H2         7.8294   -2.5976   -2.2041 H         1 RES1    0.0000
      5 C3         6.2098   -1.3164   -2.6358 C.2       1 RES1    0.0000
      6 O1         5.3053   -1.0220   -3.3335 O.2       1 RES1    0.0000
      7 O2         6.5819   -0.5964   -1.5735 O.3       1 RES1    0.0000
      8 C4         5.8152    0.6063   -1.2682 C.3       1 RES1    0.0000
      9 H3         5.0693    0.7181   -1.8622 H         1 RES1    0.0000
     10 C5         6.7453    1.7830   -1.3779 C.3       1 RES1    0.0000
     11 H4         7.4792    1.6553   -0.7723 H         1 RES1    0.0000
     12 H5         7.0772    1.8294   -2.2775 H         1 RES1    0.0000
     13 C6         6.0576    3.1157   -1.0450 C.3       1 RES1    0.0000
     14 N1         5.2863    2.9416    0.2379 N.3       1 RES1    0.0000
     15 O3         4.8402    4.0305    0.7498 O.2       1 RES1    0.0000
     16 C7         4.5616    1.6961    0.6399 C.3       1 RES1    0.0000
     17 C8         5.3485    0.4791    0.1720 C.3       1 RES1    0.0000
     18 H6         4.7885   -0.2971    0.2468 H         1 RES1    0.0000
     19 H7         6.1172    0.3748    0.7375 H         1 RES1    0.0000
     20 C9         7.4929   -4.7370   -3.8037 C.ar      1 RES1    0.0000
     21 C10        6.9191   -5.7391   -4.5898 C.ar      1 RES1    0.0000
     22 H8         6.1253   -5.5803   -4.9635 H         1 RES1    0.0000
     23 C11        8.7458   -4.9715   -3.2522 C.ar      1 RES1    0.0000
     24 H9         9.1891   -4.3482   -2.6891 H         1 RES1    0.0000
     25 C12        5.1077    3.5566   -2.1591 C.3       1 RES1    0.0000
     26 H10        5.5987    3.6681   -2.9765 H         1 RES1    0.0000
     27 H11        4.6999    4.3905   -1.9145 H         1 RES1    0.0000
     28 H12        4.4264    2.8916   -2.2833 H         1 RES1    0.0000
     29 C13        7.1059    4.1855   -0.7839 C.3       1 RES1    0.0000
     30 H13        7.6218    4.3243   -1.5815 H         1 RES1    0.0000
     31 H14        7.6854    3.9005   -0.0735 H         1 RES1    0.0000
     32 H15        6.6744    5.0061   -0.5350 H         1 RES1    0.0000
     33 C14        4.5007    1.6894    2.1616 C.3       1 RES1    0.0000
     34 H16        4.0391    0.9007    2.4556 H         1 RES1    0.0000
     35 H17        4.0323    2.4682    2.4709 H         1 RES1    0.0000
     36 H18        5.3922    1.6898    2.5177 H         1 RES1    0.0000
     37 C15        3.1518    1.7307    0.0580 C.3       1 RES1    0.0000
     38 H19        2.6778    0.9360    0.3138 H         1 RES1    0.0000
     39 H20        3.2043    1.7777   -0.8994 H         1 RES1    0.0000
     40 H21        2.6872    2.5018    0.3912 H         1 RES1    0.0000
     41 C11B       7.5850   -6.9218   -4.8330 C.ar      1 RES1    0.0000
     42 C9B        8.8378   -7.1563   -4.2814 C.ar      1 RES1    0.0000
     43 C1B        9.5712   -8.4119   -4.4922 C.2       1 RES1    0.0000
     44 H1B       10.3554   -8.5389   -3.9531 H         1 RES1    0.0000
     45 C2B        9.2832   -9.3741   -5.3296 C.2       1 RES1    0.0000
     46 H2B        8.5013   -9.2957   -5.8810 H         1 RES1    0.0000
     47 C3B       10.1210  -10.5769   -5.4494 C.2       1 RES1    0.0000
     48 O1B       11.0255  -10.8713   -4.7516 O.2       1 RES1    0.0000
     49 O2B        9.7489  -11.2969   -6.5116 O.3       1 RES1    0.0000
     50 C4B       10.5156  -12.4996   -6.8169 C.3       1 RES1    0.0000
     51 H3B       11.2615  -12.6114   -6.2230 H         1 RES1    0.0000
     52 C5B        9.5855  -13.6763   -6.7073 C.3       1 RES1    0.0000
     53 H4B        8.8516  -13.5486   -7.3128 H         1 RES1    0.0000
     54 H5B        9.2536  -13.7227   -5.8076 H         1 RES1    0.0000
     55 C6B       10.2732  -15.0090   -7.0401 C.3       1 RES1    0.0000
     56 N1B       11.0444  -14.8349   -8.3230 N.3       1 RES1    0.0000
     57 O3B       11.4905  -15.9238   -8.8349 O.2       1 RES1    0.0000
     58 C7B       11.7692  -13.5894   -8.7251 C.3       1 RES1    0.0000
     59 C8B       10.9822  -12.3724   -8.2571 C.3       1 RES1    0.0000
     60 H6B       11.5423  -11.5962   -8.3320 H         1 RES1    0.0000
     61 H7B       10.2136  -12.2681   -8.8227 H         1 RES1    0.0000
     62 C14B      11.8301  -13.5827  -10.2468 C.3       1 RES1    0.0000
     63 H16B      12.2917  -12.7940  -10.5407 H         1 RES1    0.0000
     64 H17B      12.2985  -14.3615  -10.5560 H         1 RES1    0.0000
     65 H18B      10.9386  -13.5831  -10.6028 H         1 RES1    0.0000
     66 C15B      13.1790  -13.6240   -8.1431 C.3       1 RES1    0.0000
     67 H19B      13.6530  -12.8293   -8.3989 H         1 RES1    0.0000
     68 H20B      13.1264  -13.6710   -7.1857 H         1 RES1    0.0000
     69 H21B      13.6436  -14.3951   -8.4764 H         1 RES1    0.0000
     70 C12B      11.2231  -15.4499   -5.9260 C.3       1 RES1    0.0000
     71 H10B      10.7321  -15.5614   -5.1087 H         1 RES1    0.0000
     72 H11B      11.6309  -16.2838   -6.1707 H         1 RES1    0.0000
     73 H12B      11.9043  -14.7849   -5.8018 H         1 RES1    0.0000
     74 C13B       9.2249  -16.0788   -7.3013 C.3       1 RES1    0.0000
     75 H13B       8.7090  -16.2176   -6.5037 H         1 RES1    0.0000
     76 H14B       8.6454  -15.7938   -8.0116 H         1 RES1    0.0000
     77 H15B       9.6564  -16.8994   -7.5501 H         1 RES1    0.0000
     78 C10B       9.4117   -6.1542   -3.4954 C.ar      1 RES1    0.0000
     79 H8B       10.2055   -6.3130   -3.1217 H         1 RES1    0.0000
     80 H9B        7.1417   -7.5451   -5.3960 H         1 RES1    0.0000
@<TRIPOS>BOND
     1    1    2 1
     2    3    1 2
     3    4    3 1
     4    5    3 1
     5    6    5 2
     6    7    5 1
     7    8    7 1
     8    9    8 1
     9   10    8 1
    10   11   10 1
    11   12   10 1
    12   13   10 1
    13   14   13 1
    14   15   14 1
    15   16   14 1
    16   17    8 1
    17   18   17 1
    18   19   17 1
    19   20    1 1
    20   21   20 ar
    21   22   21 1
    22   23   20 ar
    23   24   23 1
    24   25   13 1
    25   26   25 1
    26   27   25 1
    27   28   25 1
    28   29   13 1
    29   30   29 1
    30   31   29 1
    31   32   29 1
    32   33   16 1
    33   34   33 1
    34   35   33 1
    35   36   33 1
    36   37   16 1
    37   38   37 1
    38   39   37 1
    39   40   37 1
    40   41   21 ar
    41   42   41 ar
    42   43   42 1
    43   44   43 1
    44   45   43 2
    45   46   45 1
    46   47   45 1
    47   48   47 2
    48   49   47 1
    49   50   49 1
    50   51   50 1
    51   52   50 1
    52   53   52 1
    53   54   52 1
    54   55   52 1
    55   56   55 1
    56   57   56 1
    57   58   56 1
    58   59   50 1
    59   60   59 1
    60   61   59 1
    61   62   58 1
    62   63   62 1
    63   64   62 1
    64   65   62 1
    65   66   58 1
    66   67   66 1
    67   68   66 1
    68   69   66 1
    69   70   55 1
    70   71   70 1
    71   72   70 1
    72   73   70 1
    73   74   55 1
    74   75   74 1
    75   76   74 1
    76   77   74 1
    77   78   23 ar
    78   79   78 1
    79   80   41 1
    80   16   17 1
    81   42   78 ar
    82   58   59 1
@<TRIPOS>SUBSTRUCTURE
     1 RES1 1

@<TRIPOS>CRYSIN
  15.5138   11.8933    8.1263  90.0000  95.7700  90.0000  14 2

