# MOL2 file generated by ConQuest
# Please check atom types

@<TRIPOS>MOLECULE
GERCOV
   116   118     2
SMALL
NO_CHARGES
****
Generated from CSD

@<TRIPOS>ATOM
      1 C1         1.5842   31.7450   -2.3870 C.2       1 RES1    0.0000
      2 C2         2.1488   31.7320   -1.8307 C.2       1 RES1    0.0000
      3 C3         3.0175   31.4610   -0.6516 C.2       1 RES1    0.0000
      4 O1         4.0198   31.8539   -0.5707 O.2       1 RES1    0.0000
      5 O2         2.3563   30.8004    0.2766 O.3       1 RES1    0.0000
      6 C4         3.1278   30.3644    1.4022 C.3       1 RES1    0.0000
      7 H1         3.6772   29.6175    1.1522 H         1 RES1    0.0000
      8 H2         3.6845   31.0791    1.7193 H         1 RES1    0.0000
      9 C5         2.1569   29.9537    2.4832 C.3       1 RES1    0.0000
     10 H3         2.6168   29.4002    3.1182 H         1 RES1    0.0000
     11 H4         1.4453   29.4529    2.0779 H         1 RES1    0.0000
     12 C6         1.5659   31.1209    3.2017 C.3       1 RES1    0.0000
     13 H5         1.2945   31.7814    2.5602 H         1 RES1    0.0000
     14 H6         0.8008   30.8273    3.7020 H         1 RES1    0.0000
     15 C7         2.5767   31.7402    4.1627 C.2       1 RES1    0.0000
     16 O3         3.2051   31.0527    4.9208 O.2       1 RES1    0.0000
     17 N1         2.7199   33.0733    4.0967 N.am      1 RES1    0.0000
     18 H7         2.2654   33.6177    3.4412 H         1 RES1    0.0000
     19 C8         3.6023   33.7616    5.0378 C.3       1 RES1    0.0000
     20 H8         4.3748   33.2119    5.1880 H         1 RES1    0.0000
     21 C9         2.9064   33.9924    6.3467 C.3       1 RES1    0.0000
     22 H9         2.1248   34.5263    6.1877 H         1 RES1    0.0000
     23 H10        2.6447   33.1404    6.7040 H         1 RES1    0.0000
     24 C10        3.7641   34.6923    7.3761 C.3       1 RES1    0.0000
     25 N2         4.3898   35.8839    6.7780 N.3       1 RES1    0.0000
     26 O4         4.8364   36.7919    7.5683 O.2       1 RES1    0.0000
     27 C11        4.9187   35.9141    5.3842 C.3       1 RES1    0.0000
     28 C12        4.0030   35.1000    4.4590 C.3       1 RES1    0.0000
     29 H11        4.4766   34.9422    3.6391 H         1 RES1    0.0000
     30 H12        3.2107   35.6109    4.2777 H         1 RES1    0.0000
     31 C13        2.9181   35.1806    8.5423 C.3       1 RES1    0.0000
     32 H13        2.4842   34.4361    8.9656 H         1 RES1    0.0000
     33 H14        2.2554   35.7846    8.1999 H         1 RES1    0.0000
     34 H15        3.4666   35.6378    9.1831 H         1 RES1    0.0000
     35 C14        4.8325   33.7420    7.9384 C.3       1 RES1    0.0000
     36 H16        4.4097   32.9701    8.3222 H         1 RES1    0.0000
     37 H17        5.3367   34.2006    8.6151 H         1 RES1    0.0000
     38 H18        5.4225   33.4657    7.2329 H         1 RES1    0.0000
     39 C15        6.3581   35.3351    5.3977 C.3       1 RES1    0.0000
     40 H19        6.7205   35.3447    4.5089 H         1 RES1    0.0000
     41 H20        6.3286   34.4318    5.7213 H         1 RES1    0.0000
     42 H21        6.9131   35.8642    5.9756 H         1 RES1    0.0000
     43 C16        4.9409   37.3613    4.9277 C.3       1 RES1    0.0000
     44 H22        5.2744   37.4040    4.0281 H         1 RES1    0.0000
     45 H23        5.5157   37.8665    5.5065 H         1 RES1    0.0000
     46 H24        4.0539   37.7283    4.9573 H         1 RES1    0.0000
     47 C17        0.8265   32.0078   -3.7378 C.ar      1 RES1    0.0000
     48 C18        1.2632   32.8440   -4.6662 C.ar      1 RES1    0.0000
     49 H25        2.0772   33.3337   -4.5322 H         1 RES1    0.0000
     50 C19        0.5417   33.0263   -5.8255 C.ar      1 RES1    0.0000
     51 H26        0.8779   33.6177   -6.5022 H         1 RES1    0.0000
     52 C20       -0.6700   32.3906   -6.0843 C.ar      1 RES1    0.0000
     53 H27       -1.1705   32.5274   -6.8923 H         1 RES1    0.0000
     54 C21       -1.1014   31.5464   -5.0939 C.ar      1 RES1    0.0000
     55 H28       -1.9284   31.0705   -5.2018 H         1 RES1    0.0000
     56 C22       -0.3567   31.3765   -3.9589 C.ar      1 RES1    0.0000
     57 H29       -0.6775   30.7836   -3.2758 H         1 RES1    0.0000
     58 C23        5.2652   28.4115    5.6010 C.2       2 RES2    0.0000
     59 H30        4.4681   28.7713    5.2049 H         2 RES2    0.0000
     60 C24        6.0204   27.6891    4.8229 C.2       2 RES2    0.0000
     61 H31        6.8042   27.2731    5.1894 H         2 RES2    0.0000
     62 C25        5.6998   27.4857    3.3734 C.2       2 RES2    0.0000
     63 O5         4.6654   27.8541    2.8709 O.2       2 RES2    0.0000
     64 O6         6.6583   26.8357    2.7494 O.3       2 RES2    0.0000
     65 C26        6.4729   26.5982    1.3260 C.3       2 RES2    0.0000
     66 H32        5.5983   26.2355    1.1668 H         2 RES2    0.0000
     67 H33        6.5738   27.4175    0.8357 H         2 RES2    0.0000
     68 C27        7.5184   25.6220    0.9062 C.3       2 RES2    0.0000
     69 H34        7.5186   25.5683   -0.0523 H         2 RES2    0.0000
     70 H35        8.3729   25.9376    1.2090 H         2 RES2    0.0000
     71 C28        7.2927   24.2457    1.4603 C.3       2 RES2    0.0000
     72 H36        8.0825   23.7209    1.3117 H         2 RES2    0.0000
     73 H37        7.1288   24.3172    2.4034 H         2 RES2    0.0000
     74 C29        6.1214   23.5478    0.8161 C.2       2 RES2    0.0000
     75 O7         6.0725   23.3506   -0.4065 O.2       2 RES2    0.0000
     76 N3         5.1560   23.1510    1.6483 N.am      2 RES2    0.0000
     77 H38        5.1250   23.6159    2.4265 H         2 RES2    0.0000
     78 C30        3.9808   22.4075    1.2180 C.3       2 RES2    0.0000
     79 H39        4.2329   21.7853    0.5316 H         2 RES2    0.0000
     80 C31        3.4155   21.7052    2.4534 C.3       2 RES2    0.0000
     81 H40        3.2306   22.3720    3.1189 H         2 RES2    0.0000
     82 H41        4.0821   21.0989    2.7844 H         2 RES2    0.0000
     83 C32        2.1462   20.9223    2.2093 C.3       2 RES2    0.0000
     84 N4         1.2001   21.7637    1.3856 N.3       2 RES2    0.0000
     85 O8        -0.0273   21.3905    1.3924 O.2       2 RES2    0.0000
     86 C33        1.6379   22.5749    0.2415 C.3       2 RES2    0.0000
     87 C34        2.9221   23.3132    0.6414 C.3       2 RES2    0.0000
     88 H42        2.6976   23.9737    1.3013 H         2 RES2    0.0000
     89 H43        3.2807   23.7473   -0.1362 H         2 RES2    0.0000
     90 C35        2.4101   19.5969    1.5054 C.3       2 RES2    0.0000
     91 H44        3.0146   19.0716    2.0347 H         2 RES2    0.0000
     92 H45        2.7998   19.7614    0.6435 H         2 RES2    0.0000
     93 H46        1.5829   19.1215    1.3975 H         2 RES2    0.0000
     94 C36        1.4313   20.6753    3.5602 C.3       2 RES2    0.0000
     95 H47        1.9898   20.1395    4.1280 H         2 RES2    0.0000
     96 H48        0.6000   20.2200    3.4075 H         2 RES2    0.0000
     97 H49        1.2607   21.5196    3.9838 H         2 RES2    0.0000
     98 C37        1.8419   21.7148   -1.0075 C.3       2 RES2    0.0000
     99 H50        2.1323   22.2669   -1.7370 H         2 RES2    0.0000
    100 H51        1.0113   21.2917   -1.2371 H         2 RES2    0.0000
    101 H52        2.5049   21.0437   -0.8307 H         2 RES2    0.0000
    102 C38        0.5376   23.6024   -0.0297 C.3       2 RES2    0.0000
    103 H53        0.7889   24.1560   -0.7724 H         2 RES2    0.0000
    104 H54        0.4185   24.1483    0.7507 H         2 RES2    0.0000
    105 H55       -0.2842   23.1496   -0.2321 H         2 RES2    0.0000
    106 C39        5.4968   28.7358    7.0187 C.ar      2 RES2    0.0000
    107 C40        4.6626   29.6242    7.6456 C.ar      2 RES2    0.0000
    108 H56        3.9205   29.9940    7.1618 H         2 RES2    0.0000
    109 C41        4.8779   29.9892    8.9663 C.ar      2 RES2    0.0000
    110 H57        4.2798   30.6057    9.3946 H         2 RES2    0.0000
    111 C42        5.9443   29.4630    9.6587 C.ar      2 RES2    0.0000
    112 H58        6.1041   29.7230   10.5690 H         2 RES2    0.0000
    113 C43        6.7799   28.5851    9.0496 C.ar      2 RES2    0.0000
    114 H59        7.5186   28.2182    9.5406 H         2 RES2    0.0000
    115 C44        6.5728   28.2076    7.7303 C.ar      2 RES2    0.0000
    116 H60        7.1664   27.5821    7.3082 H         2 RES2    0.0000
@<TRIPOS>BOND
     1    1    2 2
     2    2    3 1
     3    3    4 2
     4    5    3 1
     5    6    5 1
     6    7    6 1
     7    8    6 1
     8    9    6 1
     9   10    9 1
    10   11    9 1
    11   12    9 1
    12   13   12 1
    13   14   12 1
    14   15   12 1
    15   16   15 2
    16   17   15 1
    17   18   17 1
    18   19   17 1
    19   20   19 1
    20   21   19 1
    21   22   21 1
    22   23   21 1
    23   24   21 1
    24   25   24 1
    25   26   25 1
    26   27   25 1
    27   28   19 1
    28   29   28 1
    29   30   28 1
    30   31   24 1
    31   32   31 1
    32   33   31 1
    33   34   31 1
    34   35   24 1
    35   36   35 1
    36   37   35 1
    37   38   35 1
    38   39   27 1
    39   40   39 1
    40   41   39 1
    41   42   39 1
    42   43   27 1
    43   44   43 1
    44   45   43 1
    45   46   43 1
    46   47    1 1
    47   48   47 ar
    48   49   48 1
    49   50   48 ar
    50   51   50 1
    51   52   50 ar
    52   53   52 1
    53   54   52 ar
    54   55   54 1
    55   56   47 ar
    56   57   56 1
    57   58   59 1
    58   60   58 2
    59   61   60 1
    60   62   60 1
    61   63   62 2
    62   64   62 1
    63   65   64 1
    64   66   65 1
    65   67   65 1
    66   68   65 1
    67   69   68 1
    68   70   68 1
    69   71   68 1
    70   72   71 1
    71   73   71 1
    72   74   71 1
    73   75   74 2
    74   76   74 1
    75   77   76 1
    76   78   76 1
    77   79   78 1
    78   80   78 1
    79   81   80 1
    80   82   80 1
    81   83   80 1
    82   84   83 1
    83   85   84 1
    84   86   84 1
    85   87   78 1
    86   88   87 1
    87   89   87 1
    88   90   83 1
    89   91   90 1
    90   92   90 1
    91   93   90 1
    92   94   83 1
    93   95   94 1
    94   96   94 1
    95   97   94 1
    96   98   86 1
    97   99   98 1
    98  100   98 1
    99  101   98 1
   100  102   86 1
   101  103  102 1
   102  104  102 1
   103  105  102 1
   104  106   58 1
   105  107  106 ar
   106  108  107 1
   107  109  107 ar
   108  110  109 1
   109  111  109 ar
   110  112  111 1
   111  113  111 ar
   112  114  113 1
   113  115  106 ar
   114  116  115 1
   115   27   28 1
   116   54   56 ar
   117   86   87 1
   118  113  115 ar
@<TRIPOS>SUBSTRUCTURE
     1 RES1 1
     2 RES2 58

@<TRIPOS>CRYSIN
  10.4265   47.9705    9.3980  90.0000 107.0030  90.0000   9 1

