# MOL2 file generated by ConQuest
# Please check atom types

@<TRIPOS>MOLECULE
GERPOJ04
   140   136     5
SMALL
NO_CHARGES
****
Generated from CSD

@<TRIPOS>ATOM
      1 O1        16.8158    5.0421    5.0695 O.2       1 RES1    0.0000
      2 O2        17.1703    4.0725   10.9818 O.2       1 RES1    0.0000
      3 N1        16.8508    5.0279    6.3016 N.pl3     1 RES1    0.0000
      4 O3        16.6689    6.0475    6.9436 O.2       1 RES1    0.0000
      5 C1        17.1574    3.8621    8.3464 C.ar      1 RES1    0.0000
      6 H1        17.0046    4.6769    8.7677 H         1 RES1    0.0000
      7 N2        17.1575    2.4121    4.9800 N.3       1 RES1    0.0000
      8 N3        17.4576    2.9773   10.5359 N.pl3     1 RES1    0.0000
      9 C2        17.2620    1.1413    4.2922 C.3       1 RES1    0.0000
     10 H2        16.7307    0.4801    4.7612 H         1 RES1    0.0000
     11 H3        18.1864    0.8470    4.3062 H         1 RES1    0.0000
     12 C3        17.4271    2.7694    9.1135 C.ar      1 RES1    0.0000
     13 N4        18.0271    0.4174    9.2360 N.3       1 RES1    0.0000
     14 O4        17.6789    1.9523    2.0505 O.3       1 RES1    0.0000
     15 O5        17.7666    2.0572   11.2750 O.2       1 RES1    0.0000
     16 C4        17.6792    1.4909    8.5066 C.ar      1 RES1    0.0000
     17 C5        17.5578    1.4484    7.1160 C.ar      1 RES1    0.0000
     18 H4        17.6771    0.6253    6.6989 H         1 RES1    0.0000
     19 C6        17.2722    2.5440    6.3067 C.ar      1 RES1    0.0000
     20 C7        17.1018    3.8061    6.9791 C.ar      1 RES1    0.0000
     21 C8        16.7940    1.2301    2.8714 C.3       1 RES1    0.0000
     22 H5        16.6926    0.3334    2.5149 H         1 RES1    0.0000
     23 H6        15.9241    1.6573    2.8500 H         1 RES1    0.0000
     24 C9        18.3135   -0.9282    8.7695 C.3       1 RES1    0.0000
     25 H7        19.1421   -1.2362    9.1694 H         1 RES1    0.0000
     26 H8        18.4338   -0.9140    7.8066 H         1 RES1    0.0000
     27 C10       17.2304   -1.8658    9.1106 C.3       1 RES1    0.0000
     28 H9        16.9766   -1.7482   10.0395 H         1 RES1    0.0000
     29 H10       16.4535   -1.6828    8.5590 H         1 RES1    0.0000
     30 O6        17.6609   -3.2027    8.8993 O.3       1 RES1    0.0000
     31 H11       17.0154    3.0865    4.5592 H         1 RES1    0.0000
     32 H12       18.0471    0.6125   10.0751 H         1 RES1    0.0000
     33 H13       18.0216    1.2920    1.5982 H         1 RES1    0.0000
     34 H14       17.2233   -3.7214    9.3115 H         1 RES1    0.0000
     35 C11        9.6608    7.0954    2.6276 C.3       2 RES2    0.0000
     36 H15        9.5496    8.0394    2.4328 H         2 RES2    0.0000
     37 H16       10.4711    6.7856    2.1930 H         2 RES2    0.0000
     38 O7         8.5551    6.3717    2.1593 O.3       2 RES2    0.0000
     39 C12        9.8272    7.7578    8.8815 C.3       2 RES2    0.0000
     40 H17        9.1537    7.9676    8.2172 H         2 RES2    0.0000
     41 H18       10.6786    8.1048    8.5701 H         2 RES2    0.0000
     42 C13        9.4674    8.3963   10.1845 C.3       2 RES2    0.0000
     43 H19        9.4872    9.3601   10.0839 H         2 RES2    0.0000
     44 H20        8.5645    8.1398   10.4280 H         2 RES2    0.0000
     45 O8        10.3537    8.0177   11.2209 O.3       2 RES2    0.0000
     46 O9        10.1566    2.9396    3.7048 O.2       2 RES2    0.0000
     47 N5         9.9486    5.4827    4.3932 N.3       2 RES2    0.0000
     48 N6         9.9166    6.3190    9.0529 N.3       2 RES2    0.0000
     49 N7        10.2571    2.6026    4.8906 N.pl3     2 RES2    0.0000
     50 C14        9.9710    5.8536    6.7282 C.ar      2 RES2    0.0000
     51 H21        9.8966    6.7665    6.5635 H         2 RES2    0.0000
     52 C15       10.0172    5.4363    8.0581 C.ar      2 RES2    0.0000
     53 C16       10.2668    3.1636    7.2141 C.ar      2 RES2    0.0000
     54 H22       10.3807    2.2555    7.3782 H         2 RES2    0.0000
     55 O10       10.4326    1.4327    5.2107 O.2       2 RES2    0.0000
     56 C17       10.1799    3.5976    5.9167 C.ar      2 RES2    0.0000
     57 O11       10.2597    4.1856   10.5727 O.2       2 RES2    0.0000
     58 C18       10.0294    5.0010    5.6337 C.ar      2 RES2    0.0000
     59 N8        10.3216    3.4569    9.5812 N.pl3     2 RES2    0.0000
     60 C19       10.1912    4.0296    8.2785 C.ar      2 RES2    0.0000
     61 C20        9.7519    6.8826    4.0920 C.3       2 RES2    0.0000
     62 H23       10.4919    7.3981    4.4482 H         2 RES2    0.0000
     63 H24        8.9365    7.1939    4.5148 H         2 RES2    0.0000
     64 O12       10.5041    2.2584    9.6897 O.2       2 RES2    0.0000
     65 H25        9.9356    4.9448    3.8089 H         2 RES2    0.0000
     66 H26        9.8798    5.9976    9.8242 H         2 RES2    0.0000
     67 H27       10.9683    8.5482   11.2692 H         2 RES2    0.0000
     68 H28        8.4668    6.5559    1.4383 H         2 RES2    0.0000
     69 O13        7.0769    6.1565   10.8886 O.3       3 RES3    0.0000
     70 O14        7.3727   -0.9915    5.4923 O.2       3 RES3    0.0000
     71 O15        7.1608    2.1930   10.5918 O.2       3 RES3    0.0000
     72 N9         6.6930    2.9138    4.3270 N.3       3 RES3    0.0000
     73 C21        6.7967    3.2105    7.9855 C.ar      3 RES3    0.0000
     74 C22        6.6822    3.5134    6.6310 C.ar      3 RES3    0.0000
     75 H29        6.5067    4.3945    6.3926 H         3 RES3    0.0000
     76 N10        6.6353    4.1518    8.9222 N.3       3 RES3    0.0000
     77 C23        6.8147    2.5739    5.6115 C.ar      3 RES3    0.0000
     78 C24        7.0979    1.8463    8.3204 C.ar      3 RES3    0.0000
     79 C25        7.0821    1.2163    6.0077 C.ar      3 RES3    0.0000
     80 O16        7.1951    0.3769    3.8624 O.2       3 RES3    0.0000
     81 O17        7.5904    0.2297    9.8786 O.2       3 RES3    0.0000
     82 N11        7.2929    1.3981    9.6695 N.pl3     3 RES3    0.0000
     83 C26        7.2203    0.9054    7.3373 C.ar      3 RES3    0.0000
     84 H30        7.4034    0.0255    7.5779 H         3 RES3    0.0000
     85 N12        7.2196    0.1445    5.0733 N.pl3     3 RES3    0.0000
     86 C27        6.3845    5.5492    8.6656 C.3       3 RES3    0.0000
     87 H31        5.6525    5.6387    8.0352 H         3 RES3    0.0000
     88 H32        7.1737    5.9561    8.2749 H         3 RES3    0.0000
     89 C28        6.3900    4.2310    3.8185 C.3       3 RES3    0.0000
     90 H33        7.0719    4.8571    4.1064 H         3 RES3    0.0000
     91 H34        5.5362    4.5285    4.1708 H         3 RES3    0.0000
     92 C29        6.0381    6.2487    9.9414 C.3       3 RES3    0.0000
     93 H35        5.8568    7.1828    9.7554 H         3 RES3    0.0000
     94 H36        5.2318    5.8572   10.3126 H         3 RES3    0.0000
     95 O18        7.5304    3.7576    1.7384 O.3       3 RES3    0.0000
     96 C30        6.3362    4.1964    2.3235 C.3       3 RES3    0.0000
     97 H37        5.6159    3.6081    2.0488 H         3 RES3    0.0000
     98 H38        6.1333    5.0868    1.9955 H         3 RES3    0.0000
     99 H39        6.7734    3.9000    9.6866 H         3 RES3    0.0000
    100 H40        6.8279    2.3321    3.8023 H         3 RES3    0.0000
    101 H41        8.0828    4.3227    1.8268 H         3 RES3    0.0000
    102 H42        6.7188    5.6307   11.5178 H         3 RES3    0.0000
    103 O19        6.2022    2.8616    1.8024 Du        5 SUP5    0.0000
    104 H43        5.5091    2.5267    2.0865 Du        5 SUP5    0.0000
    105 H44        5.5852    4.7311    2.0221 Du        5 SUP5    0.0000
    106 H45        7.1455    4.5939    1.9688 Du        5 SUP5    0.0000
    107 N13       13.4911    2.9620    4.4376 N.3       4 RES4    0.0000
    108 O20       13.7062    0.3919    3.9261 O.2       4 RES4    0.0000
    109 C31       13.7990    3.1861    8.0907 C.ar      4 RES4    0.0000
    110 C32       13.6544    3.5143    6.7438 C.ar      4 RES4    0.0000
    111 H46       13.5479    4.4121    6.5236 H         4 RES4    0.0000
    112 N14       13.7390    4.1253    9.0436 N.3       4 RES4    0.0000
    113 C33       13.8369    1.2073    6.0783 C.ar      4 RES4    0.0000
    114 C34       13.6586    2.5825    5.7088 C.ar      4 RES4    0.0000
    115 O21       14.0707   -0.9946    5.5103 O.2       4 RES4    0.0000
    116 N15       14.2602    1.3080    9.7084 N.pl3     4 RES4    0.0000
    117 C35       14.0041    1.7959    8.3890 C.ar      4 RES4    0.0000
    118 O22       14.1989    3.6549    1.7955 O.3       4 RES4    0.0000
    119 C36       14.0125    0.8590    7.3906 C.ar      4 RES4    0.0000
    120 H47       14.1408   -0.0351    7.6090 H         4 RES4    0.0000
    121 C37       13.6022    5.5468    8.8019 C.3       4 RES4    0.0000
    122 H48       12.8747    5.7025    8.1795 H         4 RES4    0.0000
    123 H49       14.4176    5.8891    8.4037 H         4 RES4    0.0000
    124 O23       14.2448    2.1032   10.6435 O.2       4 RES4    0.0000
    125 N16       13.8708    0.1437    5.1281 N.pl3     4 RES4    0.0000
    126 O24       14.5195    0.1393    9.8988 O.2       4 RES4    0.0000
    127 O25       14.4023    6.1724   10.9904 O.3       4 RES4    0.0000
    128 C38       13.4260    4.3320    3.9776 C.3       4 RES4    0.0000
    129 H50       14.2554    4.7885    4.1885 H         4 RES4    0.0000
    130 H51       12.7008    4.7949    4.4260 H         4 RES4    0.0000
    131 C39       13.2004    4.3505    2.4945 C.3       4 RES4    0.0000
    132 H52       12.3375    3.9511    2.2996 H         4 RES4    0.0000
    133 H53       13.1796    5.2702    2.1864 H         4 RES4    0.0000
    134 C40       13.3285    6.2659   10.0842 C.3       4 RES4    0.0000
    135 H54       13.1534    7.2003    9.8930 H         4 RES4    0.0000
    136 H55       12.5331    5.8923   10.4946 H         4 RES4    0.0000
    137 H56       13.5414    2.3831    3.8889 H         4 RES4    0.0000
    138 H57       13.8624    3.8251    9.8109 H         4 RES4    0.0000
    139 H58       14.2943    5.6307   11.5645 H         4 RES4    0.0000
    140 H59       14.9709    4.0627    1.9156 H         4 RES4    0.0000
@<TRIPOS>BOND
     1    1    3 2
     2    2    8 2
     3    3    4 2
     4    5    6 1
     5    7    9 1
     6    8   12 1
     7    9   10 1
     8   11    9 1
     9   12    5 ar
    10   13   16 1
    11   14   21 1
    12   15    8 2
    13   16   12 ar
    14   17   16 ar
    15   18   17 1
    16   19    7 1
    17   20    3 1
    18   21    9 1
    19   22   21 1
    20   23   21 1
    21   24   13 1
    22   25   24 1
    23   26   24 1
    24   27   24 1
    25   28   27 1
    26   29   27 1
    27   30   27 1
    28   31    7 1
    29   32   13 1
    30   33   14 1
    31   34   30 1
    32   35   36 1
    33   37   35 1
    34   38   35 1
    35   39   40 1
    36   41   39 1
    37   42   39 1
    38   43   42 1
    39   44   42 1
    40   45   42 1
    41   46   49 2
    42   47   58 1
    43   48   39 1
    44   49   55 2
    45   50   51 1
    46   52   48 1
    47   53   54 1
    48   56   49 1
    49   57   59 2
    50   58   50 ar
    51   59   60 1
    52   60   52 ar
    53   61   35 1
    54   62   61 1
    55   63   61 1
    56   64   59 2
    57   65   47 1
    58   66   48 1
    59   67   45 1
    60   68   38 1
    61   69   92 1
    62   70   85 2
    63   71   82 2
    64   72   77 1
    65   73   74 ar
    66   74   75 1
    67   76   73 1
    68   77   74 ar
    69   78   73 ar
    70   79   77 ar
    71   80   85 2
    72   81   82 2
    73   82   78 1
    74   83   78 ar
    75   84   83 1
    76   85   79 1
    77   86   76 1
    78   87   86 1
    79   88   86 1
    80   89   72 1
    81   90   89 1
    82   91   89 1
    83   92   86 1
    84   93   92 1
    85   94   92 1
    86   95   96 1
    87   96   89 1
    88   97   96 1
    89   98   96 1
    90   99   76 1
    91  100   72 1
    92  101   95 1
    93  102   69 1
    94  107  114 1
    95  108  125 2
    96  109  110 ar
    97  110  111 1
    98  112  109 1
    99  113  114 ar
   100  114  110 ar
   101  115  125 2
   102  116  117 1
   103  117  109 ar
   104  118  131 1
   105  119  113 ar
   106  120  119 1
   107  121  112 1
   108  122  121 1
   109  123  121 1
   110  124  116 2
   111  125  113 1
   112  126  116 2
   113  127  134 1
   114  128  107 1
   115  129  128 1
   116  130  128 1
   117  131  128 1
   118  132  131 1
   119  133  131 1
   120  134  121 1
   121  135  134 1
   122  136  134 1
   123  137  107 1
   124  138  112 1
   125  139  127 1
   126  140  118 1
   127    5   20 ar
   128   17   19 ar
   129   19   20 ar
   130   47   61 1
   131   50   52 ar
   132   53   56 ar
   133   53   60 ar
   134   56   58 ar
   135   79   83 ar
   136  117  119 ar
@<TRIPOS>SUBSTRUCTURE
     1 RES1 1
     2 RES2 35
     3 RES3 69
     4 RES4 107
     5 SUP5 103

@<TRIPOS>CRYSIN
  13.9814   15.9511   22.2275  90.0000  93.0190  90.0000 231 1

