# MOL2 file generated by ConQuest
# Please check atom types

@<TRIPOS>MOLECULE
GERPOJ03
    41    34     2
SMALL
NO_CHARGES
****
Generated from CSD

@<TRIPOS>ATOM
      1 O1         8.3740   -2.1662   -2.3053 O.3       1 RES1    0.0000
      2 O2         4.3308    2.5693    4.2823 O.2       1 RES1    0.0000
      3 N1         7.5794   -0.6040    0.0025 N.3       1 RES1    0.0000
      4 O3         6.1622   -2.3873    1.3434 O.2       1 RES1    0.0000
      5 O4         5.1783    4.2639    3.2570 O.2       1 RES1    0.0000
      6 O5         8.7154    4.6326   -1.8203 O.3       1 RES1    0.0000
      7 N2         5.0084    3.0438    3.3715 N.pl3     1 RES1    0.0000
      8 O6         4.6667   -1.7499    2.7400 O.2       1 RES1    0.0000
      9 N3         5.5683   -1.4939    1.9571 N.pl3     1 RES1    0.0000
     10 C1         5.6351    2.1601    2.4331 C.ar      1 RES1    0.0000
     11 C2         6.9176    0.2677    0.7778 C.ar      1 RES1    0.0000
     12 C3         5.3382    0.8205    2.5450 C.ar      1 RES1    0.0000
     13 H1         4.7180    0.5461    3.1807 H         1 RES1    0.0000
     14 C4         5.9360   -0.1228    1.7404 C.ar      1 RES1    0.0000
     15 C5         7.1623    1.6363    0.6622 C.ar      1 RES1    0.0000
     16 H2         7.7758    1.9127    0.0196 H         1 RES1    0.0000
     17 C6         6.5558    2.6177    1.4384 C.ar      1 RES1    0.0000
     18 N4         6.8568    3.9200    1.2551 N.3       1 RES1    0.0000
     19 C7         8.6461   -0.2139   -0.8939 C.3       1 RES1    0.0000
     20 H3         9.3138    0.2915   -0.4045 H         1 RES1    0.0000
     21 H4         8.2909    0.3549   -1.5946 H         1 RES1    0.0000
     22 C8         9.2848   -1.4310   -1.5082 C.3       1 RES1    0.0000
     23 H5        10.0357   -1.1537   -2.0555 H         1 RES1    0.0000
     24 H6         9.6251   -2.0026   -0.8028 H         1 RES1    0.0000
     25 H7         9.3093    4.6279   -1.4831 H         1 RES1    0.0000
     26 C9         7.9981    4.3790    0.4719 C.3       1 RES1    0.0000
     27 H8         8.7291    3.7430    0.5221 H         1 RES1    0.0000
     28 H9         8.3090    5.2412    0.7893 H         1 RES1    0.0000
     29 C10        7.4741    4.4831   -0.9352 C.3       1 RES1    0.0000
     30 H10        6.8925    5.2535   -1.0271 H         1 RES1    0.0000
     31 H11        6.9767    3.6853   -1.1754 H         1 RES1    0.0000
     32 H12        8.2256   -1.7130   -2.9539 H         1 RES1    0.0000
     33 H13        7.3344   -1.4196    0.1103 H         1 RES1    0.0000
     34 H14        6.4879    4.4197    1.7527 H         1 RES1    0.0000
     35 H15        8.6877    5.5648   -2.0714 Du        2 SUP2    0.0000
     36 C11        7.1311    4.3601   -0.2537 Du        2 SUP2    0.0000
     37 H16        6.7750    3.7052   -0.8751 Du        2 SUP2    0.0000
     38 H17        6.7262    5.2222   -0.4400 Du        2 SUP2    0.0000
     39 C12        8.6480    4.4405   -0.3628 Du        2 SUP2    0.0000
     40 H18        9.0137    5.1938    0.1262 Du        2 SUP2    0.0000
     41 H19        9.0813    3.6209   -0.0784 Du        2 SUP2    0.0000
@<TRIPOS>BOND
     1    1   22 1
     2    2    7 2
     3    3   11 1
     4    4    9 2
     5    5    7 2
     6    6   25 1
     7    7   10 1
     8    8    9 2
     9    9   14 1
    10   10   12 ar
    11   11   14 ar
    12   12   13 1
    13   14   12 ar
    14   15   11 ar
    15   16   15 1
    16   17   10 ar
    17   18   17 1
    18   19    3 1
    19   20   19 1
    20   21   19 1
    21   22   19 1
    22   23   22 1
    23   24   22 1
    24   26   18 1
    25   27   26 1
    26   28   26 1
    27   29    6 1
    28   30   29 1
    29   31   29 1
    30   32    1 1
    31   33    3 1
    32   34   18 1
    33   15   17 ar
    34   26   29 1
@<TRIPOS>SUBSTRUCTURE
     1 RES1 1
     2 SUP2 35

@<TRIPOS>CRYSIN
  10.4530    9.4640   12.5570  90.0000 102.5510  90.0000 231 1

