# MOL2 file generated by ConQuest
# Please check atom types

@<TRIPOS>MOLECULE
GERPOJ01
    40    34     2
SMALL
NO_CHARGES
****
Generated from CSD

@<TRIPOS>ATOM
      1 O1         2.9347    2.3484    4.7952 O.2       1 RES1    0.0000
      2 O2         4.4305    2.9856    3.3964 O.2       1 RES1    0.0000
      3 O3         4.7664    7.3055    1.8491 O.2       1 RES1    0.0000
      4 O4         3.9178    9.0021    2.8777 O.2       1 RES1    0.0000
      5 O5         0.7217    2.5665    8.4490 O.3       1 RES1    0.0000
      6 H1         0.8678    3.0778    9.1477 H         1 RES1    0.0000
      7 O6         0.3386    9.3647    7.9434 O.3       1 RES1    0.0000
      8 H2         0.4210   10.1806    8.1899 H         1 RES1    0.0000
      9 N1         3.5276    3.2414    4.1791 N.pl3     1 RES1    0.0000
     10 N2         4.0895    7.7810    2.7617 N.pl3     1 RES1    0.0000
     11 N3         1.5154    4.1320    6.1348 N.3       1 RES1    0.0000
     12 H3         1.7794    3.3241    6.0338 H         1 RES1    0.0000
     13 N4         2.2376    8.6556    4.8807 N.3       1 RES1    0.0000
     14 H4         2.6474    9.1673    4.3884 H         1 RES1    0.0000
     15 C1         3.1598    4.6138    4.3951 C.ar      1 RES1    0.0000
     16 C2         2.1776    5.0028    5.3608 C.ar      1 RES1    0.0000
     17 C3         1.9305    6.3720    5.4764 C.ar      1 RES1    0.0000
     18 H5         1.2923    6.6576    6.1529 H         1 RES1    0.0000
     19 C4         2.5387    7.3559    4.7006 C.ar      1 RES1    0.0000
     20 C5         3.4596    6.8955    3.7017 C.ar      1 RES1    0.0000
     21 C6         3.7593    5.5557    3.5896 C.ar      1 RES1    0.0000
     22 H6         4.3700    5.2844    2.9395 H         1 RES1    0.0000
     23 C7         0.4459    4.5208    7.0365 C.3       1 RES1    0.0000
     24 H7        -0.2436    5.0477    6.5630 H         1 RES1    0.0000
     25 H8         0.7925    5.0950    7.7430 H         1 RES1    0.0000
     26 C8        -0.1956    3.3043    7.6473 C.3       1 RES1    0.0000
     27 H9        -0.9471    3.5703    8.1936 H         1 RES1    0.0000
     28 H10       -0.4998    2.6896    6.9436 H         1 RES1    0.0000
     29 C9         1.0933    9.1180    5.6630 C.3       1 RES1    0.0000
     30 H11        0.2532    8.5517    5.5991 H         1 RES1    0.0000
     31 H12        0.7789   10.0006    5.3535 H         1 RES1    0.0000
     32 C10        1.6155    9.2231    7.0824 C.3       1 RES1    0.0000
     33 H13        2.2287    9.9154    7.1217 H         1 RES1    0.0000
     34 H14        1.9943    8.3528    7.2813 H         1 RES1    0.0000
     35 C11        1.9480    9.1057    6.4292 Du        2 SUP2    0.0000
     36 H15        2.3716    8.6464    7.2322 Du        2 SUP2    0.0000
     37 H16        2.4525   10.0859    6.6796 Du        2 SUP2    0.0000
     38 C12        0.4461    9.1796    6.5028 Du        2 SUP2    0.0000
     39 H17        0.0539    9.9249    5.9306 Du        2 SUP2    0.0000
     40 H18        0.1232    8.3149    6.0903 Du        2 SUP2    0.0000
@<TRIPOS>BOND
     1    1    9 2
     2    2    9 2
     3    3   10 2
     4    4   10 2
     5    5    6 1
     6    7    8 1
     7    9   15 1
     8   10   20 1
     9   11   12 1
    10   13   14 1
    11   15   16 ar
    12   16   11 1
    13   17   16 ar
    14   18   17 1
    15   19   13 1
    16   20   19 ar
    17   21   15 ar
    18   22   21 1
    19   23   11 1
    20   24   23 1
    21   25   23 1
    22   26    5 1
    23   27   26 1
    24   28   26 1
    25   29   13 1
    26   30   29 1
    27   31   29 1
    28   32    7 1
    29   33   32 1
    30   34   32 1
    31   17   19 ar
    32   20   21 ar
    33   23   26 1
    34   29   32 1
@<TRIPOS>SUBSTRUCTURE
     1 RES1 1
     2 SUP2 35

@<TRIPOS>CRYSIN
  10.4691    9.4703   12.5781  90.0000 102.5250  90.0000 231 1

