# MOL2 file generated by ConQuest
# Please check atom types

@<TRIPOS>MOLECULE
GESBIQ
    57    60     1
SMALL
NO_CHARGES
****
Generated from CSD

@<TRIPOS>ATOM
      1 O1        19.8942    3.3186    4.3558 O.3       1 RES1    0.0000
      2 O2        19.8078    3.7145    2.1335 O.3       1 RES1    0.0000
      3 O3        18.6015    1.2262    1.7003 O.3       1 RES1    0.0000
      4 O4        24.5096    6.7933    7.4671 O.2       1 RES1    0.0000
      5 O5        25.1564    8.4234    8.6958 O.2       1 RES1    0.0000
      6 O6        22.4643   12.1312    9.6621 O.2       1 RES1    0.0000
      7 O7        20.3790   12.1531    9.1210 O.2       1 RES1    0.0000
      8 N1        22.0594    6.7010    6.5336 N.3       1 RES1    0.0000
      9 N2        21.0333    6.2718    5.7141 N.2       1 RES1    0.0000
     10 N3        24.2852    7.8534    8.0414 N.pl3     1 RES1    0.0000
     11 N4        21.4778   11.6191    9.1574 N.pl3     1 RES1    0.0000
     12 C1        22.9793    8.4705    7.9558 C.ar      1 RES1    0.0000
     13 C2        22.8264    9.6808    8.5906 C.ar      1 RES1    0.0000
     14 C3        21.6256   10.3105    8.5240 C.ar      1 RES1    0.0000
     15 C4        20.5564    9.7512    7.8307 C.ar      1 RES1    0.0000
     16 C5        20.7084    8.5615    7.1987 C.ar      1 RES1    0.0000
     17 C6        21.9392    7.8773    7.2055 C.ar      1 RES1    0.0000
     18 C7        21.2210    5.1672    5.1340 C.2       1 RES1    0.0000
     19 C8        20.2394    4.7009    4.1281 C.3       1 RES1    0.0000
     20 C9        20.7204    4.6896    2.6832 C.3       1 RES1    0.0000
     21 C10       22.1398    4.2167    2.4725 C.3       1 RES1    0.0000
     22 C11       22.3919    2.8437    3.0951 C.3       1 RES1    0.0000
     23 C12       21.1986    1.9203    2.8749 C.3       1 RES1    0.0000
     24 C13       19.8907    2.6643    3.0692 C.3       1 RES1    0.0000
     25 C14       18.6460    1.8453    2.9686 C.3       1 RES1    0.0000
     26 C15       17.3492    0.6403    1.3769 C.3       1 RES1    0.0000
     27 C16       16.2309    1.6573    1.2600 C.ar      1 RES1    0.0000
     28 C17       16.4529    2.9493    0.8156 C.ar      1 RES1    0.0000
     29 C18       15.4316    3.8327    0.7041 C.ar      1 RES1    0.0000
     30 C19       14.1526    3.4607    1.0031 C.ar      1 RES1    0.0000
     31 C20       13.8863    2.2020    1.4232 C.ar      1 RES1    0.0000
     32 C21       14.9315    1.2913    1.5740 C.ar      1 RES1    0.0000
     33 C22       23.6915    2.1967    2.5337 C.3       1 RES1    0.0000
     34 H1        22.8811    6.3502    6.6060 H         1 RES1    0.0000
     35 H2        23.6007   10.0767    9.1560 H         1 RES1    0.0000
     36 H3        19.7546   10.2162    7.8307 H         1 RES1    0.0000
     37 H4        20.0252    8.1703    6.6985 H         1 RES1    0.0000
     38 H5        21.9119    4.6564    5.2998 H         1 RES1    0.0000
     39 H6        19.4011    5.2409    4.2817 H         1 RES1    0.0000
     40 H7        20.5325    5.6063    2.2034 H         1 RES1    0.0000
     41 H8        22.3335    4.1449    1.5496 H         1 RES1    0.0000
     42 H9        22.8354    4.9487    2.8001 H         1 RES1    0.0000
     43 H10       22.5121    3.0356    4.0846 H         1 RES1    0.0000
     44 H11       21.1971    1.1226    3.5015 H         1 RES1    0.0000
     45 H12       21.1873    1.6075    1.9845 H         1 RES1    0.0000
     46 H13       18.6304    1.2289    3.6659 H         1 RES1    0.0000
     47 H14       17.8422    2.5042    3.1494 H         1 RES1    0.0000
     48 H15       17.1039    0.0332    2.1205 H         1 RES1    0.0000
     49 H16       17.5282    0.1461    0.4622 H         1 RES1    0.0000
     50 H17       17.4535    3.2482    0.6389 H         1 RES1    0.0000
     51 H18       15.5150    4.8025    0.4214 H         1 RES1    0.0000
     52 H19       13.4648    4.1117    0.8292 H         1 RES1    0.0000
     53 H20       13.0282    1.8798    1.6175 H         1 RES1    0.0000
     54 H21       14.7761    0.4716    1.8486 H         1 RES1    0.0000
     55 H22       23.6781    1.4348    3.0991 H         1 RES1    0.0000
     56 H23       24.4310    2.7899    2.9088 H         1 RES1    0.0000
     57 H24       23.6361    2.2917    1.5768 H         1 RES1    0.0000
@<TRIPOS>BOND
     1    1   19 1
     2    2   20 1
     3    3   25 1
     4    4   10 2
     5    5   10 2
     6    6   11 2
     7    7   11 2
     8    8    9 1
     9    9   18 2
    10   10   12 1
    11   11   14 1
    12   12   13 ar
    13   13   14 ar
    14   14   15 ar
    15   15   16 ar
    16   16   17 ar
    17   17    8 1
    18   18   19 1
    19   19   20 1
    20   20   21 1
    21   21   22 1
    22   22   23 1
    23   23   24 1
    24   24    1 1
    25   25   24 1
    26   26    3 1
    27   27   26 1
    28   28   27 ar
    29   29   28 ar
    30   30   29 ar
    31   31   30 ar
    32   32   27 ar
    33   33   22 1
    34   34    8 1
    35   35   13 1
    36   36   15 1
    37   37   16 1
    38   38   18 1
    39   39   19 1
    40   40   20 1
    41   41   21 1
    42   42   21 1
    43   43   22 1
    44   44   23 1
    45   45   23 1
    46   46   25 1
    47   47   25 1
    48   48   26 1
    49   49   26 1
    50   50   28 1
    51   51   29 1
    52   52   30 1
    53   53   31 1
    54   54   32 1
    55   55   33 1
    56   56   33 1
    57   57   33 1
    58    2   24 1
    59   12   17 ar
    60   31   32 ar
@<TRIPOS>SUBSTRUCTURE
     1 RES1 1

@<TRIPOS>CRYSIN
  24.7570    6.6425   18.2810  90.0000 131.9660  90.0000   5 1

