# MOL2 file generated by ConQuest
# Please check atom types

@<TRIPOS>MOLECULE
GESWUX
    45    47     1
SMALL
NO_CHARGES
****
Generated from CSD

@<TRIPOS>ATOM
      1 O1         6.3853   -2.1390   10.0648 O.3       1 RES1    0.0000
      2 C1        -0.5594    6.2418    1.1249 C.ar      1 RES1    0.0000
      3 H1        -0.4300    7.0613    0.6616 H         1 RES1    0.0000
      4 C2         0.3283    4.3631    2.3854 C.ar      1 RES1    0.0000
      5 C3        -2.0446    4.4819    1.9042 C.ar      1 RES1    0.0000
      6 H2        -2.9192    4.1167    1.9629 H         1 RES1    0.0000
      7 C4        -0.9674    3.8238    2.4578 C.ar      1 RES1    0.0000
      8 H3        -1.1032    2.9917    2.8958 H         1 RES1    0.0000
      9 C5         4.5476   -1.3500    8.8639 C.ar      1 RES1    0.0000
     10 H4         3.9909   -1.8323    9.4636 H         1 RES1    0.0000
     11 C6         1.8841    1.3927    6.5835 C.3       1 RES1    0.0000
     12 H5         2.2189    1.3731    7.5151 H         1 RES1    0.0000
     13 H6         1.4133    0.5385    6.4123 H         1 RES1    0.0000
     14 C7        -1.8228    5.6873    1.2600 C.ar      1 RES1    0.0000
     15 C8         5.9317   -1.3962    9.0201 C.ar      1 RES1    0.0000
     16 C9         0.4147    2.6538    4.9977 C.3       1 RES1    0.0000
     17 H7        -0.0390    1.8137    4.7373 H         1 RES1    0.0000
     18 H8        -0.2430    3.3906    4.9292 H         1 RES1    0.0000
     19 C10        3.9768   -0.6117    7.8488 C.ar      1 RES1    0.0000
     20 H9         3.0306   -0.5965    7.7588 H         1 RES1    0.0000
     21 C11        2.9002    2.3084    4.3812 C.2       1 RES1    0.0000
     22 C12        1.5640    2.9177    4.0531 C.2       1 RES1    0.0000
     23 C13        6.7447   -0.7181    8.1170 C.ar      1 RES1    0.0000
     24 H10        7.6905   -0.7564    8.1988 H         1 RES1    0.0000
     25 C14        6.1553    0.0165    7.0946 C.ar      1 RES1    0.0000
     26 H11        6.7185    0.4649    6.4752 H         1 RES1    0.0000
     27 C15        3.0585    1.5079    5.6378 C.2       1 RES1    0.0000
     28 C16        4.7714    0.1238    6.9386 C.ar      1 RES1    0.0000
     29 C17        0.8990    2.5413    6.4338 C.3       1 RES1    0.0000
     30 H12        0.1250    2.3922    7.0321 H         1 RES1    0.0000
     31 H13        1.3357    3.3880    6.7024 H         1 RES1    0.0000
     32 C18        0.5048    5.5632    1.6863 C.ar      1 RES1    0.0000
     33 H14        1.3809    5.9207    1.5956 H         1 RES1    0.0000
     34 O2        -2.7771    7.3644   -0.0300 O.2       1 RES1    0.0000
     35 O3         3.8492    2.4558    3.6075 O.2       1 RES1    0.0000
     36 N1        -2.9748    6.4069    0.7140 N.pl3     1 RES1    0.0000
     37 C19        1.4980    3.6918    2.9554 C.2       1 RES1    0.0000
     38 H15        2.3158    3.8196    2.4900 H         1 RES1    0.0000
     39 O4        -4.1009    6.0311    1.0306 O.2       1 RES1    0.0000
     40 C20        4.2730    0.9577    5.8548 C.2       1 RES1    0.0000
     41 H16        4.9150    1.1490    5.1817 H         1 RES1    0.0000
     42 C21        7.8040   -2.2466   10.2418 C.3       1 RES1    0.0000
     43 H17        8.2039   -2.6406    9.4393 H         1 RES1    0.0000
     44 H18        7.9942   -2.8173   11.0151 H         1 RES1    0.0000
     45 H19        8.1832   -1.3552   10.3921 H         1 RES1    0.0000
@<TRIPOS>BOND
     1    1   15 1
     2    2    3 1
     3    4    7 ar
     4    5    6 1
     5    7    5 ar
     6    8    7 1
     7    9   10 1
     8   11   12 1
     9   13   11 1
    10   14    2 ar
    11   15    9 ar
    12   16   17 1
    13   18   16 1
    14   19    9 ar
    15   20   19 1
    16   21   22 1
    17   22   16 1
    18   23   15 ar
    19   24   23 1
    20   25   23 ar
    21   26   25 1
    22   27   11 1
    23   28   19 ar
    24   29   11 1
    25   30   29 1
    26   31   29 1
    27   32    2 ar
    28   33   32 1
    29   34   36 2
    30   35   21 2
    31   36   14 1
    32   37    4 1
    33   38   37 1
    34   39   36 2
    35   40   27 2
    36   41   40 1
    37   42    1 1
    38   43   42 1
    39   44   42 1
    40   45   42 1
    41    4   32 ar
    42    5   14 ar
    43   16   29 1
    44   21   27 1
    45   22   37 2
    46   25   28 ar
    47   28   40 1
@<TRIPOS>SUBSTRUCTURE
     1 RES1 1

@<TRIPOS>CRYSIN
   7.8646    9.6830   11.3746  95.5870 102.8010  91.9920   2 1

