# MOL2 file generated by ConQuest
# Please check atom types

@<TRIPOS>MOLECULE
GETBOW
    97   101     1
SMALL
NO_CHARGES
****
Generated from CSD

@<TRIPOS>ATOM
      1 O1        -2.0856    4.6892   21.6067 O.2       1 RES1    0.0000
      2 C1        -1.7488    4.9973   20.5055 C.2       1 RES1    0.0000
      3 C2        -1.8073    4.1611   19.3003 C.3       1 RES1    0.0000
      4 C3        -3.1683    4.0748   18.6808 C.2       1 RES1    0.0000
      5 C4        -3.5177    3.0447   17.8579 C.2       1 RES1    0.0000
      6 C5        -2.6097    1.8923   17.6570 C.3       1 RES1    0.0000
      7 O2        -2.4369    1.5468   16.2873 O.3       1 RES1    0.0000
      8 C6        -1.2967    1.8793   18.3661 C.3       1 RES1    0.0000
      9 O3        -0.2659    2.4334   17.5699 O.3       1 RES1    0.0000
     10 C7        -1.2468    2.7252   19.6270 C.3       1 RES1    0.0000
     11 O4        -1.8937    2.1107   20.7112 O.3       1 RES1    0.0000
     12 C8         0.2899    2.9029   19.7940 C.2       1 RES1    0.0000
     13 C9         0.9013    3.1571   20.8879 C.2       1 RES1    0.0000
     14 C10        2.3563    3.4440   21.1541 C.2       1 RES1    0.0000
     15 C11        2.8410    3.7097   22.3133 C.2       1 RES1    0.0000
     16 C12        4.3057    3.9933   22.5263 C.3       1 RES1    0.0000
     17 C13        4.4813    5.2711   23.3540 C.3       1 RES1    0.0000
     18 C14        3.9064    6.5424   22.7030 C.2       1 RES1    0.0000
     19 C15        2.9571    7.2025   23.4459 C.2       1 RES1    0.0000
     20 C16        2.2901    8.4641   22.9837 C.3       1 RES1    0.0000
     21 C17        0.7448    8.2440   22.7368 C.3       1 RES1    0.0000
     22 O5         0.2409    9.5268   22.2722 O.3       1 RES1    0.0000
     23 C18        0.4444    7.1993   21.6793 C.3       1 RES1    0.0000
     24 C19       -0.9886    7.1031   21.3574 C.3       1 RES1    0.0000
     25 O6        -1.2180    6.2115   20.2877 O.3       1 RES1    0.0000
     26 C20       -1.4877    8.4641   20.9798 C.3       1 RES1    0.0000
     27 C21       -1.1652    9.5121   22.0689 C.3       1 RES1    0.0000
     28 O7        -1.8793    9.0427   23.1773 O.3       1 RES1    0.0000
     29 C22       -1.5443   10.9546   21.6236 C.3       1 RES1    0.0000
     30 C23       -2.1490   11.7940   22.7852 C.2       1 RES1    0.0000
     31 N1        -2.2114   13.0848   22.5820 N.2       1 RES1    0.0000
     32 O8        -1.7977   13.4956   21.3235 O.3       1 RES1    0.0000
     33 C24       -2.5684   11.1942   24.0147 C.3       1 RES1    0.0000
     34 C25       -1.8092    9.8902   24.3196 C.3       1 RES1    0.0000
     35 C26       -2.2594    9.1470   25.5030 C.2       1 RES1    0.0000
     36 C27       -1.6470    9.1226   26.6501 C.2       1 RES1    0.0000
     37 C28       -2.0386    8.5179   27.9473 C.3       1 RES1    0.0000
     38 C29       -2.9735    9.5333   28.7871 C.3       1 RES1    0.0000
     39 C30       -0.7918    8.1576   28.7943 C.3       1 RES1    0.0000
     40 C31       -4.7856    3.0544   17.0448 C.3       1 RES1    0.0000
     41 C32        0.8110    2.7741   18.4024 C.3       1 RES1    0.0000
     42 C33        4.8931    2.8148   23.3152 C.3       1 RES1    0.0000
     43 C34        4.2682    6.8602   21.3767 C.3       1 RES1    0.0000
     44 C35       -2.0281   14.8940   21.2291 C.3       1 RES1    0.0000
     45 C36       -2.5780   12.2405   25.2199 C.3       1 RES1    0.0000
     46 C37       -3.5935    8.4250   25.3336 C.3       1 RES1    0.0000
     47 H1        -1.2573    4.5914   18.6420 H         1 RES1    0.0000
     48 H2        -3.8114    4.7626   18.8647 H         1 RES1    0.0000
     49 H3        -3.1078    1.2110   18.1120 H         1 RES1    0.0000
     50 H4        -1.1786    0.9470   18.5670 H         1 RES1    0.0000
     51 H5         0.3407    3.1702   21.6672 H         1 RES1    0.0000
     52 H6         2.9600    3.4260   20.4087 H         1 RES1    0.0000
     53 H7         2.2517    3.7276   23.0708 H         1 RES1    0.0000
     54 H8         4.7433    4.1057   21.6793 H         1 RES1    0.0000
     55 H9         4.0436    5.1407   24.1986 H         1 RES1    0.0000
     56 H10        5.4200    5.4064   23.4968 H         1 RES1    0.0000
     57 H11        2.7114    6.8407   24.3026 H         1 RES1    0.0000
     58 H12        2.4072    9.1437   23.6516 H         1 RES1    0.0000
     59 H13        2.6980    8.7493   22.1633 H         1 RES1    0.0000
     60 H14        0.3378    7.9311   23.5476 H         1 RES1    0.0000
     61 H15        0.7448    6.3452   21.9987 H         1 RES1    0.0000
     62 H16        0.9224    7.4291   20.8806 H         1 RES1    0.0000
     63 H17       -1.4503    6.7722   22.1318 H         1 RES1    0.0000
     64 H18       -1.0759    8.7314   20.1546 H         1 RES1    0.0000
     65 H19       -2.4398    8.4233   20.8637 H         1 RES1    0.0000
     66 H20       -2.1883   10.8991   20.9121 H         1 RES1    0.0000
     67 H21       -0.7544   11.3963   21.3041 H         1 RES1    0.0000
     68 H22       -3.4831   10.9268   23.9009 H         1 RES1    0.0000
     69 H23       -0.9099   10.1575   24.5229 H         1 RES1    0.0000
     70 H24       -0.7986    9.5708   26.6622 H         1 RES1    0.0000
     71 H25       -2.4955    7.6752   27.7198 H         1 RES1    0.0000
     72 H26       -3.7144    9.6816   28.2692 H         1 RES1    0.0000
     73 H27       -2.4283   10.2684   28.9468 H         1 RES1    0.0000
     74 H28       -3.1683    9.0492   29.5954 H         1 RES1    0.0000
     75 H29       -0.2313    7.6263   28.3805 H         1 RES1    0.0000
     76 H30       -1.1182    7.8366   29.6559 H         1 RES1    0.0000
     77 H31       -0.3782    9.0557   29.0049 H         1 RES1    0.0000
     78 H32       -4.6589    3.3283   16.1154 H         1 RES1    0.0000
     79 H33       -5.4478    3.7276   17.4102 H         1 RES1    0.0000
     80 H34       -5.2539    2.2150   17.0448 H         1 RES1    0.0000
     81 H35        1.4800    2.0863   18.3661 H         1 RES1    0.0000
     82 H36        1.1940    3.6070   18.1193 H         1 RES1    0.0000
     83 H37        5.8653    2.8409   23.2644 H         1 RES1    0.0000
     84 H38        4.5802    2.0569   22.8264 H         1 RES1    0.0000
     85 H39        4.6349    2.7496   24.2325 H         1 RES1    0.0000
     86 H40        4.0350    7.7616   21.1638 H         1 RES1    0.0000
     87 H41        3.8834    6.2604   20.7354 H         1 RES1    0.0000
     88 H42        5.2578    6.7869   21.2775 H         1 RES1    0.0000
     89 H43       -2.4504   15.1353   20.4305 H         1 RES1    0.0000
     90 H44       -1.1863   15.3846   21.3235 H         1 RES1    0.0000
     91 H45       -2.5934   15.2037   21.9890 H         1 RES1    0.0000
     92 H46       -2.7777   11.8054   26.0427 H         1 RES1    0.0000
     93 H47       -3.0368   13.0017   25.0650 H         1 RES1    0.0000
     94 H48       -1.5702   12.5290   25.3554 H         1 RES1    0.0000
     95 H49       -3.8920    7.8431   26.0403 H         1 RES1    0.0000
     96 H50       -3.5157    7.9278   24.5205 H         1 RES1    0.0000
     97 H51       -4.2845    9.1095   25.2053 H         1 RES1    0.0000
@<TRIPOS>BOND
     1    1    2 2
     2    2    3 1
     3    3    4 1
     4    4    5 2
     5    5    6 1
     6    6    7 1
     7    8    6 1
     8    9    8 1
     9   10    3 1
    10   11   10 1
    11   12   10 1
    12   13   12 2
    13   14   13 1
    14   15   14 2
    15   16   15 1
    16   17   16 1
    17   18   17 1
    18   19   18 2
    19   20   19 1
    20   21   20 1
    21   22   21 1
    22   23   21 1
    23   24   23 1
    24   25    2 1
    25   26   24 1
    26   27   22 1
    27   28   27 1
    28   29   27 1
    29   30   29 1
    30   31   30 2
    31   32   31 1
    32   33   30 1
    33   34   28 1
    34   35   34 1
    35   36   35 2
    36   37   36 1
    37   38   37 1
    38   39   37 1
    39   40    5 1
    40   41    9 1
    41   42   16 1
    42   43   18 1
    43   44   32 1
    44   45   33 1
    45   46   35 1
    46   47    3 1
    47   48    4 1
    48   49    6 1
    49   50    8 1
    50   51   13 1
    51   52   14 1
    52   53   15 1
    53   54   16 1
    54   55   17 1
    55   56   17 1
    56   57   19 1
    57   58   20 1
    58   59   20 1
    59   60   21 1
    60   61   23 1
    61   62   23 1
    62   63   24 1
    63   64   26 1
    64   65   26 1
    65   66   29 1
    66   67   29 1
    67   68   33 1
    68   69   34 1
    69   70   36 1
    70   71   37 1
    71   72   38 1
    72   73   38 1
    73   74   38 1
    74   75   39 1
    75   76   39 1
    76   77   39 1
    77   78   40 1
    78   79   40 1
    79   80   40 1
    80   81   41 1
    81   82   41 1
    82   83   42 1
    83   84   42 1
    84   85   42 1
    85   86   43 1
    86   87   43 1
    87   88   43 1
    88   89   44 1
    89   90   44 1
    90   91   44 1
    91   92   45 1
    92   93   45 1
    93   94   45 1
    94   95   46 1
    95   96   46 1
    96   97   46 1
    97    8   10 1
    98   12   41 1
    99   24   25 1
   100   26   27 1
   101   33   34 1
@<TRIPOS>SUBSTRUCTURE
     1 RES1 1

@<TRIPOS>CRYSIN
   9.5980   16.2990   24.2010  90.0000  90.0000  90.0000  19 1

