# MOL2 file generated by ConQuest
# Please check atom types

@<TRIPOS>MOLECULE
GETFIU01
    17    17     1
SMALL
USER_CHARGES
****
Generated from CSD

@<TRIPOS>ATOM
      1 O1         0.9409    3.4237   12.5456 O.2       1 RES1    0.0000
      2 O2        -4.4584    6.5153   12.2932 O.2       1 RES1    0.0000
      3 O3        -4.4449    5.8967   14.3763 O.2       1 RES1    0.0000
      4 O4        -0.5331    3.9426   16.2957 O.2       1 RES1    0.0000
      5 O5         0.4646    2.4987   15.0545 O.2       1 RES1    0.0000
      6 N1        -0.1495    4.7609   10.5492 N.1       1 RES1    1.0000
      7 N2         0.4837    4.6834    9.6643 N.1       1 RES1    0.0000
      8 N3        -3.9414    5.9707   13.2618 N.pl3     1 RES1    0.0000
      9 N4        -0.2588    3.4642   15.2096 N.pl3     1 RES1    0.0000
     10 C1        -0.1248    4.0028   12.7600 C.2       1 RES1    0.0000
     11 C2        -0.8266    4.7462   11.7383 C.2       1 RES1    0.0000
     12 C3        -2.0411    5.3924   11.8462 C.2       1 RES1    0.0000
     13 H1        -2.4365    5.8278   11.1270 H         1 RES1    0.0000
     14 C4        -2.6224    5.3503   13.0793 C.2       1 RES1   -1.0000
     15 C5        -2.0207    4.7273   14.1680 C.2       1 RES1    0.0000
     16 H2        -2.4328    4.7540   15.0013 H         1 RES1    0.0000
     17 C6        -0.8371    4.0811   14.0205 C.2       1 RES1    0.0000
@<TRIPOS>BOND
     1    1   10 2
     2    2    8 2
     3    3    8 2
     4    4    9 2
     5    5    9 2
     6    6    7 3
     7    8   14 1
     8    9   17 1
     9   10   11 1
    10   11    6 1
    11   12   11 2
    12   13   12 1
    13   14   12 1
    14   15   14 1
    15   16   15 1
    16   17   10 1
    17   15   17 2
@<TRIPOS>SUBSTRUCTURE
     1 RES1 1

@<TRIPOS>CRYSIN
   6.1777    8.6045   15.2050  90.0000  90.0000  90.0000  19 1

