# MOL2 file generated by ConQuest
# Please check atom types

@<TRIPOS>MOLECULE
GETGIV
    28    28     2
SMALL
NO_CHARGES
****
Generated from CSD

@<TRIPOS>ATOM
      1 C1         4.4554    2.8240    5.7505 C.ar      1 RES1    0.0000
      2 C2         4.7875    1.6985    4.9531 C.ar      1 RES1    0.0000
      3 C3         5.5902    1.8118    3.8623 C.ar      1 RES1    0.0000
      4 C4         6.1089    3.0508    3.4971 C.ar      1 RES1    0.0000
      5 C5         5.7976    4.1743    4.2383 C.ar      1 RES1    0.0000
      6 C6         4.9919    4.0782    5.3385 C.ar      1 RES1    0.0000
      7 N1         3.6762    2.7228    6.8491 N.3       1 RES1    0.0000
      8 N2         6.9580    3.1682    2.3423 N.pl3     1 RES1    0.0000
      9 O1         7.1443    2.1702    1.6401 O.2       1 RES1    0.0000
     10 O2         7.4775    4.2462    2.0848 O.2       1 RES1    0.0000
     11 C7         3.1273    1.4383    7.3063 C.3       1 RES1    0.0000
     12 C8         3.1963    3.8848    7.5966 C.3       1 RES1    0.0000
     13 C9         4.2495    4.3302    8.6608 C.3       1 RES1    0.0000
     14 C10        1.8454    1.0841    6.6181 C.3       1 RES1    0.0000
     15 C11        2.3310    2.8210   15.1135 C.ar      2 RES2    0.0000
     16 C12        2.8059    2.6661   16.4415 C.ar      2 RES2    0.0000
     17 C13        1.9667    2.8028   17.5167 C.ar      2 RES2    0.0000
     18 C14        0.6276    3.1014   17.3216 C.ar      2 RES2    0.0000
     19 C15        0.1271    3.2370   16.0358 C.ar      2 RES2    0.0000
     20 C16        0.9521    3.1034   14.9528 C.ar      2 RES2    0.0000
     21 N3         3.1618    2.6894   14.0493 N.3       2 RES2    0.0000
     22 N4        -0.2401    3.2552   18.4468 N.pl3     2 RES2    0.0000
     23 C17        4.6086    2.5841   14.2038 C.3       2 RES2    0.0000
     24 C18        2.6507    2.6631   12.6651 C.3       2 RES2    0.0000
     25 C19        5.0936    1.1529   14.3395 C.3       2 RES2    0.0000
     26 C20        2.5259    4.0468   12.0815 C.3       2 RES2    0.0000
     27 O3        -1.4155    3.5346   18.2689 O.2       2 RES2    0.0000
     28 O4         0.2349    3.1398   19.5766 O.2       2 RES2    0.0000
@<TRIPOS>BOND
     1    1    2 ar
     2    2    3 ar
     3    3    4 ar
     4    4    5 ar
     5    5    6 ar
     6    6    1 ar
     7    7    1 1
     8    8    4 1
     9    9    8 2
    10   10    8 2
    11   11    7 1
    12   12    7 1
    13   13   12 1
    14   14   11 1
    15   15   16 ar
    16   16   17 ar
    17   17   18 ar
    18   18   19 ar
    19   19   20 ar
    20   20   15 ar
    21   21   15 1
    22   22   18 1
    23   23   21 1
    24   24   21 1
    25   25   23 1
    26   26   24 1
    27   27   22 2
    28   28   22 2
@<TRIPOS>SUBSTRUCTURE
     1 RES1 1
     2 RES2 15

@<TRIPOS>CRYSIN
  13.2580   10.1220   15.6180  90.0000  92.3300  90.0000 231 1

