# MOL2 file generated by ConQuest
# Please check atom types

@<TRIPOS>MOLECULE
GETNID
    17    18     1
SMALL
NO_CHARGES
****
Generated from CSD

@<TRIPOS>ATOM
      1 N1         3.6950    3.8368    6.5892 N.am      1 RES1    0.0000
      2 C1         6.5608    1.9678    1.2856 C.3       1 RES1    0.0000
      3 C2         3.3786    4.1280    7.9941 C.3       1 RES1    0.0000
      4 C3         4.8005    2.9064    2.6787 C.2       1 RES1    0.0000
      5 N2         4.9180    3.2590    6.3943 N.2       1 RES1    0.0000
      6 O1         4.1121    3.0612    1.6956 O.2       1 RES1    0.0000
      7 C4         5.2112    2.9925    5.1692 C.2       1 RES1    0.0000
      8 C5         4.4027    3.2910    4.0399 C.2       1 RES1    0.0000
      9 N3         6.4510    2.3918    4.9339 N.am      1 RES1    0.0000
     10 N4         3.2597    3.9677    4.2584 N.pl3     1 RES1    0.0000
     11 C6         7.2750    2.0274    6.0985 C.3       1 RES1    0.0000
     12 O2         2.5029    4.4219    3.3778 O.2       1 RES1    0.0000
     13 C7         6.9147    2.0915    3.6870 C.2       1 RES1    0.0000
     14 C8         2.8155    4.2168    5.6381 C.2       1 RES1    0.0000
     15 O3         8.0099    1.6025    3.4870 O.2       1 RES1    0.0000
     16 O4         1.7319    4.7259    5.8280 O.2       1 RES1    0.0000
     17 N5         6.0636    2.3479    2.6081 N.am      1 RES1    0.0000
@<TRIPOS>BOND
     1    1    3 1
     2    2   17 1
     3    4    6 2
     4    5    1 1
     5    7    5 2
     6    8    4 1
     7    9    7 1
     8   10    8 2
     9   11    9 1
    10   12   10 1
    11   13    9 1
    12   14    1 1
    13   15   13 2
    14   16   14 2
    15   17    4 1
    16    7    8 1
    17   10   14 1
    18   13   17 1
@<TRIPOS>SUBSTRUCTURE
     1 RES1 1

@<TRIPOS>CRYSIN
  12.9150    9.1570   16.8050  90.0000  90.0000  90.0000  61 1

