# MOL2 file generated by ConQuest
# Please check atom types

@<TRIPOS>MOLECULE
GEVKIC
    70    74     2
SMALL
NO_CHARGES
****
Generated from CSD

@<TRIPOS>ATOM
      1 O1        -0.4987    8.2534   -0.3326 O.3       1 RES1    0.0000
      2 O2         6.4133    5.1241    4.9948 O.3       2 RES2    0.0000
      3 N1         4.5054    5.7682    3.1043 N.ar      1 RES1    0.0000
      4 N2         3.6288    6.2331    0.9410 N.ar      1 RES1    0.0000
      5 N3         1.5004    7.1699    0.6767 N.3       1 RES1    0.0000
      6 N4         0.2081    7.4063   -1.2265 N.2       1 RES1    0.0000
      7 N5        10.9274    2.9028    9.2442 N.ar      2 RES2    0.0000
      8 N6        10.3162    3.1802    6.9534 N.ar      2 RES2    0.0000
      9 N7         8.2715    4.1333    6.3549 N.3       2 RES2    0.0000
     10 N8         7.3021    4.3056    4.2537 N.2       2 RES2    0.0000
     11 C1         1.1771    7.4380    3.5558 C.ar      1 RES1    0.0000
     12 C2         0.3154    6.6608    4.2953 C.ar      1 RES1    0.0000
     13 H1         0.4897    5.7530    4.3930 H         1 RES1    0.0000
     14 C3        -0.8255    7.2141    4.9067 C.ar      1 RES1    0.0000
     15 H2        -1.3933    6.6713    5.4050 H         1 RES1    0.0000
     16 C4        -1.1020    8.5470    4.7705 C.ar      1 RES1    0.0000
     17 H3        -1.8731    8.8964    5.1537 H         1 RES1    0.0000
     18 C5        -0.4696   10.7788    3.9084 C.ar      1 RES1    0.0000
     19 H4        -1.2402   11.1464    4.2773 H         1 RES1    0.0000
     20 C6         0.3971   11.5914    3.2422 C.ar      1 RES1    0.0000
     21 H5         0.2217   12.5015    3.1685 H         1 RES1    0.0000
     22 C7         1.5452   11.0535    2.6735 C.ar      1 RES1    0.0000
     23 H6         2.1406   11.6117    2.2276 H         1 RES1    0.0000
     24 C8         1.8121    9.7236    2.7599 C.ar      1 RES1    0.0000
     25 H7         2.5816    9.3857    2.3622 H         1 RES1    0.0000
     26 C9         0.9372    8.8395    3.4466 C.ar      1 RES1    0.0000
     27 C10       -0.2307    9.3983    4.0552 C.ar      1 RES1    0.0000
     28 C11        2.3597    6.8266    2.8990 C.ar      1 RES1    0.0000
     29 C12        3.3859    6.2950    3.6303 C.ar      1 RES1    0.0000
     30 H8         3.3038    6.2979    4.5564 H         1 RES1    0.0000
     31 C13        4.5555    5.7910    1.7827 C.ar      1 RES1    0.0000
     32 H9         5.3332    5.4568    1.3968 H         1 RES1    0.0000
     33 C14        2.5133    6.7303    1.4850 C.ar      1 RES1    0.0000
     34 C15        1.2356    6.8963   -0.6608 C.2       1 RES1    0.0000
     35 C16        2.0803    5.9757   -1.4682 C.3       1 RES1    0.0000
     36 H10        2.1957    5.1485   -0.9943 H         1 RES1    0.0000
     37 H11        2.9380    6.3797   -1.6204 H         1 RES1    0.0000
     38 H12        1.6527    5.8046   -2.3110 H         1 RES1    0.0000
     39 C17        7.5757    4.5724    9.1655 C.ar      2 RES2    0.0000
     40 C18        6.6219    3.8455    9.8274 C.ar      2 RES2    0.0000
     41 H13        6.7566    2.9352    9.9626 H         2 RES2    0.0000
     42 C19        5.4386    4.4465   10.3100 C.ar      2 RES2    0.0000
     43 H14        4.8088    3.9339   10.7633 H         2 RES2    0.0000
     44 C20        5.2192    5.7782   10.1116 C.ar      2 RES2    0.0000
     45 H15        4.4314    6.1648   10.4196 H         2 RES2    0.0000
     46 C21        5.9838    7.9582    9.2243 C.ar      2 RES2    0.0000
     47 H16        5.1913    8.3547    9.5055 H         2 RES2    0.0000
     48 C22        6.9293    8.7265    8.6124 C.ar      2 RES2    0.0000
     49 H17        6.7803    9.6350    8.4812 H         2 RES2    0.0000
     50 C23        8.1222    8.1422    8.1842 C.ar      2 RES2    0.0000
     51 H18        8.7699    8.6717    7.7783 H         2 RES2    0.0000
     52 C24        8.3536    6.8122    8.3503 C.ar      2 RES2    0.0000
     53 H19        9.1543    6.4459    8.0530 H         2 RES2    0.0000
     54 C25        7.3831    5.9721    8.9749 C.ar      2 RES2    0.0000
     55 C26        6.1758    6.5778    9.4423 C.ar      2 RES2    0.0000
     56 C27        8.8268    3.9197    8.6904 C.ar      2 RES2    0.0000
     57 C28        9.7538    3.4664    9.5875 C.ar      2 RES2    0.0000
     58 H20        9.5616    3.5532   10.4931 H         2 RES2    0.0000
     59 C29       11.1266    2.8097    7.9366 C.ar      2 RES2    0.0000
     60 H21       11.9375    2.4366    7.6749 H         2 RES2    0.0000
     61 C30        9.1518    3.7348    7.3173 C.ar      2 RES2    0.0000
     62 C31        8.2324    3.8433    4.9908 C.2       2 RES2    0.0000
     63 C32        9.2264    2.9561    4.3307 C.3       2 RES2    0.0000
     64 H22        9.2434    2.1066    4.7778 H         2 RES2    0.0000
     65 H23       10.0962    3.3602    4.3774 H         2 RES2    0.0000
     66 H24        8.9806    2.8286    3.4109 H         2 RES2    0.0000
     67 H25       -1.2077    8.3722   -0.8007 H         1 RES1    0.0000
     68 H26        0.8375    7.6084    1.1021 H         1 RES1    0.0000
     69 H27        5.8549    5.3100    4.3373 H         2 RES2    0.0000
     70 H28        7.5706    4.5570    6.6484 H         2 RES2    0.0000
@<TRIPOS>BOND
     1    1    6 1
     2    2   10 1
     3    3   29 ar
     4    4   31 ar
     5    5   33 1
     6    6   34 2
     7    7   57 ar
     8    8   59 ar
     9    9   61 1
    10   10   62 2
    11   11   12 ar
    12   12   13 1
    13   14   12 ar
    14   15   14 1
    15   16   14 ar
    16   17   16 1
    17   18   19 1
    18   20   18 ar
    19   21   20 1
    20   22   20 ar
    21   23   22 1
    22   24   22 ar
    23   25   24 1
    24   26   11 ar
    25   27   16 ar
    26   28   11 1
    27   29   28 ar
    28   30   29 1
    29   31    3 ar
    30   32   31 1
    31   33    4 ar
    32   34    5 1
    33   35   34 1
    34   36   35 1
    35   37   35 1
    36   38   35 1
    37   39   40 ar
    38   40   41 1
    39   42   40 ar
    40   43   42 1
    41   44   42 ar
    42   45   44 1
    43   46   47 1
    44   48   46 ar
    45   49   48 1
    46   50   48 ar
    47   51   50 1
    48   52   50 ar
    49   53   52 1
    50   54   39 ar
    51   55   44 ar
    52   56   39 1
    53   57   56 ar
    54   58   57 1
    55   59    7 ar
    56   60   59 1
    57   61    8 ar
    58   62    9 1
    59   63   62 1
    60   64   63 1
    61   65   63 1
    62   66   63 1
    63   67    1 1
    64   68    5 1
    65   69    2 1
    66   70    9 1
    67   18   27 ar
    68   24   26 ar
    69   26   27 ar
    70   28   33 ar
    71   46   55 ar
    72   52   54 ar
    73   54   55 ar
    74   56   61 ar
@<TRIPOS>SUBSTRUCTURE
     1 RES1 1
     2 RES2 2

@<TRIPOS>CRYSIN
  10.8011   11.6051   12.8489  63.3951  76.8282  89.5278   2 1

