# MOL2 file generated by ConQuest
# Please check atom types

@<TRIPOS>MOLECULE
GEVSOS
    46    44     2
SMALL
NO_CHARGES
****
Generated from CSD

@<TRIPOS>ATOM
      1 O1        -1.4766    1.6058    8.4590 O.3       1 RES1    0.0000
      2 C1        -0.5006    0.6916    8.4015 C.2       1 RES1    0.0000
      3 O2        -0.7523   -0.4960    8.3158 O.2       1 RES1    0.0000
      4 C2         1.0766    2.6894    8.5406 C.2       1 RES1    0.0000
      5 H1         2.1085    2.9382    8.4443 H         1 RES1    0.0000
      6 N1         1.8334   -0.8960    8.3573 N.pl3     1 RES1    0.0000
      7 H2         2.4688   -1.5238    8.5861 H         1 RES1    0.0000
      8 H3         0.9155   -1.3571    8.5393 H         1 RES1    0.0000
      9 C3         1.9596    0.4181    8.4055 C.2       1 RES1    0.0000
     10 C4         0.8377    1.2802    8.4416 C.2       1 RES1    0.0000
     11 N2         0.7549    5.0429    8.7587 N.pl3     1 RES1    0.0000
     12 O3        -0.0503    5.9662    8.9072 O.2       1 RES1    0.0000
     13 C5         3.3705    0.9208    8.3975 C.3       1 RES1    0.0000
     14 H4         3.4735    1.5915    7.5252 H         1 RES1    0.0000
     15 H5         3.5329    1.3936    9.2175 H         1 RES1    0.0000
     16 H6         3.9731    0.1758    8.3332 H         1 RES1    0.0000
     17 O4         1.9486    5.2682    8.7225 O.2       1 RES1    0.0000
     18 C6         0.2220    3.7157    8.6543 C.2       1 RES1    0.0000
     19 H7        -0.7816    3.6259    8.8991 H         1 RES1    0.0000
     20 C7        -2.8320    1.1227    8.4296 C.3       1 RES1    0.0000
     21 H8        -2.9268    0.6421    7.5439 H         1 RES1    0.0000
     22 H9        -3.5029    1.8898    8.6516 H         1 RES1    0.0000
     23 H10       -2.9948    0.4194    9.1493 H         1 RES1    0.0000
     24 O5         1.9460    1.6962   11.9306 O.3       2 RES2    0.0000
     25 O6         1.2244    3.8088   11.9989 O.2       2 RES2    0.0000
     26 C8         0.9658    2.6100   11.9534 C.2       2 RES2    0.0000
     27 C9        -0.3637    2.0200   11.9092 C.2       2 RES2    0.0000
     28 N3        -0.2577   -1.7087   11.3714 N.pl3     2 RES2    0.0000
     29 C10       -0.5888    0.6056   11.7701 C.2       2 RES2    0.0000
     30 H11       -1.4834    0.2592   11.8062 H         2 RES2    0.0000
     31 N4        -1.3692    4.2002   11.8865 N.pl3     2 RES2    0.0000
     32 H12       -2.1209    4.8149   12.1982 H         2 RES2    0.0000
     33 H13       -0.3521    4.5284   11.8972 H         2 RES2    0.0000
     34 O7         0.5274   -2.5892   11.0463 O.2       2 RES2    0.0000
     35 C11       -1.4875    2.8848   11.9186 C.2       2 RES2    0.0000
     36 C12        0.2471   -0.4037   11.5895 C.2       2 RES2    0.0000
     37 H14        1.2017   -0.3126   11.6604 H         2 RES2    0.0000
     38 O8        -1.4373   -1.9484   11.5172 O.2       2 RES2    0.0000
     39 C13       -2.9026    2.4003   11.9815 C.3       2 RES2    0.0000
     40 H15       -3.3386    2.6712   11.0544 H         2 RES2    0.0000
     41 H16       -2.9142    1.4561   12.1540 H         2 RES2    0.0000
     42 H17       -3.3660    2.8600   12.6851 H         2 RES2    0.0000
     43 C14        3.2902    2.1997   11.9975 C.3       2 RES2    0.0000
     44 H18        3.9083    1.4665   11.9748 H         2 RES2    0.0000
     45 H19        3.4069    2.6907   12.8149 H         2 RES2    0.0000
     46 H20        3.4523    2.7793   11.2497 H         2 RES2    0.0000
@<TRIPOS>BOND
     1    1    2 1
     2    2    3 2
     3    4    5 1
     4    6    7 1
     5    8    6 1
     6    9    6 1
     7   10    2 1
     8   11   12 2
     9   13    9 1
    10   14   13 1
    11   15   13 1
    12   16   13 1
    13   17   11 2
    14   18    4 2
    15   19   18 1
    16   20    1 1
    17   21   20 1
    18   22   20 1
    19   23   20 1
    20   24   26 1
    21   25   26 2
    22   26   27 1
    23   27   29 1
    24   28   34 2
    25   29   30 1
    26   31   32 1
    27   33   31 1
    28   35   27 2
    29   36   28 1
    30   37   36 1
    31   38   28 2
    32   39   35 1
    33   40   39 1
    34   41   39 1
    35   42   39 1
    36   43   24 1
    37   44   43 1
    38   45   43 1
    39   46   43 1
    40    4   10 1
    41    9   10 2
    42   11   18 1
    43   29   36 2
    44   31   35 1
@<TRIPOS>SUBSTRUCTURE
     1 RES1 1
     2 RES2 24

@<TRIPOS>CRYSIN
   9.8402   13.0239   13.7002  90.0000 102.4480  90.0000  14 1

