# MOL2 file generated by ConQuest
# Please check atom types

@<TRIPOS>MOLECULE
GEVYIP
    43    45     1
SMALL
NO_CHARGES
****
Generated from CSD

@<TRIPOS>ATOM
      1 O1        13.6836    7.4082   10.2124 O.3       1 RES1    0.0000
      2 C1        12.8418    8.1952   10.9720 C.2       1 RES1    0.0000
      3 N1        12.4646    7.6067   12.1282 N.am      1 RES1    0.0000
      4 N2        13.0598    6.4159   12.5945 N.3       1 RES1    0.0000
      5 C2        13.3632    5.4920   11.5525 C.2       1 RES1    0.0000
      6 C3        13.5326    6.0018   10.3218 C.2       1 RES1    0.0000
      7 O2        12.5025    9.2782   10.5778 O.2       1 RES1    0.0000
      8 C4        11.4148    8.1541   12.9695 C.3       1 RES1    0.0000
      9 C5        14.1298    6.6486   13.5765 C.3       1 RES1    0.0000
     10 C6        13.4803    4.0993   12.0044 C.ar      1 RES1    0.0000
     11 C7        12.6877    3.6442   13.0608 C.ar      1 RES1    0.0000
     12 C8        12.8301    2.3799   13.5933 C.ar      1 RES1    0.0000
     13 C9        13.7968    1.5364   13.0837 C.ar      1 RES1    0.0000
     14 C10       13.3134   -0.1591   14.7086 C.3       1 RES1    0.0000
     15 O3        14.0451    0.2737   13.5464 O.3       1 RES1    0.0000
     16 C11       14.6007    1.9607   12.0128 C.ar      1 RES1    0.0000
     17 C12       14.4439    3.2165   11.4924 C.ar      1 RES1    0.0000
     18 C13       13.5654    5.3551    8.9973 C.ar      1 RES1    0.0000
     19 C14       12.9774    4.1164    8.7653 C.ar      1 RES1    0.0000
     20 C15       12.9845    3.5416    7.5021 C.ar      1 RES1    0.0000
     21 C16       13.5937    4.2465    6.4781 C.ar      1 RES1    0.0000
     22 O4        13.1674    2.5338    4.9746 O.2       1 RES1    0.0000
     23 O5        14.1733    4.2995    4.2462 O.2       1 RES1    0.0000
     24 N3        13.6472    3.6391    5.1272 N.pl3     1 RES1    0.0000
     25 C17       14.1631    5.4800    6.6620 C.ar      1 RES1    0.0000
     26 C18       14.1587    6.0446    7.9324 C.ar      1 RES1    0.0000
     27 H1        11.0816    8.9549   12.6678 H         1 RES1    0.0000
     28 H2        11.6342    8.3749   13.8024 H         1 RES1    0.0000
     29 H3        10.7825    7.4989   13.0452 H         1 RES1    0.0000
     30 H4        14.9315    7.3090   13.2183 H         1 RES1    0.0000
     31 H5        13.8579    7.0831   14.2050 H         1 RES1    0.0000
     32 H6        14.7166    5.7982   13.8036 H         1 RES1    0.0000
     33 H7        11.9186    4.2157   13.3553 H         1 RES1    0.0000
     34 H8        12.1582    2.1095   14.2531 H         1 RES1    0.0000
     35 H9        12.1750   -0.2447   14.4743 H         1 RES1    0.0000
     36 H10       13.5966    0.4089   15.3769 H         1 RES1    0.0000
     37 H11       13.8348   -1.0556   14.8589 H         1 RES1    0.0000
     38 H12       15.3024    1.3824   11.7316 H         1 RES1    0.0000
     39 H13       15.0806    3.5296   10.8193 H         1 RES1    0.0000
     40 H14       12.3935    3.6511    9.4396 H         1 RES1    0.0000
     41 H15       12.4436    2.7049    7.3315 H         1 RES1    0.0000
     42 H16       14.7537    5.9214    6.0395 H         1 RES1    0.0000
     43 H17       14.6677    6.9001    8.0911 H         1 RES1    0.0000
@<TRIPOS>BOND
     1    1    2 1
     2    2    3 1
     3    3    4 1
     4    4    5 1
     5    5    6 2
     6    6    1 1
     7    7    2 2
     8    8    3 1
     9    9    4 1
    10   10    5 1
    11   11   10 ar
    12   12   11 ar
    13   13   12 ar
    14   14   15 1
    15   15   13 1
    16   16   13 ar
    17   17   10 ar
    18   18    6 1
    19   19   18 ar
    20   20   19 ar
    21   21   20 ar
    22   22   24 2
    23   23   24 2
    24   24   21 1
    25   25   21 ar
    26   26   18 ar
    27   27    8 1
    28   28    8 1
    29   29    8 1
    30   30    9 1
    31   31    9 1
    32   32    9 1
    33   33   11 1
    34   34   12 1
    35   35   14 1
    36   36   14 1
    37   37   14 1
    38   38   16 1
    39   39   17 1
    40   40   19 1
    41   41   20 1
    42   42   25 1
    43   43   26 1
    44   16   17 ar
    45   25   26 ar
@<TRIPOS>SUBSTRUCTURE
     1 RES1 1

@<TRIPOS>CRYSIN
  16.5370   17.1090   12.0740  90.0000  95.4800  90.0000  15 1

