# MOL2 file generated by ConQuest
# Please check atom types

@<TRIPOS>MOLECULE
GEWXUE
    88    94     2
SMALL
NO_CHARGES
****
Generated from CSD

@<TRIPOS>ATOM
      1 C1         0.9807    3.4324    4.3174 C.ar      1 RES1    0.0000
      2 C2         1.0918    4.0727    3.0967 C.ar      1 RES1    0.0000
      3 C3         2.3125    4.0917    2.4526 C.ar      1 RES1    0.0000
      4 C4         3.3521    3.4246    3.0518 C.ar      1 RES1    0.0000
      5 C5         3.2593    2.7430    4.2575 C.ar      1 RES1    0.0000
      6 C6         4.4530    1.9845    4.7873 C.3       1 RES1    0.0000
      7 C7         4.2414    1.2717    6.1054 C.3       1 RES1    0.0000
      8 C8         2.7914    0.8166    6.2908 C.3       1 RES1    0.0000
      9 C9         1.8908    2.0537    6.2608 C.3       1 RES1    0.0000
     10 C10        2.0331    2.7620    4.9184 C.ar      1 RES1    0.0000
     11 C11        0.4343    1.7748    6.6540 C.3       1 RES1    0.0000
     12 C12        0.2990    0.9538    7.9421 C.3       1 RES1    0.0000
     13 C13        1.1231   -0.3068    7.8391 C.3       1 RES1    0.0000
     14 C14        2.5891    0.0558    7.5901 C.3       1 RES1    0.0000
     15 C15        3.3540   -1.2416    7.8503 C.3       1 RES1    0.0000
     16 C16        2.6092   -1.8517    9.0411 C.3       1 RES1    0.0000
     17 C17        1.2439   -1.1981    9.0486 C.2       1 RES1    0.0000
     18 C18        0.5366   -1.2695    6.7719 C.3       1 RES1    0.0000
     19 O1         2.5377    4.7119    1.2600 O.3       1 RES1    0.0000
     20 N1         4.6448    3.4726    2.3590 N.pl3     1 RES1    0.0000
     21 O2         4.9270    2.6025    1.5764 O.2       1 RES1    0.0000
     22 O3         5.3731    4.4297    2.6080 O.2       1 RES1    0.0000
     23 O4         0.3791   -1.3910    9.8855 O.2       1 RES1    0.0000
     24 H1         0.1608    3.4525    4.7555 H         1 RES1    0.0000
     25 H2         0.3515    4.4855    2.7129 H         1 RES1    0.0000
     26 H3         5.1897    2.6069    4.8922 H         1 RES1    0.0000
     27 H4         4.7174    1.3286    4.1246 H         1 RES1    0.0000
     28 H5         4.4827    1.8674    6.8318 H         1 RES1    0.0000
     29 H6         4.8255    0.4986    6.1466 H         1 RES1    0.0000
     30 H7         2.5482    0.2320    5.5437 H         1 RES1    0.0000
     31 H8         2.2446    2.6683    6.9367 H         1 RES1    0.0000
     32 H9        -0.0271    2.6203    6.7682 H         1 RES1    0.0000
     33 H10       -0.0004    1.2973    5.9294 H         1 RES1    0.0000
     34 H11        0.6020    1.4814    8.6966 H         1 RES1    0.0000
     35 H12       -0.6323    0.7251    8.0863 H         1 RES1    0.0000
     36 H13        2.8440    0.6704    8.3090 H         1 RES1    0.0000
     37 H14        4.2814   -1.0631    8.0713 H         1 RES1    0.0000
     38 H15        3.3203   -1.8294    7.0790 H         1 RES1    0.0000
     39 H16        2.5270   -2.8122    8.9363 H         1 RES1    0.0000
     40 H17        3.0805   -1.6677    9.8686 H         1 RES1    0.0000
     41 H18        0.4169   -0.7954    5.9463 H         1 RES1    0.0000
     42 H19        1.1416   -2.0023    6.6353 H         1 RES1    0.0000
     43 H20       -0.3104   -1.6052    7.0752 H         1 RES1    0.0000
     44 H21        1.8470    5.0722    1.0054 H         1 RES1    0.0000
     45 C19        0.0972    6.7366    5.1562 C.ar      2 RES2    0.0000
     46 C20        0.2187    6.1141    6.3694 C.ar      2 RES2    0.0000
     47 C21        1.4769    5.8854    6.8955 C.ar      2 RES2    0.0000
     48 C22        2.5566    6.3127    6.1635 C.ar      2 RES2    0.0000
     49 C23        2.4547    6.9630    4.9465 C.ar      2 RES2    0.0000
     50 C24        3.6924    7.4393    4.2257 C.3       2 RES2    0.0000
     51 C25        3.4890    8.4132    3.1154 C.3       2 RES2    0.0000
     52 C26        2.1011    9.0434    3.0349 C.3       2 RES2    0.0000
     53 C27        1.0536    7.9134    3.0930 C.3       2 RES2    0.0000
     54 C28        1.1837    7.1895    4.4223 C.ar      2 RES2    0.0000
     55 C29       -0.3709    8.3752    2.7803 C.3       2 RES2    0.0000
     56 C30       -0.4659    9.2219    1.5072 C.3       2 RES2    0.0000
     57 C31        0.4990   10.3899    1.5970 C.3       2 RES2    0.0000
     58 C32        1.9243    9.8410    1.7674 C.3       2 RES2    0.0000
     59 C33        2.8081   11.0592    1.5015 C.3       2 RES2    0.0000
     60 C34        2.0845   11.7787    0.3407 C.3       2 RES2    0.0000
     61 C35        0.6724   11.2432    0.3632 C.2       2 RES2    0.0000
     62 C36        0.0849   11.3894    2.6904 C.3       2 RES2    0.0000
     63 O5         1.6766    5.2630    8.0937 O.3       2 RES2    0.0000
     64 N2         3.8924    6.0126    6.7120 N.pl3     2 RES2    0.0000
     65 O6         4.3443    6.7232    7.5789 O.2       2 RES2    0.0000
     66 O7         4.4775    5.0466    6.2889 O.2       2 RES2    0.0000
     67 O8        -0.1674   11.4574   -0.4830 O.2       2 RES2    0.0000
     68 H22       -0.7554    6.8626    4.8061 H         2 RES2    0.0000
     69 H23       -0.5396    5.8464    6.8375 H         2 RES2    0.0000
     70 H24        4.2835    7.8454    4.8791 H         2 RES2    0.0000
     71 H25        4.1497    6.6629    3.8662 H         2 RES2    0.0000
     72 H26        3.6693    7.9614    2.2767 H         2 RES2    0.0000
     73 H27        4.1419    9.1238    3.2090 H         2 RES2    0.0000
     74 H28        1.9736    9.6358    3.8063 H         2 RES2    0.0000
     75 H29        1.2983    7.2687    2.3965 H         2 RES2    0.0000
     76 H30       -0.7049    8.8940    3.5292 H         2 RES2    0.0000
     77 H31       -0.9405    7.5955    2.6848 H         2 RES2    0.0000
     78 H32       -0.2491    8.6764    0.7339 H         2 RES2    0.0000
     79 H33       -1.3712    9.5521    1.4004 H         2 RES2    0.0000
     80 H34        2.0746    9.2208    1.0241 H         2 RES2    0.0000
     81 H35        3.7031   10.7903    1.2413 H         2 RES2    0.0000
     82 H36        2.8641   11.6281    2.2841 H         2 RES2    0.0000
     83 H37        2.0889   12.7391    0.4774 H         2 RES2    0.0000
     84 H38        2.5124   11.5812   -0.5074 H         2 RES2    0.0000
     85 H39       -0.0473   10.9220    3.5180 H         2 RES2    0.0000
     86 H40        0.7758   12.0464    2.8009 H         2 RES2    0.0000
     87 H41       -0.7325   11.8233    2.4358 H         2 RES2    0.0000
     88 H42        1.9502    4.5011    7.9646 H         2 RES2    0.0000
@<TRIPOS>BOND
     1    1    2 ar
     2    2    3 ar
     3    3    4 ar
     4    4    5 ar
     5    5    6 1
     6    6    7 1
     7    7    8 1
     8    8    9 1
     9    9   10 1
    10   10    1 ar
    11   11    9 1
    12   12   11 1
    13   13   12 1
    14   14    8 1
    15   15   14 1
    16   16   15 1
    17   17   13 1
    18   18   13 1
    19   19    3 1
    20   20    4 1
    21   21   20 2
    22   22   20 2
    23   23   17 2
    24   24    1 1
    25   25    2 1
    26   26    6 1
    27   27    6 1
    28   28    7 1
    29   29    7 1
    30   30    8 1
    31   31    9 1
    32   32   11 1
    33   33   11 1
    34   34   12 1
    35   35   12 1
    36   36   14 1
    37   37   15 1
    38   38   15 1
    39   39   16 1
    40   40   16 1
    41   41   18 1
    42   42   18 1
    43   43   18 1
    44   44   19 1
    45   45   46 ar
    46   46   47 ar
    47   47   48 ar
    48   48   49 ar
    49   49   50 1
    50   50   51 1
    51   51   52 1
    52   52   53 1
    53   53   54 1
    54   54   45 ar
    55   55   53 1
    56   56   55 1
    57   57   56 1
    58   58   52 1
    59   59   58 1
    60   60   59 1
    61   61   57 1
    62   62   57 1
    63   63   47 1
    64   64   48 1
    65   65   64 2
    66   66   64 2
    67   67   61 2
    68   68   45 1
    69   69   46 1
    70   70   50 1
    71   71   50 1
    72   72   51 1
    73   73   51 1
    74   74   52 1
    75   75   53 1
    76   76   55 1
    77   77   55 1
    78   78   56 1
    79   79   56 1
    80   80   58 1
    81   81   59 1
    82   82   59 1
    83   83   60 1
    84   84   60 1
    85   85   62 1
    86   86   62 1
    87   87   62 1
    88   88   63 1
    89    5   10 ar
    90   13   14 1
    91   16   17 1
    92   49   54 ar
    93   57   58 1
    94   60   61 1
@<TRIPOS>SUBSTRUCTURE
     1 RES1 1
     2 RES2 45

@<TRIPOS>CRYSIN
   7.4969   11.1551   18.7251  90.0000  90.9530  90.0000   4 1

