# MOL2 file generated by ConQuest
# Please check atom types

@<TRIPOS>MOLECULE
GEXQEI
    86    90     2
SMALL
NO_CHARGES
****
Generated from CSD

@<TRIPOS>ATOM
      1 C1         4.1766   15.5013   10.7653 C.ar      1 RES1    0.0000
      2 H1         4.2013   15.3206   11.6773 H         1 RES1    0.0000
      3 C2         3.2208   16.3392   10.2730 C.ar      1 RES1    0.0000
      4 H2         2.5820   16.7039   10.8419 H         1 RES1    0.0000
      5 C3         3.2059   16.6343    8.9633 C.ar      1 RES1    0.0000
      6 H3         2.5692   17.2239    8.6289 H         1 RES1    0.0000
      7 C4         4.1253   16.0714    8.1160 C.ar      1 RES1    0.0000
      8 H4         4.1126   16.2788    7.2097 H         1 RES1    0.0000
      9 C5         5.0504   15.2124    8.6031 C.ar      1 RES1    0.0000
     10 H5         5.6607   14.8156    8.0242 H         1 RES1    0.0000
     11 C6         5.0972   14.9243    9.9416 C.ar      1 RES1    0.0000
     12 C7         6.1317   14.0198   10.4732 C.3       1 RES1    0.0000
     13 H6         6.0076   13.8829   11.4249 H         1 RES1    0.0000
     14 H7         6.0938   13.1596   10.0268 H         1 RES1    0.0000
     15 C8         9.3099   14.1836   11.5736 C.3       1 RES1    0.0000
     16 H8         8.8762   14.0738   12.4342 H         1 RES1    0.0000
     17 H9         9.6325   15.0953   11.4908 H         1 RES1    0.0000
     18 C9        10.3017   12.5855   10.0689 C.3       1 RES1    0.0000
     19 C10        8.9582   13.0358    9.5723 C.2       1 RES1    0.0000
     20 C11       11.4418   13.2384   12.2386 C.ar      1 RES1    0.0000
     21 C12       11.4761   14.1166   13.3160 C.ar      1 RES1    0.0000
     22 H10       10.7741   14.7143   13.4395 H         1 RES1    0.0000
     23 C13       12.5119   14.1194   14.1899 C.ar      1 RES1    0.0000
     24 H11       12.5040   14.7113   14.9071 H         1 RES1    0.0000
     25 C14       13.5761   13.2604   14.0333 C.ar      1 RES1    0.0000
     26 C15       13.5646   12.3967   12.9603 C.ar      1 RES1    0.0000
     27 H12       14.2781   11.8134   12.8337 H         1 RES1    0.0000
     28 C16       12.5241   12.3847   12.0823 C.ar      1 RES1    0.0000
     29 H13       12.5391   11.7933   11.3647 H         1 RES1    0.0000
     30 C17       14.6614   13.2583   14.9558 C.1       1 RES1    0.0000
     31 C18       11.3356   13.1243    9.1050 C.3       1 RES1    0.0000
     32 H14       11.2849   14.0829    9.0845 H         1 RES1    0.0000
     33 H15       11.1661   12.7762    8.2265 H         1 RES1    0.0000
     34 H16       12.2111   12.8561    9.3923 H         1 RES1    0.0000
     35 C19       10.2978   11.0826   10.1262 C.3       1 RES1    0.0000
     36 H17       11.1927   10.7648   10.2661 H         1 RES1    0.0000
     37 H18        9.9592   10.7310    9.2992 H         1 RES1    0.0000
     38 H19        9.7382   10.7908   10.8501 H         1 RES1    0.0000
     39 N1         8.4391   13.8378   10.5004 N.am      1 RES1    0.0000
     40 N2        10.3697   13.2304   11.3904 N.pl3     1 RES1    0.0000
     41 N3        15.5220   13.2650   15.7000 N.1       1 RES1    0.0000
     42 O1         7.3912   14.6673   10.2156 O.3       1 RES1    0.0000
     43 O2         8.4323   12.7282    8.5314 O.2       1 RES1    0.0000
     44 C20       -0.3507   11.8081    1.1914 C.ar      2 RES2    0.0000
     45 H20        0.2998   12.4683    1.1124 H         2 RES2    0.0000
     46 C21       -1.3614   11.7390    0.2763 C.ar      2 RES2    0.0000
     47 H21       -1.3966   12.3526   -0.4212 H         2 RES2    0.0000
     48 C22       -2.3053   10.7881    0.3792 C.ar      2 RES2    0.0000
     49 H22       -2.9830   10.7474   -0.2556 H         2 RES2    0.0000
     50 C23       -2.2852    9.8828    1.3985 C.ar      2 RES2    0.0000
     51 H23       -2.9474    9.2332    1.4721 H         2 RES2    0.0000
     52 C24       -1.2466    9.9559    2.3264 C.ar      2 RES2    0.0000
     53 H24       -1.2095    9.3403    3.0229 H         2 RES2    0.0000
     54 C25       -0.2898   10.9097    2.2274 C.ar      2 RES2    0.0000
     55 C26        0.8189   11.0177    3.2089 C.3       2 RES2    0.0000
     56 H25        0.7837   11.8742    3.6624 H         2 RES2    0.0000
     57 H26        0.7479   10.3141    3.8732 H         2 RES2    0.0000
     58 C27        3.5632   12.4639    3.4191 C.2       2 RES2    0.0000
     59 C28        4.8709   12.3909    4.1817 C.3       2 RES2    0.0000
     60 C29        3.9685   10.1947    3.7582 C.3       2 RES2    0.0000
     61 H27        4.3244    9.6486    3.0399 H         2 RES2    0.0000
     62 H28        3.4987    9.6270    4.3894 H         2 RES2    0.0000
     63 C30        5.9549   12.9674    3.2869 C.3       2 RES2    0.0000
     64 H29        6.7849   12.9964    3.7679 H         2 RES2    0.0000
     65 H30        5.7091   13.8559    3.0185 H         2 RES2    0.0000
     66 H31        6.0549   12.4144    2.5086 H         2 RES2    0.0000
     67 C31        4.7062   13.1901    5.4623 C.3       2 RES2    0.0000
     68 H32        4.0186   12.7924    6.0017 H         2 RES2    0.0000
     69 H33        4.4608   14.0932    5.2466 H         2 RES2    0.0000
     70 H34        5.5338   13.1909    5.9481 H         2 RES2    0.0000
     71 C32        6.0387   10.3111    5.0150 C.ar      2 RES2    0.0000
     72 C33        7.1110   10.9948    5.6102 C.ar      2 RES2    0.0000
     73 H35        7.1427   11.9232    5.5669 H         2 RES2    0.0000
     74 C34        8.0995   10.3226    6.2465 C.ar      2 RES2    0.0000
     75 H36        8.7985   10.7964    6.6369 H         2 RES2    0.0000
     76 C35        8.0845    8.9482    6.3235 C.ar      2 RES2    0.0000
     77 C36        7.0432    8.2669    5.7297 C.ar      2 RES2    0.0000
     78 H37        7.0269    7.3381    5.7686 H         2 RES2    0.0000
     79 C37        6.0417    8.9226    5.0898 C.ar      2 RES2    0.0000
     80 H38        5.3510    8.4388    4.6978 H         2 RES2    0.0000
     81 C38        9.0958    8.2574    7.0424 C.1       2 RES2    0.0000
     82 N4         3.1339   11.2130    3.2639 N.am      2 RES2    0.0000
     83 N5         5.0036   10.9543    4.4040 N.pl3     2 RES2    0.0000
     84 N6         9.8891    7.7039    7.6284 N.1       2 RES2    0.0000
     85 O3         2.0530   10.8902    2.4767 O.3       2 RES2    0.0000
     86 O4         3.0136   13.4566    3.0366 O.2       2 RES2    0.0000
@<TRIPOS>BOND
     1    1    2 1
     2    3    1 ar
     3    4    3 1
     4    5    3 ar
     5    6    5 1
     6    7    5 ar
     7    8    7 1
     8    9    7 ar
     9   10    9 1
    10   11    1 ar
    11   12   11 1
    12   13   12 1
    13   14   12 1
    14   15   16 1
    15   17   15 1
    16   18   19 1
    17   19   39 1
    18   20   21 ar
    19   21   22 1
    20   23   21 ar
    21   24   23 1
    22   25   23 ar
    23   26   25 ar
    24   27   26 1
    25   28   20 ar
    26   29   28 1
    27   30   25 1
    28   31   18 1
    29   32   31 1
    30   33   31 1
    31   34   31 1
    32   35   18 1
    33   36   35 1
    34   37   35 1
    35   38   35 1
    36   39   15 1
    37   40   15 1
    38   41   30 3
    39   42   12 1
    40   43   19 2
    41   44   45 1
    42   46   44 ar
    43   47   46 1
    44   48   46 ar
    45   49   48 1
    46   50   48 ar
    47   51   50 1
    48   52   50 ar
    49   53   52 1
    50   54   44 ar
    51   55   54 1
    52   56   55 1
    53   57   55 1
    54   58   59 1
    55   59   63 1
    56   60   61 1
    57   62   60 1
    58   63   64 1
    59   65   63 1
    60   66   63 1
    61   67   59 1
    62   68   67 1
    63   69   67 1
    64   70   67 1
    65   71   72 ar
    66   72   73 1
    67   74   72 ar
    68   75   74 1
    69   76   74 ar
    70   77   76 ar
    71   78   77 1
    72   79   71 ar
    73   80   79 1
    74   81   76 1
    75   82   58 1
    76   83   59 1
    77   84   81 3
    78   85   55 1
    79   86   58 2
    80    9   11 ar
    81   18   40 1
    82   20   40 1
    83   26   28 ar
    84   39   42 1
    85   52   54 ar
    86   60   82 1
    87   60   83 1
    88   71   83 1
    89   77   79 ar
    90   82   85 1
@<TRIPOS>SUBSTRUCTURE
     1 RES1 1
     2 RES2 44

@<TRIPOS>CRYSIN
   9.5770   12.6160   15.3260  67.1510  85.1420  85.6750   2 1

