# MOL2 file generated by ConQuest
# Please check atom types

@<TRIPOS>MOLECULE
GEYNON
    21    22     1
SMALL
NO_CHARGES
****
Generated from CSD

@<TRIPOS>ATOM
      1 O1         2.2760    1.3291    1.9469 O.3       1 RES1    0.0000
      2 C1         2.7594    1.4364    0.6167 C.3       1 RES1    0.0000
      3 O2         3.0976    0.1529    0.0804 O.3       1 RES1    0.0000
      4 C2         3.9711   -0.5876    0.8148 C.2       1 RES1    0.0000
      5 C3         4.0771   -0.2008    2.2329 C.ar      1 RES1    0.0000
      6 C4         3.1739    0.7290    2.7498 C.ar      1 RES1    0.0000
      7 C5         3.2110    1.0143    4.1217 C.ar      1 RES1    0.0000
      8 C6         4.0952    0.3833    4.9633 C.ar      1 RES1    0.0000
      9 C7         4.9411   -0.5647    4.4211 C.ar      1 RES1    0.0000
     10 C8         4.9634   -0.8602    3.0686 C.ar      1 RES1    0.0000
     11 N1         5.8369   -1.2858    5.3223 N.pl3     1 RES1    0.0000
     12 O3         6.7719   -1.8962    4.8308 O.2       1 RES1    0.0000
     13 O4         5.6090   -1.2310    6.5185 O.2       1 RES1    0.0000
     14 N2         2.3269    2.0411    4.6863 N.pl3     1 RES1    0.0000
     15 O5         2.8283    2.8306    5.4653 O.2       1 RES1    0.0000
     16 O6         1.1608    2.0479    4.3362 O.2       1 RES1    0.0000
     17 O7         4.5340   -1.5163    0.3128 O.2       1 RES1    0.0000
     18 H1         5.6132   -1.5128    2.6351 H         1 RES1    0.0000
     19 H2         4.1100    0.6229    5.8854 H         1 RES1    0.0000
     20 H3         3.6192    2.0365    0.7076 H         1 RES1    0.0000
     21 H4         1.9771    1.7992    0.1415 H         1 RES1    0.0000
@<TRIPOS>BOND
     1    1    2 1
     2    2    3 1
     3    3    4 1
     4    4    5 1
     5    5    6 ar
     6    6    1 1
     7    7    6 ar
     8    8    7 ar
     9    9    8 ar
    10   10    5 ar
    11   11    9 1
    12   12   11 2
    13   13   11 2
    14   14    7 1
    15   15   14 2
    16   16   14 2
    17   17    4 2
    18   18   10 1
    19   19    8 1
    20   20    2 1
    21   21    2 1
    22    9   10 ar
@<TRIPOS>SUBSTRUCTURE
     1 RES1 1

@<TRIPOS>CRYSIN
  10.6010   11.4090   14.8960  90.0000  90.0000  90.0000  61 1

