# MOL2 file generated by ConQuest
# Please check atom types

@<TRIPOS>MOLECULE
GEYPEF
    54    57     1
SMALL
NO_CHARGES
****
Generated from CSD

@<TRIPOS>ATOM
      1 N1         5.4645   -0.4698   -0.7173 N.pl3     1 RES1    0.0000
      2 H1         5.2313   -1.0292   -1.2757 H         1 RES1    0.0000
      3 C1         4.4773    0.0473    0.1056 C.2       1 RES1    0.0000
      4 H2         3.6222   -0.2794    0.0742 H         1 RES1    0.0000
      5 C2         4.9372    1.1442    0.7344 C.2       1 RES1    0.0000
      6 C3         6.2659    1.3472    0.2836 C.ar      1 RES1    0.0000
      7 C4         7.2420    2.3092    0.5642 C.ar      1 RES1    0.0000
      8 H3         7.0395    3.1017    1.2695 H         1 RES1    0.0000
      9 C5         8.4770    2.2294   -0.0775 C.ar      1 RES1    0.0000
     10 H4         9.2313    2.9774    0.1179 H         1 RES1    0.0000
     11 C6         8.7381    1.2005   -0.9575 C.ar      1 RES1    0.0000
     12 H5         9.7099    1.1490   -1.4259 H         1 RES1    0.0000
     13 C7         7.7955    0.2418   -1.2623 C.ar      1 RES1    0.0000
     14 H6         8.0150   -0.5570   -1.9553 H         1 RES1    0.0000
     15 C8         6.5598    0.3433   -0.6350 C.ar      1 RES1    0.0000
     16 C9         4.1918    1.9311    1.7920 C.3       1 RES1    0.0000
     17 H7         4.1965    2.9770    1.5229 H         1 RES1    0.0000
     18 H8         3.1730    1.5757    1.8381 H         1 RES1    0.0000
     19 C10        4.8381    1.7685    3.1665 C.3       1 RES1    0.0000
     20 H9         5.8754    2.0618    3.1009 H         1 RES1    0.0000
     21 H10        4.7752    0.7310    3.4603 H         1 RES1    0.0000
     22 N2         4.1782    2.5878    4.1911 N.3       1 RES1    0.0000
     23 C11        2.9231    1.9243    4.6122 C.3       1 RES1    0.0000
     24 H11        2.3439    1.6959    3.7297 H         1 RES1    0.0000
     25 H12        3.1794    1.0074    5.1219 H         1 RES1    0.0000
     26 C12        5.0805    2.8628    5.3429 C.3       1 RES1    0.0000
     27 H13        4.8923    2.1365    6.1196 H         1 RES1    0.0000
     28 H14        6.1054    2.7793    5.0126 H         1 RES1    0.0000
     29 C13        2.0667    2.7706    5.5376 C.ar      1 RES1    0.0000
     30 C14        4.8551    4.2461    5.9009 C.ar      1 RES1    0.0000
     31 C15        1.4970    3.9768    5.2042 C.ar      1 RES1    0.0000
     32 C16        4.9094    5.4020    5.1127 C.ar      1 RES1    0.0000
     33 C17        0.7594    4.7457    6.0824 C.ar      1 RES1    0.0000
     34 H15        0.3302    5.6890    5.7785 H         1 RES1    0.0000
     35 C18        4.6696    6.6574    5.6218 C.ar      1 RES1    0.0000
     36 H16        4.6819    7.5268    4.9812 H         1 RES1    0.0000
     37 C19        0.5926    4.2612    7.3582 C.ar      1 RES1    0.0000
     38 H17        0.0288    4.8377    8.0767 H         1 RES1    0.0000
     39 C20        4.4178    6.7908    6.9436 C.ar      1 RES1    0.0000
     40 H18        4.2634    7.7748    7.3614 H         1 RES1    0.0000
     41 C21        1.1332    3.0684    7.7293 C.ar      1 RES1    0.0000
     42 H19        0.9835    2.6962    8.7320 H         1 RES1    0.0000
     43 C22        4.3539    5.6837    7.7750 C.ar      1 RES1    0.0000
     44 H20        4.1470    5.7965    8.8290 H         1 RES1    0.0000
     45 C23        1.8679    2.3392    6.8295 C.ar      1 RES1    0.0000
     46 H21        2.2960    1.3975    7.1396 H         1 RES1    0.0000
     47 C24        4.5578    4.4233    7.2239 C.ar      1 RES1    0.0000
     48 H22        4.4828    3.5563    7.8636 H         1 RES1    0.0000
     49 N3         1.6011    4.5187    3.8314 N.pl3     1 RES1    0.0000
     50 N4         5.2581    5.3123    3.6862 N.pl3     1 RES1    0.0000
     51 O1         1.6125    3.7721    2.8881 O.2       1 RES1    0.0000
     52 O2         6.2048    4.6127    3.3670 O.2       1 RES1    0.0000
     53 O3         1.6596    5.7291    3.7278 O.2       1 RES1    0.0000
     54 O4         4.6104    5.9539    2.8722 O.2       1 RES1    0.0000
@<TRIPOS>BOND
     1    1    2 1
     2    3    1 1
     3    4    3 1
     4    5    3 2
     5    6    5 1
     6    7    6 ar
     7    8    7 1
     8    9    7 ar
     9   10    9 1
    10   11    9 ar
    11   12   11 1
    12   13   11 ar
    13   14   13 1
    14   15    1 1
    15   16    5 1
    16   17   16 1
    17   18   16 1
    18   19   16 1
    19   20   19 1
    20   21   19 1
    21   22   19 1
    22   23   22 1
    23   24   23 1
    24   25   23 1
    25   26   22 1
    26   27   26 1
    27   28   26 1
    28   29   23 1
    29   30   26 1
    30   31   29 ar
    31   32   30 ar
    32   33   31 ar
    33   34   33 1
    34   35   32 ar
    35   36   35 1
    36   37   33 ar
    37   38   37 1
    38   39   35 ar
    39   40   39 1
    40   41   37 ar
    41   42   41 1
    42   43   39 ar
    43   44   43 1
    44   45   29 ar
    45   46   45 1
    46   47   30 ar
    47   48   47 1
    48   49   31 1
    49   50   32 1
    50   51   49 2
    51   52   50 2
    52   53   49 2
    53   54   50 2
    54    6   15 ar
    55   13   15 ar
    56   41   45 ar
    57   43   47 ar
@<TRIPOS>SUBSTRUCTURE
     1 RES1 1

@<TRIPOS>CRYSIN
   7.6890   14.0410   10.4380  90.0000 106.2500  90.0000   4 1

