# MOL2 file generated by ConQuest
# Please check atom types

@<TRIPOS>MOLECULE
GEYREK
    25    27     1
SMALL
NO_CHARGES
****
Generated from CSD

@<TRIPOS>ATOM
      1 O1         6.8251    7.3173    4.4409 O.2       1 RES1    0.0000
      2 O2         6.4351    8.0669    2.4484 O.2       1 RES1    0.0000
      3 N1         6.3282    7.2321    3.3327 N.pl3     1 RES1    0.0000
      4 C1         5.5304    6.0498    3.0540 C.2       1 RES1    0.0000
      5 N2         4.9168    5.9154    1.9008 N.2       1 RES1    0.0000
      6 N3         4.3174    4.7163    2.0585 N.pl3     1 RES1    0.0000
      7 C2         3.5066    4.1481    0.9669 C.3       1 RES1    0.0000
      8 H1         3.8281    4.4948    0.1196 H         1 RES1    0.0000
      9 H2         2.5854    4.4334    1.0745 H         1 RES1    0.0000
     10 C3         3.5553    2.6451    0.9340 C.3       1 RES1    0.0000
     11 H3         3.2613    2.3476    0.0583 H         1 RES1    0.0000
     12 H4         4.4779    2.3662    1.0415 H         1 RES1    0.0000
     13 C4         2.7286    1.9546    1.9697 C.3       1 RES1    0.0000
     14 H5         1.8304    2.3198    1.9507 H         1 RES1    0.0000
     15 H6         2.6689    1.0116    1.7475 H         1 RES1    0.0000
     16 N4         3.2704    2.0912    3.3315 N.pl3     1 RES1    0.0000
     17 N5         2.9454    1.1628    4.2580 N.2       1 RES1    0.0000
     18 C5         3.6157    1.6032    5.2993 C.2       1 RES1    0.0000
     19 N6         3.5637    0.8906    6.5651 N.pl3     1 RES1    0.0000
     20 O3         2.8234   -0.0761    6.6263 O.2       1 RES1    0.0000
     21 O4         4.2734    1.2919    7.4642 O.2       1 RES1    0.0000
     22 N7         4.3372    2.7083    5.1567 N.2       1 RES1    0.0000
     23 C6         4.0931    3.0086    3.8824 C.2       1 RES1    0.0000
     24 C7         4.6050    4.2299    3.2828 C.2       1 RES1    0.0000
     25 N8         5.3880    5.0714    3.9492 N.2       1 RES1    0.0000
@<TRIPOS>BOND
     1    1    3 2
     2    2    3 2
     3    3    4 1
     4    4    5 2
     5    5    6 1
     6    6    7 1
     7    7    8 1
     8    9    7 1
     9   10    7 1
    10   11   10 1
    11   12   10 1
    12   13   10 1
    13   14   13 1
    14   15   13 1
    15   16   13 1
    16   17   16 1
    17   18   17 2
    18   19   18 1
    19   20   19 2
    20   21   19 2
    21   22   18 1
    22   23   16 1
    23   24    6 1
    24   25    4 1
    25   22   23 2
    26   23   24 1
    27   24   25 2
@<TRIPOS>SUBSTRUCTURE
     1 RES1 1

@<TRIPOS>CRYSIN
   9.6012   11.5875    9.7940  90.0000  96.8370  90.0000 231 1

