# MOL2 file generated by ConQuest
# Please check atom types

@<TRIPOS>MOLECULE
GEYWOW
    32    33     1
SMALL
NO_CHARGES
****
Generated from CSD

@<TRIPOS>ATOM
      1 O1         4.1437    4.3751    3.1406 O.2       1 RES1    0.0000
      2 O2         1.5567    0.6210    5.9969 O.2       1 RES1    0.0000
      3 O3         2.5736    2.2723    0.9487 O.2       1 RES1    0.0000
      4 O4         7.3795    1.3806    1.0526 O.3       1 RES1    0.0000
      5 N1         3.4926    3.4931    3.8132 N.pl3     1 RES1    0.0000
      6 N2         2.1207    1.5529    5.2805 N.pl3     1 RES1    0.0000
      7 N3         4.6825    1.7481    1.5662 N.am      1 RES1    0.0000
      8 C1         3.1061    2.3301    3.2629 C.2       1 RES1    0.0000
      9 C2         2.4022    1.3520    3.9772 C.2       1 RES1    0.0000
     10 C3         2.4370    2.7796    5.8716 C.ar      1 RES1    0.0000
     11 C4         3.1434    3.7496    5.1460 C.ar      1 RES1    0.0000
     12 C5         3.4995    4.9596    5.7442 C.ar      1 RES1    0.0000
     13 C6         3.1387    5.1973    7.0394 C.ar      1 RES1    0.0000
     14 C7         2.4086    4.2492    7.7618 C.ar      1 RES1    0.0000
     15 C8         2.0563    3.0478    7.1983 C.ar      1 RES1    0.0000
     16 C9         3.4412    2.1260    1.8006 C.2       1 RES1    0.0000
     17 C10        5.1835    1.4434    0.2242 C.3       1 RES1    0.0000
     18 C11        6.5827    1.9617    0.0438 C.3       1 RES1    0.0000
     19 C12        1.9598    0.0667    3.3689 C.3       1 RES1    0.0000
     20 H1         8.1873    1.6637    1.0078 H         1 RES1    0.0000
     21 H2         5.2009    1.6873    2.2184 H         1 RES1    0.0000
     22 H3         3.9940    5.6179    5.2500 H         1 RES1    0.0000
     23 H4         3.3888    6.0243    7.4582 H         1 RES1    0.0000
     24 H5         2.1469    4.4418    8.6657 H         1 RES1    0.0000
     25 H6         1.5583    2.4003    7.7027 H         1 RES1    0.0000
     26 H7         5.1810    0.4919    0.0968 H         1 RES1    0.0000
     27 H8         4.6089    1.8542   -0.4270 H         1 RES1    0.0000
     28 H9         6.5919    2.9179    0.1264 H         1 RES1    0.0000
     29 H10        6.9161    1.7124   -0.8213 H         1 RES1    0.0000
     30 H11        2.2184    0.0446    2.4446 H         1 RES1    0.0000
     31 H12        1.0051   -0.0068    3.4361 H         1 RES1    0.0000
     32 H13        2.3712   -0.6651    3.8346 H         1 RES1    0.0000
@<TRIPOS>BOND
     1    1    5 1
     2    2    6 1
     3    3   16 2
     4    4   18 1
     5    5    8 2
     6    6    9 2
     7    7   16 1
     8    8    9 1
     9    9   19 1
    10   10    6 1
    11   11    5 1
    12   12   11 ar
    13   13   12 ar
    14   14   13 ar
    15   15   10 ar
    16   16    8 1
    17   17    7 1
    18   18   17 1
    19   19   30 1
    20   20    4 1
    21   21    7 1
    22   22   12 1
    23   23   13 1
    24   24   14 1
    25   25   15 1
    26   26   17 1
    27   27   17 1
    28   28   18 1
    29   29   18 1
    30   31   19 1
    31   32   19 1
    32   10   11 ar
    33   14   15 ar
@<TRIPOS>SUBSTRUCTURE
     1 RES1 1

@<TRIPOS>CRYSIN
   7.4690    8.1110   10.3570  80.1100  88.9000  67.7300   2 1

