# MOL2 file generated by ConQuest
# Please check atom types

@<TRIPOS>MOLECULE
GEYWIQ
    20    21     1
SMALL
NO_CHARGES
****
Generated from CSD

@<TRIPOS>ATOM
      1 O1         1.9665    5.1703    7.7878 O.3       1 RES1    0.0000
      2 C1         1.8064    4.3754    8.9701 C.3       1 RES1    0.0000
      3 O2         2.3835    4.9793   10.0646 O.3       1 RES1    0.0000
      4 C2         1.6477    6.1503   10.4324 C.3       1 RES1    0.0000
      5 C3         1.4003    7.0011    9.2204 C.ar      1 RES1    0.0000
      6 C4         1.5961    6.4705    7.9525 C.ar      1 RES1    0.0000
      7 C5         1.4432    7.2403    6.8184 C.ar      1 RES1    0.0000
      8 C6         1.0488    8.5541    6.9216 C.ar      1 RES1    0.0000
      9 C7         0.8239    9.0711    8.1830 C.ar      1 RES1    0.0000
     10 C8         1.0051    8.3226    9.3280 C.ar      1 RES1    0.0000
     11 N1         0.3537   10.4524    8.3082 N.pl3     1 RES1    0.0000
     12 O3         0.1405   11.0871    7.2905 O.2       1 RES1    0.0000
     13 O4         0.1907   10.9135    9.4290 O.2       1 RES1    0.0000
     14 H1         2.2576    3.4764    8.7736 H         1 RES1    0.0000
     15 H2         0.8428    4.1536    9.1008 H         1 RES1    0.0000
     16 H3         2.1405    6.6172   11.1921 H         1 RES1    0.0000
     17 H4         0.8573    5.9400   10.8693 H         1 RES1    0.0000
     18 H5         0.8675    8.7200   10.2227 H         1 RES1    0.0000
     19 H6         0.9578    9.1232    6.1158 H         1 RES1    0.0000
     20 H7         1.6048    6.8217    5.9358 H         1 RES1    0.0000
@<TRIPOS>BOND
     1    1    2 1
     2    2    3 1
     3    3    4 1
     4    4    5 1
     5    5    6 ar
     6    6    1 1
     7    7    6 ar
     8    8    7 ar
     9    9    8 ar
    10   10    5 ar
    11   11    9 1
    12   12   11 2
    13   13   11 2
    14   14    2 1
    15   15    2 1
    16   16    4 1
    17   17    4 1
    18   18   10 1
    19   19    8 1
    20   20    7 1
    21    9   10 ar
@<TRIPOS>SUBSTRUCTURE
     1 RES1 1

@<TRIPOS>CRYSIN
   7.2780   19.2920   10.9780  90.0000  90.0000  90.0000  61 1

