# MOL2 file generated by ConQuest
# Please check atom types

@<TRIPOS>MOLECULE
GEZBIZ
    41    44     1
SMALL
NO_CHARGES
****
Generated from CSD

@<TRIPOS>ATOM
      1 C1         3.6650   14.2424    1.2751 C.3       1 RES1    0.0000
      2 C2         4.3549   14.8792    2.5011 C.3       1 RES1    0.0000
      3 H1         5.2336   15.2381    2.2588 H         1 RES1    0.0000
      4 C3         3.0272   16.8579    2.2535 C.ar      1 RES1    0.0000
      5 C4         2.6917   18.0834    2.8249 C.ar      1 RES1    0.0000
      6 H2         2.7770   18.2103    3.7419 H         1 RES1    0.0000
      7 C5         2.2352   19.1037    2.0279 C.ar      1 RES1    0.0000
      8 H3         2.0091   19.9260    2.3995 H         1 RES1    0.0000
      9 C6         2.1156   18.8938    0.6581 C.ar      1 RES1    0.0000
     10 C7         2.3733   17.6713    0.0802 C.ar      1 RES1    0.0000
     11 H4         2.2497   17.5439   -0.8324 H         1 RES1    0.0000
     12 C8         2.8232   16.6260    0.8886 C.ar      1 RES1    0.0000
     13 C9         3.1173   15.3122    0.2980 C.2       1 RES1    0.0000
     14 C10        4.6738   13.4665    0.5352 C.1       1 RES1    0.0000
     15 C11        2.6081   13.2734    1.9847 C.3       1 RES1    0.0000
     16 C12        3.3751   12.9651    3.3066 C.3       1 RES1    0.0000
     17 H5         2.7782   13.0629    4.0644 H         1 RES1    0.0000
     18 H6         3.7027   12.0516    3.2925 H         1 RES1    0.0000
     19 C13        1.3295   14.0527    2.2856 C.2       1 RES1    0.0000
     20 H7         1.3489   14.6246    3.0190 H         1 RES1    0.0000
     21 C14        0.2115   13.9940    1.6121 C.2       1 RES1    0.0000
     22 H8         0.1435   13.4372    0.8705 H         1 RES1    0.0000
     23 H9        -0.5166   14.5101    1.8739 H         1 RES1    0.0000
     24 C15        2.2869   11.9969    1.2102 C.ar      1 RES1    0.0000
     25 C16        2.0411   10.8170    1.9142 C.ar      1 RES1    0.0000
     26 H10        2.1275   10.8099    2.8402 H         1 RES1    0.0000
     27 C17        1.6701    9.6541    1.2557 C.ar      1 RES1    0.0000
     28 H11        1.5100    8.8784    1.7420 H         1 RES1    0.0000
     29 C18        1.5383    9.6438   -0.1211 C.ar      1 RES1    0.0000
     30 H12        1.3040    8.8607   -0.5647 H         1 RES1    0.0000
     31 C19        1.7583   10.8117   -0.8317 C.ar      1 RES1    0.0000
     32 H13        1.6605   10.8143   -1.7567 H         1 RES1    0.0000
     33 C20        2.1244   11.9822   -0.1749 C.ar      1 RES1    0.0000
     34 H14        2.2620   12.7620   -0.6634 H         1 RES1    0.0000
     35 N1         5.4753   12.9077   -0.0559 N.1       1 RES1    0.0000
     36 N2         1.7443   20.0250   -0.2009 N.pl3     1 RES1    0.0000
     37 O1         1.4398   21.0795    0.3401 O.2       1 RES1    0.0000
     38 O2         1.7724   19.8584   -1.4144 O.2       1 RES1    0.0000
     39 O3         3.5237   15.9065    3.0880 O.3       1 RES1    0.0000
     40 O4         4.4775   13.8787    3.4324 O.3       1 RES1    0.0000
     41 O5         3.0000   15.0779   -0.8863 O.2       1 RES1    0.0000
@<TRIPOS>BOND
     1    1    2 1
     2    2    3 1
     3    4    5 ar
     4    5    6 1
     5    7    5 ar
     6    8    7 1
     7    9    7 ar
     8   10    9 ar
     9   11   10 1
    10   12    4 ar
    11   13    1 1
    12   14    1 1
    13   15    1 1
    14   16   15 1
    15   17   16 1
    16   18   16 1
    17   19   15 1
    18   20   19 1
    19   21   19 2
    20   22   21 1
    21   23   21 1
    22   24   15 1
    23   25   24 ar
    24   26   25 1
    25   27   25 ar
    26   28   27 1
    27   29   27 ar
    28   30   29 1
    29   31   29 ar
    30   32   31 1
    31   33   24 ar
    32   34   33 1
    33   35   14 3
    34   36    9 1
    35   37   36 2
    36   38   36 2
    37   39    2 1
    38   40    2 1
    39   41   13 2
    40    4   39 1
    41   10   12 ar
    42   12   13 1
    43   16   40 1
    44   31   33 ar
@<TRIPOS>SUBSTRUCTURE
     1 RES1 1

@<TRIPOS>CRYSIN
  11.4782   14.6774   10.8540  90.0000 115.8240  90.0000  14 1

