# MOL2 file generated by ConQuest
# Please check atom types

@<TRIPOS>MOLECULE
GEZBEV
    41    44     1
SMALL
NO_CHARGES
****
Generated from CSD

@<TRIPOS>ATOM
      1 C1         2.3589   14.4491   11.1469 C.3       1 RES1    0.0000
      2 H1         2.6996   15.1764   11.7068 H         1 RES1    0.0000
      3 C2         0.5274   16.9418    7.1899 C.ar      1 RES1    0.0000
      4 C3         1.8460   16.6151    6.8838 C.ar      1 RES1    0.0000
      5 H2         2.2326   16.9012    6.0876 H         1 RES1    0.0000
      6 C4         2.5654   15.8612    7.7811 C.ar      1 RES1    0.0000
      7 H3         3.4483   15.6354    7.5962 H         1 RES1    0.0000
      8 C5         1.9722   15.4364    8.9658 C.ar      1 RES1    0.0000
      9 C6         0.6437   15.7649    9.2636 C.ar      1 RES1    0.0000
     10 C7        -0.0817   16.5377    8.3579 C.ar      1 RES1    0.0000
     11 H4        -0.9619   16.7772    8.5384 H         1 RES1    0.0000
     12 C8         0.0040   15.3002   10.5039 C.2       1 RES1    0.0000
     13 C9         0.8390   14.3027   11.3291 C.3       1 RES1    0.0000
     14 C10        0.6025   12.7594   10.9401 C.3       1 RES1    0.0000
     15 C11        1.9988   12.1712   11.2602 C.3       1 RES1    0.0000
     16 H5         1.9410   11.5830   12.0292 H         1 RES1    0.0000
     17 H6         2.3203   11.6542   10.5046 H         1 RES1    0.0000
     18 C12        0.5261   14.5132   12.7536 C.1       1 RES1    0.0000
     19 C13       -0.4836   12.1641   11.8187 C.2       1 RES1    0.0000
     20 H7        -1.2621   12.6620   11.9259 H         1 RES1    0.0000
     21 C14       -0.4212   11.0079   12.4426 C.2       1 RES1    0.0000
     22 H8         0.3388   10.4783   12.3640 H         1 RES1    0.0000
     23 H9        -1.1372   10.7206   12.9625 H         1 RES1    0.0000
     24 C15        0.1827   12.6563    9.4625 C.ar      1 RES1    0.0000
     25 C16       -1.1512   12.8711    9.1065 C.ar      1 RES1    0.0000
     26 H10       -1.7869   12.9813    9.7762 H         1 RES1    0.0000
     27 C17       -1.5511   12.9244    7.7807 C.ar      1 RES1    0.0000
     28 H11       -2.4446   13.0754    7.5730 H         1 RES1    0.0000
     29 C18       -0.6297   12.7542    6.7678 C.ar      1 RES1    0.0000
     30 H12       -0.8908   12.8088    5.8775 H         1 RES1    0.0000
     31 C19        0.6802   12.5019    7.0989 C.ar      1 RES1    0.0000
     32 H13        1.3033   12.3698    6.4225 H         1 RES1    0.0000
     33 C20        1.0921   12.4409    8.4263 C.ar      1 RES1    0.0000
     34 H14        1.9815   12.2558    8.6256 H         1 RES1    0.0000
     35 N1         0.2830   14.6787   13.8557 N.1       1 RES1    0.0000
     36 N2        -0.2451   17.7443    6.2433 N.pl3     1 RES1    0.0000
     37 O1         0.2996   18.1111    5.2085 O.2       1 RES1    0.0000
     38 O2        -1.4083   18.0279    6.5341 O.2       1 RES1    0.0000
     39 O3         2.7340   14.6602    9.7723 O.3       1 RES1    0.0000
     40 O4        -1.0937   15.6503   10.8694 O.2       1 RES1    0.0000
     41 O5         2.9066   13.2510   11.5368 O.3       1 RES1    0.0000
@<TRIPOS>BOND
     1    1    2 1
     2    3    4 ar
     3    4    5 1
     4    6    4 ar
     5    7    6 1
     6    8    6 ar
     7    9    8 ar
     8   10    3 ar
     9   11   10 1
    10   12    9 1
    11   13    1 1
    12   14   13 1
    13   15   14 1
    14   16   15 1
    15   17   15 1
    16   18   13 1
    17   19   14 1
    18   20   19 1
    19   21   19 2
    20   22   21 1
    21   23   21 1
    22   24   14 1
    23   25   24 ar
    24   26   25 1
    25   27   25 ar
    26   28   27 1
    27   29   27 ar
    28   30   29 1
    29   31   29 ar
    30   32   31 1
    31   33   24 ar
    32   34   33 1
    33   35   18 3
    34   36    3 1
    35   37   36 2
    36   38   36 2
    37   39    1 1
    38   40   12 2
    39   41    1 1
    40    8   39 1
    41    9   10 ar
    42   12   13 1
    43   15   41 1
    44   31   33 ar
@<TRIPOS>SUBSTRUCTURE
     1 RES1 1

@<TRIPOS>CRYSIN
   6.6428   14.2542   17.8105  90.0000  90.0000  90.0000  19 1

