# MOL2 file generated by ConQuest
# Please check atom types

@<TRIPOS>MOLECULE
GEZGAT
    26    26     1
SMALL
NO_CHARGES
****
Generated from CSD

@<TRIPOS>ATOM
      1 C1        -7.6873   -2.0125    8.7682 C.2       1 RES1    0.0000
      2 C2        -7.0747   -1.1438    7.9923 C.2       1 RES1    0.0000
      3 C3        -6.8081    0.2752    8.3980 C.3       1 RES1    0.0000
      4 C4        -6.8655    0.3273    9.9384 C.3       1 RES1    0.0000
      5 C5        -8.1627   -0.2491   10.4734 C.3       1 RES1    0.0000
      6 C6        -8.3682   -1.7361   10.0817 C.3       1 RES1    0.0000
      7 C7        -5.5057    0.8199    7.7907 C.3       1 RES1    0.0000
      8 C8        -5.5569    0.8935    6.2706 C.3       1 RES1    0.0000
      9 C9        -4.3104   -0.0181    8.2370 C.3       1 RES1    0.0000
     10 C10       -9.8460   -2.0747   10.0880 C.3       1 RES1    0.0000
     11 N1        -7.7318   -3.4190    8.3042 N.pl3     1 RES1    0.0000
     12 O1        -8.0445   -4.2627    9.1295 O.2       1 RES1    0.0000
     13 O2        -7.4181   -3.6580    7.1543 O.2       1 RES1    0.0000
     14 N2        -7.9835    1.1529    7.8883 N.pl3     1 RES1    0.0000
     15 O3        -9.0610    0.6082    7.7020 O.2       1 RES1    0.0000
     16 O4        -7.7794    2.3330    7.7451 O.2       1 RES1    0.0000
     17 N3        -6.6905    1.7373   10.4367 N.pl3     1 RES1    0.0000
     18 O5        -5.5495    2.1132   10.6243 O.2       1 RES1    0.0000
     19 O6        -7.6929    2.4009   10.6053 O.2       1 RES1    0.0000
     20 O7        -8.1335   -0.1427   11.8997 O.3       1 RES1    0.0000
     21 N4        -9.2484    0.5957   12.4931 N.pl3     1 RES1    0.0000
     22 O8        -9.0727    0.7554   13.6518 O.2       1 RES1    0.0000
     23 O9       -10.1377    0.9207   11.7805 O.2       1 RES1    0.0000
     24 N5        -7.6287   -2.5425   11.1695 N.pl3     1 RES1    0.0000
     25 O10       -8.2771   -3.1846   11.9568 O.2       1 RES1    0.0000
     26 O11       -6.4151   -2.4417   11.1707 O.2       1 RES1    0.0000
@<TRIPOS>BOND
     1    1    2 2
     2    2    3 1
     3    3    4 1
     4    4    5 1
     5    5    6 1
     6    6    1 1
     7    7    3 1
     8    8    7 1
     9    9    7 1
    10   10    6 1
    11   11    1 1
    12   12   11 2
    13   13   11 2
    14   14    3 1
    15   15   14 2
    16   16   14 2
    17   17    4 1
    18   18   17 2
    19   19   17 2
    20   20    5 1
    21   21   20 1
    22   22   21 2
    23   23   21 2
    24   24    6 1
    25   25   24 2
    26   26   24 2
@<TRIPOS>SUBSTRUCTURE
     1 RES1 1

@<TRIPOS>CRYSIN
  10.6700   11.3250   14.2660  90.0000 117.2900  90.0000  14 1

