# MOL2 file generated by ConQuest
# Please check atom types

@<TRIPOS>MOLECULE
GEZMOP
   142   136     3
SMALL
NO_CHARGES
****
Generated from CSD

@<TRIPOS>ATOM
      1 N1         8.3691    1.6978    0.0921 N.am      1 RES1    0.0000
      2 N2         6.6585    1.6203    3.1210 N.2       1 RES1    0.0000
      3 O1         8.1209    3.5034    1.5039 O.2       1 RES1    0.0000
      4 O2         5.9682    0.5141    3.6394 O.3       1 RES1    0.0000
      5 O3         5.1350   -2.6839    6.2405 O.2       1 RES1    0.0000
      6 O4         6.7551   -1.7039    5.2583 O.3       1 RES1    0.0000
      7 C1         7.9445    2.3338    1.2260 C.2       1 RES1    0.0000
      8 C2         7.2272    1.2744    2.0268 C.2       1 RES1    0.0000
      9 C3         7.3413    0.0294    1.2784 C.ar      1 RES1    0.0000
     10 C4         8.0305    0.3431    0.1134 C.ar      1 RES1    0.0000
     11 C5         8.3121   -0.6123   -0.8490 C.ar      1 RES1    0.0000
     12 H1         8.7791   -0.3979   -1.6243 H         1 RES1    0.0000
     13 C6         7.8666   -1.8997   -0.6038 C.ar      1 RES1    0.0000
     14 H2         8.0501   -2.5673   -1.2246 H         1 RES1    0.0000
     15 C7         7.1558   -2.2187    0.5414 C.ar      1 RES1    0.0000
     16 H3         6.8551   -3.0890    0.6676 H         1 RES1    0.0000
     17 C8         6.8891   -1.2587    1.4995 C.ar      1 RES1    0.0000
     18 H4         6.4171   -1.4720    2.2720 H         1 RES1    0.0000
     19 C9         9.0279    2.3693   -1.0091 C.3       1 RES1    0.0000
     20 H5         8.9089    3.3271   -0.9071 H         1 RES1    0.0000
     21 H6         8.5989    2.1073   -1.8383 H         1 RES1    0.0000
     22 C10       10.5118    2.0713   -1.1140 C.ar      1 RES1    0.0000
     23 C11       11.1029    1.9792   -2.3343 C.ar      1 RES1    0.0000
     24 H7        10.5832    2.0376   -3.1039 H         1 RES1    0.0000
     25 C12       12.4724    1.8018   -2.4421 C.ar      1 RES1    0.0000
     26 H8        12.8688    1.7485   -3.2811 H         1 RES1    0.0000
     27 C13       13.2387    1.7059   -1.3167 C.ar      1 RES1    0.0000
     28 H9        14.1591    1.5935   -1.3847 H         1 RES1    0.0000
     29 C14       12.6492    1.7747   -0.1006 C.ar      1 RES1    0.0000
     30 H10       13.1695    1.7028    0.6676 H         1 RES1    0.0000
     31 C15       11.2927    1.9490    0.0113 C.ar      1 RES1    0.0000
     32 H11       10.8988    1.9858    0.8532 H         1 RES1    0.0000
     33 C16        5.4955    0.7207    4.9224 C.2       1 RES1    0.0000
     34 C17        5.6842    1.7828    5.6608 C.2       1 RES1    0.0000
     35 H12        6.1797    2.4984    5.3292 H         1 RES1    0.0000
     36 H13        5.3227    1.8254    6.5169 H         1 RES1    0.0000
     37 C18        4.7549   -0.4987    5.3462 C.2       1 RES1    0.0000
     38 C19        3.4351   -0.5936    5.4766 C.2       1 RES1    0.0000
     39 H14        3.1531   -1.3890    5.8706 H         1 RES1    0.0000
     40 C20        2.3316    0.3140    5.1208 C.ar      1 RES1    0.0000
     41 C21        2.4907    1.4922    4.3526 C.ar      1 RES1    0.0000
     42 H15        3.3405    1.7550    4.0833 H         1 RES1    0.0000
     43 C22        1.4143    2.2367    4.0054 C.ar      1 RES1    0.0000
     44 H16        1.5411    3.0038    3.4951 H         1 RES1    0.0000
     45 C23        0.1086    1.8835    4.3965 C.ar      1 RES1    0.0000
     46 C24       -0.0840    0.7094    5.1534 C.ar      1 RES1    0.0000
     47 C25        1.0633   -0.0523    5.4836 C.ar      1 RES1    0.0000
     48 H17        0.9505   -0.8373    5.9698 H         1 RES1    0.0000
     49 C26       -1.0397    2.6462    4.0592 C.ar      1 RES1    0.0000
     50 H18       -0.9329    3.4311    3.5731 H         1 RES1    0.0000
     51 C27       -2.2824    2.2628    4.4221 C.ar      1 RES1    0.0000
     52 H19       -3.0152    2.7854    4.1910 H         1 RES1    0.0000
     53 C28       -2.4686    1.0817    5.1463 C.ar      1 RES1    0.0000
     54 H20       -3.3259    0.8104    5.3873 H         1 RES1    0.0000
     55 C29       -1.3832    0.3233    5.5021 C.ar      1 RES1    0.0000
     56 H21       -1.5127   -0.4617    5.9840 H         1 RES1    0.0000
     57 C30        5.5552   -1.7009    5.7005 C.2       1 RES1    0.0000
     58 C31        7.6266   -2.8350    5.5049 C.3       1 RES1    0.0000
     59 H22        7.1458   -3.6646    5.3660 H         1 RES1    0.0000
     60 H23        7.9546   -2.8158    6.4177 H         1 RES1    0.0000
     61 C32        8.7699   -2.7281    4.5397 C.3       1 RES1    0.0000
     62 H24        8.4590   -2.9273    3.6525 H         1 RES1    0.0000
     63 H25        9.4554   -3.3526    4.7863 H         1 RES1    0.0000
     64 H26        9.1252   -1.8361    4.5610 H         1 RES1    0.0000
     65 O5         6.8849   -1.4169    5.4284 Du        3 SUP3    0.0000
     66 C33        7.8523   -2.4351    5.8068 Du        3 SUP3    0.0000
     67 H27        7.4846   -2.9897    6.5126 Du        3 SUP3    0.0000
     68 H28        8.6640   -2.0175    6.1370 Du        3 SUP3    0.0000
     69 C34        8.1612   -3.2725    4.6063 Du        3 SUP3    0.0000
     70 H29        7.3732   -3.7513    4.3384 Du        3 SUP3    0.0000
     71 H30        8.8573   -3.8967    4.8217 Du        3 SUP3    0.0000
     72 H31        8.4516   -2.7066    3.8863 Du        3 SUP3    0.0000
     73 N3         4.4355    4.3106   14.0188 N.am      2 RES2    0.0000
     74 N4         6.1004    4.2411   10.9630 N.2       2 RES2    0.0000
     75 O6         4.5858    6.0872   12.5759 O.2       2 RES2    0.0000
     76 O7         6.8240    3.1529   10.4661 O.3       2 RES2    0.0000
     77 O8         7.7852   -0.2272    8.2588 O.2       2 RES2    0.0000
     78 O9         6.0266    0.9348    8.9846 O.3       2 RES2    0.0000
     79 C35        4.8083    4.9357   12.8736 C.2       2 RES2    0.0000
     80 C36        5.5589    3.8986   12.0785 C.2       2 RES2    0.0000
     81 C37        5.5189    2.6567   12.8467 C.ar      2 RES2    0.0000
     82 C38        4.8267    2.9640   14.0131 C.ar      2 RES2    0.0000
     83 C39        4.6020    2.0166   14.9826 C.ar      2 RES2    0.0000
     84 H32        4.1270    2.2207   15.7564 H         2 RES2    0.0000
     85 C40        5.1064    0.7431   14.7685 C.ar      2 RES2    0.0000
     86 H33        4.9758    0.0861   15.4134 H         2 RES2    0.0000
     87 C41        5.7948    0.4339   13.6248 C.ar      2 RES2    0.0000
     88 H34        6.1214   -0.4287   13.5043 H         2 RES2    0.0000
     89 C42        6.0126    1.3905   12.6383 C.ar      2 RES2    0.0000
     90 H35        6.4777    1.1796   11.8616 H         2 RES2    0.0000
     91 C43        3.7959    4.9826   15.1300 C.3       2 RES2    0.0000
     92 H36        3.8808    5.9410   15.0052 H         2 RES2    0.0000
     93 H37        4.2650    4.7505   15.9463 H         2 RES2    0.0000
     94 C44        2.3256    4.6430   15.3015 C.ar      2 RES2    0.0000
     95 C45        1.8190    4.3427   16.5331 C.ar      2 RES2    0.0000
     96 H38        2.3892    4.2959   17.2659 H         2 RES2    0.0000
     97 C46        0.4623    4.1061   16.7032 C.ar      2 RES2    0.0000
     98 H39        0.1202    3.9140   17.5465 H         2 RES2    0.0000
     99 C47       -0.3724    4.1588   15.6076 C.ar      2 RES2    0.0000
    100 H40       -1.2850    4.0124   15.7125 H         2 RES2    0.0000
    101 C48        0.1298    4.4218   14.3845 C.ar      2 RES2    0.0000
    102 H41       -0.4352    4.4484   13.6474 H         2 RES2    0.0000
    103 C49        1.4816    4.6507   14.2271 C.ar      2 RES2    0.0000
    104 H42        1.8228    4.8128   13.3767 H         2 RES2    0.0000
    105 C50        7.2664    3.3137    9.1602 C.2       2 RES2    0.0000
    106 C51        7.0492    4.3459    8.3877 C.2       2 RES2    0.0000
    107 H43        6.5523    5.0669    8.7038 H         2 RES2    0.0000
    108 H44        7.3902    4.3597    7.5218 H         2 RES2    0.0000
    109 C52        8.0336    2.1034    8.7789 C.2       2 RES2    0.0000
    110 C53        9.3557    2.0533    8.5720 C.2       2 RES2    0.0000
    111 H45        9.6517    1.2531    8.1992 H         2 RES2    0.0000
    112 C54       10.4227    3.0303    8.8285 C.ar      2 RES2    0.0000
    113 C55       10.3045    4.1121    9.7285 C.ar      2 RES2    0.0000
    114 H46        9.4732    4.3181   10.0900 H         2 RES2    0.0000
    115 C56       11.3868    4.8540   10.0729 C.ar      2 RES2    0.0000
    116 H47       11.2829    5.5491   10.6824 H         2 RES2    0.0000
    117 C57       12.6747    4.6028    9.5301 C.ar      2 RES2    0.0000
    118 C58       12.8070    3.5532    8.5833 C.ar      2 RES2    0.0000
    119 C59       11.6645    2.7759    8.2857 C.ar      2 RES2    0.0000
    120 H48       11.7549    2.0603    7.6989 H         2 RES2    0.0000
    121 C60       13.8304    5.3154    9.9085 C.ar      2 RES2    0.0000
    122 H49       13.7676    5.9971   10.5378 H         2 RES2    0.0000
    123 C61       15.0354    5.0133    9.3600 C.ar      2 RES2    0.0000
    124 H50       15.7882    5.4952    9.6151 H         2 RES2    0.0000
    125 C62       15.1593    3.9950    8.4260 C.ar      2 RES2    0.0000
    126 H51       15.9938    3.7937    8.0688 H         2 RES2    0.0000
    127 C63       14.0702    3.2921    8.0292 C.ar      2 RES2    0.0000
    128 H52       14.1601    2.6304    7.3829 H         2 RES2    0.0000
    129 C64        7.3039    0.8040    8.6329 C.2       2 RES2    0.0000
    130 C65        5.2324   -0.2752    9.0340 C.3       2 RES2    0.0000
    131 H53        5.7373   -0.9750    9.4777 H         2 RES2    0.0000
    132 H54        5.0380   -0.5714    8.1312 H         2 RES2    0.0000
    133 C66        3.9668   -0.0435    9.7611 C.3       2 RES2    0.0000
    134 H55        4.1593    0.1803   10.6753 H         2 RES2    0.0000
    135 H56        3.4312   -0.8392    9.7314 H         2 RES2    0.0000
    136 H57        3.4889    0.6793    9.3487 H         2 RES2    0.0000
    137 H58        5.2592   -0.7378    8.1922 Du        3 SUP3    0.0000
    138 H59        5.5234   -0.8458    9.7498 Du        3 SUP3    0.0000
    139 C67        3.8239    0.1490    9.2027 Du        3 SUP3    0.0000
    140 H60        3.7670    0.7991    9.9029 Du        3 SUP3    0.0000
    141 H61        3.2896   -0.6195    9.4351 Du        3 SUP3    0.0000
    142 H62        3.5022    0.5241    8.3821 Du        3 SUP3    0.0000
@<TRIPOS>BOND
     1    1    7 1
     2    2    4 1
     3    3    7 2
     4    4   33 1
     5    5   57 2
     6    6   57 1
     7    7    8 1
     8    8    2 2
     9    9    8 1
    10   10    1 1
    11   11   10 ar
    12   12   11 1
    13   13   11 ar
    14   14   13 1
    15   15   13 ar
    16   16   15 1
    17   17    9 ar
    18   18   17 1
    19   19    1 1
    20   20   19 1
    21   21   19 1
    22   22   19 1
    23   23   22 ar
    24   24   23 1
    25   25   23 ar
    26   26   25 1
    27   27   25 ar
    28   28   27 1
    29   29   27 ar
    30   30   29 1
    31   31   22 ar
    32   32   31 1
    33   33   34 2
    34   34   35 1
    35   36   34 1
    36   37   33 1
    37   38   37 2
    38   39   38 1
    39   40   38 1
    40   41   40 ar
    41   42   41 1
    42   43   41 ar
    43   44   43 1
    44   45   43 ar
    45   46   45 ar
    46   47   40 ar
    47   48   47 1
    48   49   45 ar
    49   50   49 1
    50   51   49 ar
    51   52   51 1
    52   53   51 ar
    53   54   53 1
    54   55   46 ar
    55   56   55 1
    56   57   37 1
    57   58    6 1
    58   59   58 1
    59   60   58 1
    60   61   58 1
    61   62   61 1
    62   63   61 1
    63   64   61 1
    64   73   79 1
    65   74   76 1
    66   75   79 2
    67   76  105 1
    68   77  129 2
    69   78  129 1
    70   79   80 1
    71   80   74 2
    72   81   80 1
    73   82   73 1
    74   83   82 ar
    75   84   83 1
    76   85   83 ar
    77   86   85 1
    78   87   85 ar
    79   88   87 1
    80   89   81 ar
    81   90   89 1
    82   91   73 1
    83   92   91 1
    84   93   91 1
    85   94   91 1
    86   95   94 ar
    87   96   95 1
    88   97   95 ar
    89   98   97 1
    90   99   97 ar
    91  100   99 1
    92  101   99 ar
    93  102  101 1
    94  103   94 ar
    95  104  103 1
    96  105  106 2
    97  106  107 1
    98  108  106 1
    99  109  105 1
   100  110  109 2
   101  111  110 1
   102  112  110 1
   103  113  112 ar
   104  114  113 1
   105  115  113 ar
   106  116  115 1
   107  117  115 ar
   108  118  117 ar
   109  119  112 ar
   110  120  119 1
   111  121  117 ar
   112  122  121 1
   113  123  121 ar
   114  124  123 1
   115  125  123 ar
   116  126  125 1
   117  127  118 ar
   118  128  127 1
   119  129  109 1
   120  130   78 1
   121  131  130 1
   122  132  130 1
   123  133  130 1
   124  134  133 1
   125  135  133 1
   126  136  133 1
   127    9   10 ar
   128   15   17 ar
   129   29   31 ar
   130   46   47 ar
   131   53   55 ar
   132   81   82 ar
   133   87   89 ar
   134  101  103 ar
   135  118  119 ar
   136  125  127 ar
@<TRIPOS>SUBSTRUCTURE
     1 RES1 1
     2 RES2 73
     3 SUP3 65

@<TRIPOS>CRYSIN
  12.1553   15.5375   15.9901 108.5330 109.6690  90.0040   2 1

