# MOL2 file generated by ConQuest
# Please check atom types

@<TRIPOS>MOLECULE
GIBDAY
   104    94     3
SMALL
NO_CHARGES
****
Generated from CSD

@<TRIPOS>ATOM
      1 C1         7.6641    2.9321   17.9390 C.ar      1 RES1    0.0000
      2 C2         7.1930    3.1218   19.2094 C.ar      1 RES1    0.0000
      3 H1         7.7763    3.3058   19.9114 H         1 RES1    0.0000
      4 C3         5.8368    3.0365   19.4275 C.ar      1 RES1    0.0000
      5 H2         5.4921    3.1663   20.2818 H         1 RES1    0.0000
      6 C4         4.9973    2.7584   18.3814 C.ar      1 RES1    0.0000
      7 H3         4.0811    2.6984   18.5288 H         1 RES1    0.0000
      8 C5         5.4986    2.5675   17.1205 C.ar      1 RES1    0.0000
      9 H4         4.9123    2.3805   16.4237 H         1 RES1    0.0000
     10 C6         6.8625    2.6460   16.8578 C.ar      1 RES1    0.0000
     11 C7         7.3941    2.6535   15.4580 C.2       1 RES1    0.0000
     12 C8         6.8912    1.6994   14.4780 C.2       1 RES1    0.0000
     13 C9         6.5614    0.3434   14.9092 C.2       1 RES1    0.0000
     14 O1         7.1146    0.0488   16.0835 O.3       1 RES1    0.0000
     15 C10        6.6057   -1.2108   16.6376 C.3       1 RES1    0.0000
     16 H5         6.8304   -1.9616   16.0663 H         1 RES1    0.0000
     17 H6         5.6438   -1.1786   16.7576 H         1 RES1    0.0000
     18 C11        7.3047   -1.2969   17.9341 C.3       1 RES1    0.0000
     19 H7         8.2537   -1.2839   17.7880 H         1 RES1    0.0000
     20 H8         7.0607   -2.1139   18.3749 H         1 RES1    0.0000
     21 H9         7.0548   -0.5503   18.4845 H         1 RES1    0.0000
     22 C12        6.8825    1.9888   13.1144 C.2       1 RES1    0.0000
     23 C13        6.7918    0.9588   12.0178 C.3       1 RES1    0.0000
     24 H10        6.0142    0.3934   12.1456 H         1 RES1    0.0000
     25 H11        7.5849    0.4011   12.0074 H         1 RES1    0.0000
     26 C14        6.6750    1.7420   10.7258 C.3       1 RES1    0.0000
     27 H12        7.3345    1.4372   10.0822 H         1 RES1    0.0000
     28 H13        5.7914    1.6314   10.3405 H         1 RES1    0.0000
     29 C15        6.9165    3.1876   11.0865 C.3       1 RES1    0.0000
     30 C16        5.8643    4.2316   10.8163 C.3       1 RES1    0.0000
     31 H14        4.9719    3.8612   10.9091 H         1 RES1    0.0000
     32 H15        5.9614    4.6038    9.9257 H         1 RES1    0.0000
     33 C17        6.1381    5.2789   11.8816 C.3       1 RES1    0.0000
     34 H16        5.3230    5.7513   12.1117 H         1 RES1    0.0000
     35 H17        6.7926    5.9220   11.5665 H         1 RES1    0.0000
     36 C18        6.6748    4.5122   13.0876 C.3       1 RES1    0.0000
     37 H18        7.4812    4.9271   13.4316 H         1 RES1    0.0000
     38 H19        6.0131    4.4706   13.7968 H         1 RES1    0.0000
     39 N1         9.1244    2.9989   17.7609 N.pl3     1 RES1    0.0000
     40 N2         6.9584    3.1783   12.5554 N.3       1 RES1    0.0000
     41 O2         9.6846    3.9811   18.1853 O.2       1 RES1    0.0000
     42 O3         9.6941    2.0674   17.2363 O.2       1 RES1    0.0000
     43 O4         8.1936    3.5348   15.1836 O.2       1 RES1    0.0000
     44 O5         5.8990   -0.4725   14.3167 O.2       1 RES1    0.0000
     45 H20        7.7987    3.5320   10.7396 H         1 RES1    0.0000
     46 C19        7.0895   -1.2697   16.7367 Du        3 SUP3    0.0000
     47 H21        7.9170   -1.4303   17.2167 Du        3 SUP3    0.0000
     48 H22        6.9588   -1.9729   16.0846 Du        3 SUP3    0.0000
     49 C20        5.9307   -1.1950   17.6863 Du        3 SUP3    0.0000
     50 H23        6.0352   -0.4350   18.2628 Du        3 SUP3    0.0000
     51 H24        5.8991   -1.9960   18.2132 Du        3 SUP3    0.0000
     52 H25        5.1140   -1.1083   17.1880 Du        3 SUP3    0.0000
     53 C21        2.9014    0.1707   21.1601 C.ar      2 RES2    0.0000
     54 C22        2.7736   -0.2877   19.8762 C.ar      2 RES2    0.0000
     55 H26        2.6280    0.3007   19.1705 H         2 RES2    0.0000
     56 C23        2.8669   -1.6466   19.6594 C.ar      2 RES2    0.0000
     57 H27        2.7855   -1.9879   18.7975 H         2 RES2    0.0000
     58 C24        3.0780   -2.4885   20.7096 C.ar      2 RES2    0.0000
     59 H28        3.1304   -3.4049   20.5583 H         2 RES2    0.0000
     60 C25        3.2147   -2.0083   21.9897 C.ar      2 RES2    0.0000
     61 H29        3.3665   -2.6018   22.6895 H         2 RES2    0.0000
     62 C26        3.1273   -0.6459   22.2508 C.ar      2 RES2    0.0000
     63 C27        3.0719   -0.1411   23.6641 C.2       2 RES2    0.0000
     64 C28        4.0221   -0.6213   24.6462 C.2       2 RES2    0.0000
     65 C29        5.3826   -0.9415   24.2221 C.2       2 RES2    0.0000
     66 O6         5.6891   -0.3704   23.0563 O.3       2 RES2    0.0000
     67 C30        6.9549   -0.8653   22.5043 C.3       2 RES2    0.0000
     68 H30        7.6902   -0.7015   23.1173 H         2 RES2    0.0000
     69 H31        6.9061   -1.8159   22.3165 H         2 RES2    0.0000
     70 C31        7.1128   -0.0900   21.2705 C.3       2 RES2    0.0000
     71 H32        6.4374   -0.3512   20.6392 H         2 RES2    0.0000
     72 H33        7.9812   -0.2578   20.8948 H         2 RES2    0.0000
     73 H34        7.0245    0.8455   21.4661 H         2 RES2    0.0000
     74 C32        3.7341   -0.6229   26.0163 C.2       2 RES2    0.0000
     75 C33        4.7575   -0.6790   27.1108 C.3       2 RES2    0.0000
     76 H35        5.2766    0.1399   27.1320 H         2 RES2    0.0000
     77 H36        5.3614   -1.4258   26.9755 H         2 RES2    0.0000
     78 C34        3.9856   -0.8508   28.3974 C.3       2 RES2    0.0000
     79 H37        4.2927   -0.2199   29.0675 H         2 RES2    0.0000
     80 H38        4.0942   -1.7508   28.7441 H         2 RES2    0.0000
     81 C35        2.5372   -0.5887   28.0452 C.3       2 RES2    0.0000
     82 C36        1.4921   -1.6240   28.3455 C.3       2 RES2    0.0000
     83 H39        1.1246   -1.5040   29.2345 H         2 RES2    0.0000
     84 H40        1.8541   -2.5209   28.2693 H         2 RES2    0.0000
     85 C37        0.4480   -1.3626   27.2827 C.3       2 RES2    0.0000
     86 H41       -0.1816   -0.6888   27.5833 H         2 RES2    0.0000
     87 H42       -0.0394   -2.1759   27.0772 H         2 RES2    0.0000
     88 C38        1.2129   -0.8743   26.0611 C.3       2 RES2    0.0000
     89 H43        1.2547   -1.5626   25.3790 H         2 RES2    0.0000
     90 H44        0.7976   -0.0821   25.6842 H         2 RES2    0.0000
     91 N3         2.8294    1.6322   21.3482 N.pl3     2 RES2    0.0000
     92 N4         2.5392   -0.5718   26.5805 N.3       2 RES2    0.0000
     93 O7         1.9541    2.2192   20.7568 O.2       2 RES2    0.0000
     94 O8         3.6424    2.1768   22.0324 O.2       2 RES2    0.0000
     95 O9         2.1376    0.6237   23.9297 O.2       2 RES2    0.0000
     96 O10        6.1862   -1.6226   24.8158 O.2       2 RES2    0.0000
     97 H45        2.2130    0.2973   28.4050 H         2 RES2    0.0000
     98 C39        7.0007   -0.4011   22.3843 Du        3 SUP3    0.0000
     99 H46        7.7144   -0.5315   23.0313 Du        3 SUP3    0.0000
    100 H47        7.1621    0.4238   21.9017 Du        3 SUP3    0.0000
    101 C40        6.9318   -1.5584   21.4400 Du        3 SUP3    0.0000
    102 H48        6.7394   -2.3610   21.9304 Du        3 SUP3    0.0000
    103 H49        7.7723   -1.6533   20.9861 Du        3 SUP3    0.0000
    104 H50        6.2370   -1.4027   20.7957 Du        3 SUP3    0.0000
@<TRIPOS>BOND
     1    1    2 ar
     2    2    3 1
     3    4    2 ar
     4    5    4 1
     5    6    4 ar
     6    7    6 1
     7    8    6 ar
     8    9    8 1
     9   10    1 ar
    10   11   10 1
    11   12   11 1
    12   13   12 1
    13   14   13 1
    14   15   14 1
    15   16   15 1
    16   17   15 1
    17   18   15 1
    18   19   18 1
    19   20   18 1
    20   21   18 1
    21   22   12 2
    22   23   22 1
    23   24   23 1
    24   25   23 1
    25   26   23 1
    26   27   26 1
    27   28   26 1
    28   29   26 1
    29   30   29 1
    30   31   30 1
    31   32   30 1
    32   33   30 1
    33   34   33 1
    34   35   33 1
    35   36   33 1
    36   37   36 1
    37   38   36 1
    38   39    1 1
    39   40   22 1
    40   41   39 2
    41   42   39 2
    42   43   11 2
    43   44   13 2
    44   45   29 1
    45   53   54 ar
    46   54   55 1
    47   56   54 ar
    48   57   56 1
    49   58   56 ar
    50   59   58 1
    51   60   58 ar
    52   61   60 1
    53   62   53 ar
    54   63   62 1
    55   64   63 1
    56   65   64 1
    57   66   65 1
    58   67   66 1
    59   68   67 1
    60   69   67 1
    61   70   67 1
    62   71   70 1
    63   72   70 1
    64   73   70 1
    65   74   64 2
    66   75   74 1
    67   76   75 1
    68   77   75 1
    69   78   75 1
    70   79   78 1
    71   80   78 1
    72   81   78 1
    73   82   81 1
    74   83   82 1
    75   84   82 1
    76   85   82 1
    77   86   85 1
    78   87   85 1
    79   88   85 1
    80   89   88 1
    81   90   88 1
    82   91   53 1
    83   92   74 1
    84   93   91 2
    85   94   91 2
    86   95   63 2
    87   96   65 2
    88   97   81 1
    89    8   10 ar
    90   29   40 1
    91   36   40 1
    92   60   62 ar
    93   81   92 1
    94   88   92 1
@<TRIPOS>SUBSTRUCTURE
     1 RES1 1
     2 RES2 53
     3 SUP3 46

@<TRIPOS>CRYSIN
   8.0810    8.1230   26.1360  87.4370  87.5310  89.5900   2 1

