# MOL2 file generated by ConQuest
# Please check atom types

@<TRIPOS>MOLECULE
GIBVOE
    52    56     2
SMALL
NO_CHARGES
****
Generated from CSD

@<TRIPOS>ATOM
      1 N1         2.5556   13.1403    2.2277 N.am      1 RES1    0.0000
      2 H1         2.6322   13.8571    2.7321 H         1 RES1    0.0000
      3 N2         1.4992   11.9895    0.5132 N.am      1 RES1    0.0000
      4 H2         0.9045   11.9761   -0.1349 H         1 RES1    0.0000
      5 N3         1.3240    9.6055   -1.2116 N.pl3     1 RES1    0.0000
      6 N4         4.5888   13.3183    4.2874 N.pl3     1 RES1    0.0000
      7 O1         0.8416   14.0868    1.1176 O.2       1 RES1    0.0000
      8 O2         0.6814   10.5792   -1.5712 O.2       1 RES1    0.0000
      9 O3         1.1992    8.5112   -1.7413 O.2       1 RES1    0.0000
     10 O4         5.5016   13.3145    5.1092 O.2       1 RES1    0.0000
     11 O5         3.8806   14.3163    4.1285 O.2       1 RES1    0.0000
     12 C1         1.5745   13.1285    1.2679 C.2       1 RES1    0.0000
     13 C2         2.3262   10.8949    0.6602 C.ar      1 RES1    0.0000
     14 C3         2.2642    9.7417   -0.1138 C.ar      1 RES1    0.0000
     15 C4         3.1137    8.6511    0.1264 C.ar      1 RES1    0.0000
     16 H3         3.0501    7.8957   -0.4112 H         1 RES1    0.0000
     17 C5         4.0249    8.6794    1.1273 C.ar      1 RES1    0.0000
     18 H4         4.5738    7.9437    1.2748 H         1 RES1    0.0000
     19 C6         4.1440    9.8189    1.9472 C.ar      1 RES1    0.0000
     20 C7         5.0823    9.9020    3.0029 C.ar      1 RES1    0.0000
     21 H5         5.6267    9.1712    3.1877 H         1 RES1    0.0000
     22 C8         5.2013   11.0230    3.7465 C.ar      1 RES1    0.0000
     23 H6         5.8324   11.0581    4.4291 H         1 RES1    0.0000
     24 C9         4.3794   12.1388    3.4981 C.ar      1 RES1    0.0000
     25 C10        3.4075   12.0993    2.4986 C.ar      1 RES1    0.0000
     26 C11        3.2977   10.9281    1.7063 C.ar      1 RES1    0.0000
     27 N5         5.1893    5.2457    7.4254 N.am      2 RES2    0.0000
     28 H7         5.7758    5.2469    8.0820 H         2 RES2    0.0000
     29 N6         4.1336    6.3983    5.7099 N.am      2 RES2    0.0000
     30 H8         4.0659    7.1161    5.2070 H         2 RES2    0.0000
     31 N7         2.0993    6.5802    3.6497 N.pl3     2 RES2    0.0000
     32 N8         5.3645    2.8644    9.1501 N.pl3     2 RES2    0.0000
     33 O6         5.8473    7.3424    6.8180 O.2       2 RES2    0.0000
     34 O7         2.8085    7.5718    3.8095 O.2       2 RES2    0.0000
     35 O8         1.1864    6.5698    2.8245 O.2       2 RES2    0.0000
     36 O9         5.4932    1.7676    9.6757 O.2       2 RES2    0.0000
     37 O10        6.0040    3.8367    9.5117 O.2       2 RES2    0.0000
     38 C12        5.1142    6.3876    6.6696 C.2       2 RES2    0.0000
     39 C13        3.2785    5.3610    5.4398 C.ar      2 RES2    0.0000
     40 C14        2.3104    5.3949    4.4372 C.ar      2 RES2    0.0000
     41 C15        1.4873    4.2811    4.1905 C.ar      2 RES2    0.0000
     42 H9         0.8571    4.3154    3.5084 H         2 RES2    0.0000
     43 C16        1.6044    3.1605    4.9379 C.ar      2 RES2    0.0000
     44 H10        1.0569    2.4305    4.7578 H         2 RES2    0.0000
     45 C17        2.5474    3.0798    5.9914 C.ar      2 RES2    0.0000
     46 C18        2.6660    1.9381    6.8117 C.ar      2 RES2    0.0000
     47 H11        2.1154    1.2032    6.6644 H         2 RES2    0.0000
     48 C19        3.5769    1.9088    7.8109 C.ar      2 RES2    0.0000
     49 H12        3.6419    1.1514    8.3471 H         2 RES2    0.0000
     50 C20        4.4267    3.0018    8.0526 C.ar      2 RES2    0.0000
     51 C21        4.3635    4.1513    7.2762 C.ar      2 RES2    0.0000
     52 C22        3.3914    4.1869    6.2319 C.ar      2 RES2    0.0000
@<TRIPOS>BOND
     1    1    2 1
     2    3    4 1
     3    5    8 2
     4    6   10 2
     5    7   12 2
     6    9    5 2
     7   11    6 2
     8   12    1 1
     9   13    3 1
    10   14    5 1
    11   15   14 ar
    12   16   15 1
    13   17   15 ar
    14   18   17 1
    15   19   17 ar
    16   20   19 ar
    17   21   20 1
    18   22   20 ar
    19   23   22 1
    20   24    6 1
    21   25    1 1
    22   26   13 ar
    23   27   28 1
    24   29   30 1
    25   31   34 2
    26   32   36 2
    27   33   38 2
    28   35   31 2
    29   37   32 2
    30   38   27 1
    31   39   29 1
    32   40   31 1
    33   41   40 ar
    34   42   41 1
    35   43   41 ar
    36   44   43 1
    37   45   43 ar
    38   46   45 ar
    39   47   46 1
    40   48   46 ar
    41   49   48 1
    42   50   32 1
    43   51   27 1
    44   52   39 ar
    45    3   12 1
    46   13   14 ar
    47   19   26 ar
    48   22   24 ar
    49   24   25 ar
    50   25   26 ar
    51   29   38 1
    52   39   40 ar
    53   45   52 ar
    54   48   50 ar
    55   50   51 ar
    56   51   52 ar
@<TRIPOS>SUBSTRUCTURE
     1 RES1 1
     2 RES2 27

@<TRIPOS>CRYSIN
   4.9626   13.4805   15.9460  90.0160  95.4060  90.0120   2 1

