# MOL2 file generated by ConQuest
# Please check atom types

@<TRIPOS>MOLECULE
GIBWEV
    44    47     1
SMALL
NO_CHARGES
****
Generated from CSD

@<TRIPOS>ATOM
      1 N1         4.9558    7.0434    2.6790 N.3       1 RES1    0.0000
      2 N2         3.3832    4.5519    2.1077 N.3       1 RES1    0.0000
      3 N3         7.7449    4.0429    6.3577 N.pl3     1 RES1    0.0000
      4 O1         8.1892    4.7012    7.3212 O.2       1 RES1    0.0000
      5 O2         8.0897    2.8433    6.2044 O.2       1 RES1    0.0000
      6 C1         5.3337    6.1953    3.6557 C.ar      1 RES1    0.0000
      7 C2         5.6996    6.7075    4.9167 C.ar      1 RES1    0.0000
      8 H1         5.4325    7.5621    5.1689 H         1 RES1    0.0000
      9 C3         6.4491    5.9409    5.7720 C.ar      1 RES1    0.0000
     10 H2         6.6951    6.2918    6.5971 H         1 RES1    0.0000
     11 C4         6.8521    4.6547    5.4381 C.ar      1 RES1    0.0000
     12 C5         6.3463    4.0111    4.2577 C.ar      1 RES1    0.0000
     13 C6         6.7048    2.7144    3.8115 C.ar      1 RES1    0.0000
     14 H3         7.3264    2.2118    4.2864 H         1 RES1    0.0000
     15 C7         6.1269    2.2054    2.6712 C.ar      1 RES1    0.0000
     16 H4         6.4539    1.4070    2.3233 H         1 RES1    0.0000
     17 C8         5.0820    2.8331    2.0236 C.ar      1 RES1    0.0000
     18 H5         4.6879    2.4355    1.2805 H         1 RES1    0.0000
     19 C9         4.6183    4.0673    2.4883 C.ar      1 RES1    0.0000
     20 C10        5.4236    4.7629    3.4559 C.ar      1 RES1    0.0000
     21 C11        5.0424    6.7827    1.2349 C.3       1 RES1    0.0000
     22 H6         4.2362    6.3523    0.9095 H         1 RES1    0.0000
     23 H7         5.8056    6.2218    1.0284 H         1 RES1    0.0000
     24 C12        5.2034    8.1675    0.6271 C.3       1 RES1    0.0000
     25 H8         6.1350    8.4368    0.6069 H         1 RES1    0.0000
     26 H9         4.8425    8.2004   -0.2720 H         1 RES1    0.0000
     27 C13        4.3981    9.0391    1.5748 C.3       1 RES1    0.0000
     28 H10        3.4463    8.9458    1.4156 H         1 RES1    0.0000
     29 H11        4.6458    9.9732    1.4912 H         1 RES1    0.0000
     30 C14        4.7882    8.4856    2.9344 C.3       1 RES1    0.0000
     31 H12        5.6146    8.8832    3.2490 H         1 RES1    0.0000
     32 H13        4.0906    8.6457    3.5894 H         1 RES1    0.0000
     33 C15        2.5592    3.8160    1.1453 C.3       1 RES1    0.0000
     34 H14        2.5447    2.8692    1.3562 H         1 RES1    0.0000
     35 H15        2.8943    3.9327    0.2431 H         1 RES1    0.0000
     36 C16        1.1655    4.4299    1.2946 C.3       1 RES1    0.0000
     37 H16        1.0408    5.1679    0.6772 H         1 RES1    0.0000
     38 H17        0.4735    3.7683    1.1400 H         1 RES1    0.0000
     39 C17        1.1444    4.9145    2.7321 C.3       1 RES1    0.0000
     40 H18        0.9567    4.1871    3.3445 H         1 RES1    0.0000
     41 H19        0.4848    5.6143    2.8582 H         1 RES1    0.0000
     42 C18        2.5592    5.4489    2.9255 C.3       1 RES1    0.0000
     43 H20        2.6305    6.3650    2.6169 H         1 RES1    0.0000
     44 H21        2.8215    5.4086    3.8577 H         1 RES1    0.0000
@<TRIPOS>BOND
     1    1    6 1
     2    2   19 1
     3    3    4 2
     4    5    3 2
     5    6    7 ar
     6    7    8 1
     7    9    7 ar
     8   10    9 1
     9   11    3 1
    10   12   11 ar
    11   13   12 ar
    12   14   13 1
    13   15   13 ar
    14   16   15 1
    15   17   15 ar
    16   18   17 1
    17   19   17 ar
    18   20    6 ar
    19   21    1 1
    20   22   21 1
    21   23   21 1
    22   24   21 1
    23   25   24 1
    24   26   24 1
    25   27   24 1
    26   28   27 1
    27   29   27 1
    28   30    1 1
    29   31   30 1
    30   32   30 1
    31   33    2 1
    32   34   33 1
    33   35   33 1
    34   36   33 1
    35   37   36 1
    36   38   36 1
    37   39   36 1
    38   40   39 1
    39   41   39 1
    40   42    2 1
    41   43   42 1
    42   44   42 1
    43    9   11 ar
    44   12   20 ar
    45   19   20 ar
    46   27   30 1
    47   39   42 1
@<TRIPOS>SUBSTRUCTURE
     1 RES1 1

@<TRIPOS>CRYSIN
   8.0937   10.6030   18.0100  90.0000  90.0000  90.0000  19 1

