# MOL2 file generated by ConQuest
# Please check atom types

@<TRIPOS>MOLECULE
GIBXEU
    47    49     1
SMALL
NO_CHARGES
****
Generated from CSD

@<TRIPOS>ATOM
      1 N1         2.7079    0.4864   -0.9728 N.3       1 RES1    0.0000
      2 C1         3.1374    1.7278   -0.3135 C.3       1 RES1    0.0000
      3 C2         1.9551    2.2041    0.4308 C.3       1 RES1    0.0000
      4 O1         0.8585    2.5892   -0.3937 O.3       1 RES1    0.0000
      5 C3         0.6405    1.8748   -1.4658 C.2       1 RES1    0.0000
      6 C4         1.5998    0.7651   -1.9037 C.3       1 RES1    0.0000
      7 C5         2.2944    1.1350   -3.2331 C.3       1 RES1    0.0000
      8 C6         3.7214    0.7398   -3.0548 C.3       1 RES1    0.0000
      9 O2         3.7298   -0.0000   -1.8463 O.3       1 RES1    0.0000
     10 O3        -0.3103    2.1231   -2.2089 O.2       1 RES1    0.0000
     11 C7         4.3152    1.4390    0.6438 C.ar      1 RES1    0.0000
     12 C8         5.4505    2.2244    0.5492 C.ar      1 RES1    0.0000
     13 C9         6.4847    1.9863    1.4263 C.ar      1 RES1    0.0000
     14 C10        6.4124    0.9881    2.3572 C.ar      1 RES1    0.0000
     15 C11        5.3259    0.2331    2.4195 C.ar      1 RES1    0.0000
     16 C12        4.2439    0.4459    1.5938 C.ar      1 RES1    0.0000
     17 C13        4.2804   -0.1064   -4.1940 C.3       1 RES1    0.0000
     18 C14        4.6280    0.5726   -5.3427 C.3       1 RES1    0.0000
     19 C15        5.9172    1.0691   -5.4348 C.3       1 RES1    0.0000
     20 C16        6.6150    1.6417   -6.4986 C.3       1 RES1    0.0000
     21 C17        7.7552    2.3207   -6.4938 C.3       1 RES1    0.0000
     22 C18        8.5116    2.8781   -7.6664 C.3       1 RES1    0.0000
     23 H1         3.4732    2.4479   -0.9991 H         1 RES1    0.0000
     24 H2         2.2412    3.0346    1.0063 H         1 RES1    0.0000
     25 H3         1.6340    1.4324    1.0661 H         1 RES1    0.0000
     26 H4         0.9754   -0.0770   -1.9660 H         1 RES1    0.0000
     27 H5         2.2183    2.1666   -3.4138 H         1 RES1    0.0000
     28 H6         1.8632    0.6075   -4.0324 H         1 RES1    0.0000
     29 H7         4.3353    1.5921   -3.0405 H         1 RES1    0.0000
     30 H8         5.5180    2.9470   -0.1388 H         1 RES1    0.0000
     31 H9         7.3054    2.5553    1.3808 H         1 RES1    0.0000
     32 H10        7.1730    0.8290    2.9866 H         1 RES1    0.0000
     33 H11        5.2900   -0.5128    3.0848 H         1 RES1    0.0000
     34 H12        3.4198   -0.1125    1.6836 H         1 RES1    0.0000
     35 H13        3.5522   -0.8188   -4.4500 H         1 RES1    0.0000
     36 H14        5.1391   -0.5954   -3.8386 H         1 RES1    0.0000
     37 H15        3.9714    1.3868   -5.4360 H         1 RES1    0.0000
     38 H16        4.4878   -0.0846   -6.1492 H         1 RES1    0.0000
     39 H17        6.5176    0.2554   -5.1524 H         1 RES1    0.0000
     40 H18        5.9538    1.8064   -4.6882 H         1 RES1    0.0000
     41 H19        5.9241    2.3004   -6.9365 H         1 RES1    0.0000
     42 H20        6.7943    0.8391   -7.1507 H         1 RES1    0.0000
     43 H21        8.4406    1.6843   -6.0164 H         1 RES1    0.0000
     44 H22        7.5650    3.1527   -5.8823 H         1 RES1    0.0000
     45 H23        9.3783    3.3635   -7.3254 H         1 RES1    0.0000
     46 H24        8.7804    2.0957   -8.3138 H         1 RES1    0.0000
     47 H25        7.9048    3.5646   -8.1797 H         1 RES1    0.0000
@<TRIPOS>BOND
     1    1    2 1
     2    2    3 1
     3    3    4 1
     4    4    5 1
     5    5    6 1
     6    6    1 1
     7    7    6 1
     8    8    7 1
     9    9    1 1
    10   10    5 2
    11   11    2 1
    12   12   11 ar
    13   13   12 ar
    14   14   13 ar
    15   15   14 ar
    16   16   11 ar
    17   17    8 1
    18   18   17 1
    19   19   18 1
    20   20   19 1
    21   21   20 1
    22   22   21 1
    23   23    2 1
    24   24    3 1
    25   25    3 1
    26   26    6 1
    27   27    7 1
    28   28    7 1
    29   29    8 1
    30   30   12 1
    31   31   13 1
    32   32   14 1
    33   33   15 1
    34   34   16 1
    35   35   17 1
    36   36   17 1
    37   37   18 1
    38   38   18 1
    39   39   19 1
    40   40   19 1
    41   41   20 1
    42   42   20 1
    43   43   21 1
    44   44   21 1
    45   45   22 1
    46   46   22 1
    47   47   22 1
    48    8    9 1
    49   15   16 ar
@<TRIPOS>SUBSTRUCTURE
     1 RES1 1

@<TRIPOS>CRYSIN
  14.1040    5.0670   13.1760  90.0000 114.7500  90.0000   4 1

