# MOL2 file generated by ConQuest
# Please check atom types

@<TRIPOS>MOLECULE
GIBYAR
    38    40     1
SMALL
NO_CHARGES
****
Generated from CSD

@<TRIPOS>ATOM
      1 O1         3.6323    0.0000    2.0145 O.3       1 RES1    0.0000
      2 C1         3.4421   -0.6600    3.2733 C.3       1 RES1    0.0000
      3 C2         1.9443   -0.6194    3.4870 C.3       1 RES1    0.0000
      4 C3         1.4036   -0.5874    2.0339 C.3       1 RES1    0.0000
      5 C4         0.4320   -1.7029    1.6995 C.2       1 RES1    0.0000
      6 O2         0.6660   -2.5215    0.6698 O.3       1 RES1    0.0000
      7 C5         1.7983   -2.2417   -0.2107 C.3       1 RES1    0.0000
      8 C6         2.9949   -1.7638    0.5726 C.3       1 RES1    0.0000
      9 N1         2.5916   -0.4667    1.1484 N.3       1 RES1    0.0000
     10 C7         4.2721    0.0865    4.3275 C.3       1 RES1    0.0000
     11 O3        -0.5720   -1.8370    2.3489 O.2       1 RES1    0.0000
     12 C8         1.4451   -1.7739    4.3183 C.2       1 RES1    0.0000
     13 O4         1.7602   -2.8980    4.1210 O.2       1 RES1    0.0000
     14 O5         0.6518   -1.3756    5.2867 O.3       1 RES1    0.0000
     15 C9         0.0647   -2.4190    6.1150 C.3       1 RES1    0.0000
     16 C10        4.1541   -1.5742   -0.3814 C.ar      1 RES1    0.0000
     17 C11        5.1993   -2.4820   -0.3753 C.ar      1 RES1    0.0000
     18 C12        6.2459   -2.3288   -1.2680 C.ar      1 RES1    0.0000
     19 C13        6.2649   -1.2779   -2.1433 C.ar      1 RES1    0.0000
     20 C14        5.2055   -0.3952   -2.1873 C.ar      1 RES1    0.0000
     21 C15        4.1661   -0.5361   -1.3079 C.ar      1 RES1    0.0000
     22 H1         3.7666   -1.6575    3.3244 H         1 RES1    0.0000
     23 H2         1.6139    0.2040    4.0484 H         1 RES1    0.0000
     24 H3         0.7793    0.2435    1.8846 H         1 RES1    0.0000
     25 H4         1.5209   -1.4989   -0.8988 H         1 RES1    0.0000
     26 H5         2.0554   -3.1191   -0.7271 H         1 RES1    0.0000
     27 H6         3.2912   -2.4398    1.3191 H         1 RES1    0.0000
     28 H7         5.2921    0.0016    4.0944 H         1 RES1    0.0000
     29 H8         3.9978    1.1000    4.3347 H         1 RES1    0.0000
     30 H9         4.0930   -0.3316    5.2744 H         1 RES1    0.0000
     31 H10       -0.5451   -1.9817    6.8492 H         1 RES1    0.0000
     32 H11       -0.5129   -3.0582    5.5147 H         1 RES1    0.0000
     33 H12        0.8287   -2.9696    6.5782 H         1 RES1    0.0000
     34 H13        5.1977   -3.2451    0.2710 H         1 RES1    0.0000
     35 H14        6.9939   -2.9920   -1.2731 H         1 RES1    0.0000
     36 H15        7.0480   -1.1492   -2.7517 H         1 RES1    0.0000
     37 H16        5.1968    0.3450   -2.8591 H         1 RES1    0.0000
     38 H17        3.4072    0.1143   -1.3314 H         1 RES1    0.0000
@<TRIPOS>BOND
     1    1    2 1
     2    2    3 1
     3    3    4 1
     4    4    5 1
     5    5    6 1
     6    6    7 1
     7    7    8 1
     8    8    9 1
     9    9    1 1
    10   10    2 1
    11   11    5 2
    12   12    3 1
    13   13   12 2
    14   14   12 1
    15   15   14 1
    16   16    8 1
    17   17   16 ar
    18   18   17 ar
    19   19   18 ar
    20   20   19 ar
    21   21   16 ar
    22   22    2 1
    23   23    3 1
    24   24    4 1
    25   25    7 1
    26   26    7 1
    27   27    8 1
    28   28   10 1
    29   29   10 1
    30   30   10 1
    31   31   15 1
    32   32   15 1
    33   33   15 1
    34   34   17 1
    35   35   18 1
    36   36   19 1
    37   37   20 1
    38   38   21 1
    39    4    9 1
    40   20   21 ar
@<TRIPOS>SUBSTRUCTURE
     1 RES1 1

@<TRIPOS>CRYSIN
  13.6280    5.3400   10.5080  90.0000 103.3100  90.0000   4 1

