# MOL2 file generated by ConQuest
# Please check atom types

@<TRIPOS>MOLECULE
GIBZAV
    34    35     1
SMALL
NO_CHARGES
****
Generated from CSD

@<TRIPOS>ATOM
      1 C1        13.6991    4.6638   15.7145 C.ar      1 RES1    0.0000
      2 C2        14.3155    3.9002   16.6935 C.ar      1 RES1    0.0000
      3 H1        14.3655    2.9755   16.6055 H         1 RES1    0.0000
      4 C3        14.8489    4.5220   17.7875 C.ar      1 RES1    0.0000
      5 H2        15.2607    4.0166   18.4523 H         1 RES1    0.0000
      6 C4        14.7799    5.8794   17.9107 C.ar      1 RES1    0.0000
      7 H3        15.1701    6.2988   18.6432 H         1 RES1    0.0000
      8 C5        14.1307    6.6345   16.9467 C.ar      1 RES1    0.0000
      9 H4        14.0548    7.5544   17.0645 H         1 RES1    0.0000
     10 C6        13.5930    6.0491   15.8120 C.ar      1 RES1    0.0000
     11 C7        12.9188    6.8951   14.8126 C.2       1 RES1    0.0000
     12 H5        12.1367    6.6163   14.3944 H         1 RES1    0.0000
     13 C8        13.3193    9.9590   13.2316 C.2       1 RES1    0.0000
     14 C9        12.4484   10.7844   12.3146 C.3       1 RES1    0.0000
     15 H6        11.9468   10.1893   11.7351 H         1 RES1    0.0000
     16 H7        11.8113   11.2837   12.8495 H         1 RES1    0.0000
     17 C10       13.2356   11.7406   11.4692 C.ar      1 RES1    0.0000
     18 C11       13.4928   13.0229   11.9057 C.ar      1 RES1    0.0000
     19 H8        13.1570   13.2993   12.7290 H         1 RES1    0.0000
     20 C12       14.2361   13.9016   11.1502 C.ar      1 RES1    0.0000
     21 H9        14.3897   14.7646   11.4603 H         1 RES1    0.0000
     22 C13       14.7462   13.5102    9.9492 C.ar      1 RES1    0.0000
     23 H10       15.2650   14.1016    9.4523 H         1 RES1    0.0000
     24 C14       14.5011   12.2606    9.4739 C.ar      1 RES1    0.0000
     25 H11       14.8360   12.0012    8.6466 H         1 RES1    0.0000
     26 C15       13.7406   11.3637   10.2389 C.ar      1 RES1    0.0000
     27 H12       13.5757   10.5080    9.9167 H         1 RES1    0.0000
     28 O1        13.1372    4.5523   13.4818 O.2       1 RES1    0.0000
     29 O2        12.8074    2.8131   14.6598 O.2       1 RES1    0.0000
     30 O3        14.4394   10.3188   13.5732 O.2       1 RES1    0.0000
     31 N1        13.1864    3.9681   14.5379 N.pl3     1 RES1    0.0000
     32 N2        13.4428    8.0162   14.5425 N.2       1 RES1    0.0000
     33 N3        12.7626    8.8081   13.6394 N.am      1 RES1    0.0000
     34 H13       11.9917    8.5676   13.3423 H         1 RES1    0.0000
@<TRIPOS>BOND
     1    1    2 ar
     2    2    3 1
     3    4    2 ar
     4    5    4 1
     5    6    4 ar
     6    7    6 1
     7    8    6 ar
     8    9    8 1
     9   10    1 ar
    10   11   10 1
    11   12   11 1
    12   13   14 1
    13   14   15 1
    14   16   14 1
    15   17   14 1
    16   18   17 ar
    17   19   18 1
    18   20   18 ar
    19   21   20 1
    20   22   20 ar
    21   23   22 1
    22   24   22 ar
    23   25   24 1
    24   26   17 ar
    25   27   26 1
    26   28   31 2
    27   29   31 2
    28   30   13 2
    29   31    1 1
    30   32   11 2
    31   33   13 1
    32   34   33 1
    33    8   10 ar
    34   24   26 ar
    35   32   33 1
@<TRIPOS>SUBSTRUCTURE
     1 RES1 1

@<TRIPOS>CRYSIN
   8.6321   12.1200   13.5400  90.0000  90.0000  90.0000  19 1

