# MOL2 file generated by ConQuest
# Please check atom types

@<TRIPOS>MOLECULE
GICQAN
    17    18     1
SMALL
USER_CHARGES
****
Generated from CSD

@<TRIPOS>ATOM
      1 O1         2.0984   -0.3717    2.7080 O.3       1 RES1    0.0000
      2 O2         2.5036   -0.6485    4.9441 O.2       1 RES1   -1.0000
      3 O3         4.4207    1.9774    0.3392 O.2       1 RES1    0.0000
      4 O4         5.9527    0.7654    1.2696 O.2       1 RES1    0.0000
      5 O5         6.7954    1.8296    5.2046 O.3       1 RES1    0.0000
      6 N1         2.9317   -0.1958    3.8985 N.pl3     1 RES1    1.0000
      7 N2         2.7531    0.1850    1.6470 N.2       1 RES1    0.0000
      8 N3         4.8236    1.1893    1.1753 N.pl3     1 RES1    0.0000
      9 N4         5.9885    1.6929    4.0316 N.2       1 RES1    0.0000
     10 N5         5.1561    0.4247    5.7244 N.2       1 RES1    0.0000
     11 N6         6.7921    1.0163    7.3371 N.3       1 RES1    0.0000
     12 C1         4.0253    0.4553    3.5099 C.2       1 RES1    0.0000
     13 C2         3.8590    0.6541    2.1188 C.2       1 RES1    0.0000
     14 C3         5.0765    0.8612    4.4352 C.2       1 RES1    0.0000
     15 C4         6.2277    1.0578    6.1536 C.2       1 RES1    0.0000
     16 H1         6.4108    0.6218    7.9819 H         1 RES1    0.0000
     17 H2         7.4601    1.5007    7.4834 H         1 RES1    0.0000
@<TRIPOS>BOND
     1    1    6 1
     2    2    6 1
     3    3    8 2
     4    4    8 2
     5    5    9 1
     6    6   12 2
     7    7    1 1
     8    8   13 1
     9    9   14 2
    10   10   14 1
    11   11   15 1
    12   12   13 1
    13   13    7 2
    14   14   12 1
    15   15    5 1
    16   16   11 1
    17   17   11 1
    18   10   15 2
@<TRIPOS>SUBSTRUCTURE
     1 RES1 1

@<TRIPOS>CRYSIN
   6.0943    8.2913   15.1764  90.0000  97.0970  90.0000  14 1

